data_mof_unit_7951.cif
_audit_creation_date              2012-12-11T17:43:39-0500
_audit_creation_method            fapswitch 2.2
_symmetry_space_group_name_H-M    P1
_symmetry_Int_Tables_number       1
_space_group_crystal_system       triclinic
_cell_length_a                    15.070198
_cell_length_b                    14.963898
_cell_length_c                    17.159847
_cell_angle_alpha                 108.803577
_cell_angle_beta                  106.242292
_cell_angle_gamma                 109.044428
_cell_volume                      3126.00586237

loop_
_atom_site_label
_atom_site_type_symbol
_atom_type_description
_atom_site_fract_x
_atom_site_fract_y
_atom_site_fract_z
_atom_type_partial_charge
C1    C     C_R   0.083683 0.287769 0.079696 -0.128360
C2    C     C_R   0.081674 0.112944 0.131323 -0.212247
C3    C     C_R   0.990360 0.923656 0.077068 0.053502
C4    C     C_R   0.989068 0.110879 0.081382 0.058115
C5    C     C_R   0.081967 0.021030 0.134965 0.034005
C6    C     C_R   0.893819 0.021399 0.052078 0.039854
C7    C     C_R   0.703821 0.950126 0.954396 -0.182244
C8    C     C_R   0.157890 0.980056 0.260650 -0.137914
C9    C     C_R   0.605537 0.037153 0.004338 -0.066933
C10   C     C_R   0.343842 0.059021 0.348671 -0.103353
C11   C     C_R   0.554358 0.699995 0.272786 -0.096804
C12   C     C_R   0.908220 0.722148 0.976814 -0.086825
C13   C     C_R   0.481380 0.235500 0.655324 -0.116785
C14   C     C_R   0.525646 0.645580 0.179627 -0.143519
C15   C     C_R   0.482333 0.272365 0.741663 -0.126490
C16   C     C_R   0.936575 0.510289 0.743816 -0.109673
C17   C     C_R   0.063202 0.548288 0.263626 -0.157285
C18   C     C_R   0.484248 0.534661 0.136822 0.134289
C19   C     C_R   0.452822 0.352776 0.771054 0.126858
C20   C     C_R   0.470917 0.478695 0.187874 -0.170613
C21   C     C_R   0.420327 0.393765 0.711574 -0.172514
C22   C     C_R   0.497062 0.533225 0.280567 -0.120664
C23   C     C_R   0.028806 0.562532 0.741343 0.100760
C24   C     C_R   0.419054 0.356287 0.625135 -0.096873
C25   C     C_R   0.539467 0.643900 0.323161 -0.099326
C26   C     C_R   0.449985 0.277619 0.597213 -0.096344
C27   C     C_R   0.549103 0.465621 0.029434 -0.247396
C28   C     C_R   0.373706 0.407059 0.876382 -0.275033
C29   C     C_R   0.544982 0.426277 0.942391 0.058784
C30   C     C_R   0.380360 0.450263 0.964626 0.085533
C31   C     C_R   0.457324 0.395176 0.864043 0.042270
C32   C     C_R   0.468068 0.479131 0.041763 0.027407
C33   C     C_R   0.610296 0.956235 0.939030 -0.111220
C34   C     C_R   0.970177 0.529722 0.270566 0.020598
C35   C     C_R   0.242867 0.993920 0.331427 -0.090569
C36   C     C_R   0.961062 0.541471 0.353172 0.020517
C37   C     C_R   0.039607 0.568823 0.663279 0.091876
C38   C     C_R   0.069029 0.481679 0.536970 -0.150213
C39   C     C_R   0.940336 0.641014 0.481570 -0.225745
C40   C     C_R   0.774935 0.201816 0.813125 -0.115314
C41   C     C_R   0.278639 0.786718 0.178320 -0.124155
C42   C     C_R   0.084862 0.509735 0.625706 -0.237551
C43   C     C_R   0.935375 0.619247 0.395347 -0.137848
C44   C     C_R   0.989924 0.614270 0.618001 -0.121651
C45   C     C_R   0.756714 0.195511 0.727123 0.042741
C46   C     C_R   0.988413 0.481128 0.393782 -0.108873
C47   C     C_R   0.979154 0.590694 0.528721 0.051063
C48   C     C_R   0.010437 0.515586 0.485770 0.168095
C49   C     C_R   0.712545 0.098890 0.641895 0.128470
C50   C     C_R   0.438614 0.859367 0.327159 0.131288
C51   C     C_R   0.591288 0.029336 0.398009 -0.240828
C52   C     C_R   0.598093 0.910549 0.557801 -0.236548
C53   C     C_R   0.499239 0.949775 0.322575 -0.194862
C54   C     C_R   0.669647 0.999111 0.639788 -0.164216
C55   C     C_R   0.477382 0.843587 0.403238 -0.304926
C56   C     C_R   0.332287 0.784697 0.257480 0.070285
C57   C     C_R   0.697836 0.105843 0.559956 -0.280064
C58   C     C_R   0.568027 0.922333 0.478509 0.181863
C59   C     C_R   0.622278 0.018561 0.478011 0.187102
C60   C     C_R   0.694149 0.111841 0.085425 -0.066983
C61   C     C_R   0.360227 0.108849 0.294130 -0.131573
C62   C     C_R   0.787734 0.105907 0.101249 -0.148928
C63   C     C_R   0.275470 0.095130 0.223074 -0.168562
C64   C     C_R   0.268381 0.542101 0.958628 0.515842
C65   C     C_R   0.698897 0.400137 0.992407 0.496962
C66   C     C_R   0.793668 0.025647 0.035374 0.095758
C67   C     C_R   0.297683 0.469488 0.976543 -0.111121
C68   C     C_R   0.173247 0.030942 0.205932 0.108494
C69   C     C_R   0.779580 0.296882 0.735654 -0.127586
C70   C     C_R   0.271113 0.690150 0.253426 -0.131458
C71   C     C_R   0.254198 0.440372 0.030505 -0.171433
C72   C     C_R   0.703578 0.498102 0.918997 -0.199005
C73   C     C_R   0.109492 0.594807 0.821482 -0.085547
C74   C     C_R   0.889175 0.461196 0.185868 -0.132236
C75   C     C_R   0.912524 0.202920 0.999359 -0.133963
C76   C     C_R   0.082010 0.806938 0.051353 -0.100320
C77   C     C_R   0.994877 0.195945 0.053361 0.050810
C78   C     C_R   0.640016 0.430949 0.941070 -0.103801
C79   C     C_R   0.993249 0.821194 0.039879 0.042347
C80   C     C_2   0.990171 0.381361 0.338922 0.427157
C81   C     C_2   0.947517 0.682257 0.662680 0.489472
C82   C     C_R   0.895627 0.926585 0.045023 -0.216898
H1    H     H_    0.160626 0.315929 0.130885 0.086678
H2    H     H_    0.506127 0.238193 0.785506 0.115109
H3    H     H_    0.441236 0.393245 0.156022 0.108460
H4    H     H_    0.397659 0.455961 0.732625 0.110765
H5    H     H_    0.486345 0.489907 0.319739 0.106642
H6    H     H_    0.394693 0.388765 0.579976 0.108785
H7    H     H_    0.619064 0.492317 0.089322 0.140068
H8    H     H_    0.304283 0.384547 0.818071 0.139460
H9    H     H_    0.913042 0.663946 0.361962 0.128934
H10   H     H_    0.125052 0.477417 0.662684 0.143416
H11   H     H_    0.103392 0.433684 0.509238 0.162260
H12   H     H_    0.827009 0.703023 0.950003 0.089805
H13   H     H_    0.920036 0.702003 0.512355 0.122792
H14   H     H_    0.859105 0.484824 0.694825 0.087425
H15   H     H_    0.140604 0.593138 0.318676 0.106353
H16   H     H_    0.541567 0.898460 0.876271 0.115981
H17   H     H_    0.230412 0.954948 0.373474 0.114990
H18   H     H_    0.735553 0.181084 0.560106 0.124753
H19   H     H_    0.434032 0.773989 0.408273 0.121164
H20   H     H_    0.683438 0.990047 0.701397 0.117569
H21   H     H_    0.472901 0.962576 0.263587 0.130698
H22   H     H_    0.633371 0.102193 0.396147 0.139449
H23   H     H_    0.706610 0.887817 0.902625 0.116041
H24   H     H_    0.558986 0.835685 0.558022 0.124124
H25   H     H_    0.533170 0.041954 0.992122 0.107951
H26   H     H_    0.409389 0.070797 0.404385 0.117665
H27   H     H_    0.690408 0.174479 0.135970 0.123303
H28   H     H_    0.438685 0.158596 0.307251 0.110774
H29   H     H_    0.855862 0.164402 0.164262 0.148752
H30   H     H_    0.289685 0.134454 0.181581 0.109240
H31   H     H_    0.764618 0.138112 0.831570 0.096544
H32   H     H_    0.309398 0.841214 0.152852 0.100594
H33   H     H_    0.771723 0.321205 0.682537 0.095319
H34   H     H_    0.080050 0.930936 0.249420 0.115752
H35   H     H_    0.293402 0.652731 0.294347 0.092021
H36   H     H_    0.264648 0.388666 0.059987 0.130616
H37   H     H_    0.680072 0.530816 0.873831 0.132649
H38   H     H_    0.189290 0.650122 0.844428 0.172887
H39   H     H_    0.807254 0.426738 0.169270 0.158899
H40   H     H_    0.830920 0.152300 0.972788 0.125908
H41   H     H_    0.162140 0.865910 0.090963 0.112378
H42   H     H_    0.822807 0.855307 0.014033 0.120312
H43   H     H_    0.153662 0.185871 0.167998 0.114672
H44   H     H_    0.006692 0.371306 0.280051 0.040579
H45   H     H_    0.561821 0.686213 0.395364 0.106597
H46   H     H_    0.879218 0.684361 0.622434 -0.001317
H47   H     H_    0.362628 0.590277 0.907806 0.312167
H48   H     H_    0.586882 0.285199 0.987008 0.309924
H49   H     H_    0.449686 0.249436 0.530588 0.106639
H50   H     H_    0.589621 0.785792 0.306083 0.133597
H51   H     H_    0.505077 0.174337 0.633506 0.118473
H52   H     H_    0.538829 0.689901 0.141511 0.121998
N1    N     N_R   0.055660 0.348550 0.045620 -0.041437
N2    N     N_R   0.185200 0.638170 0.176300 -0.041553
N3    N     N_R   0.201680 0.494570 0.045620 -0.066790
N4    N     N_R   0.798320 0.505430 0.954380 -0.070578
N5    N     N_R   0.068420 0.560530 0.871650 -0.051923
N6    N     N_R   0.931580 0.439470 0.128350 -0.035126
N7    N     N_R   0.948070 0.295860 0.997670 -0.042002
N8    N     N_R   0.051930 0.704140 0.002330 -0.043412
N9    N     N_R   0.944340 0.651450 0.954380 -0.038676
N10   N     N_R   0.960830 0.507850 0.823700 -0.049811
N11   N     N_R   0.039170 0.492150 0.176300 -0.045492
N12   N     N_R   0.811290 0.303410 0.871650 -0.039931
N13   N     N_R   0.188710 0.696590 0.128350 -0.047626
N14   N     N_R   0.205200 0.552990 0.997670 -0.072248
N15   N     N_R   0.794800 0.447010 0.002330 -0.070651
N16   N     N_R   0.814800 0.361830 0.823700 -0.043621
Ni1   Ni    Ni4+2 0.119340 0.493420 0.109960 0.200382
Ni2   Ni    Ni4+2 0.880660 0.506580 0.890040 0.216914
Ni3   Ni    Ni4+2 0.872590 0.372590 0.000000 0.253333
Ni4   Ni    Ni4+2 0.127410 0.627410 0.000000 0.245259
O1    O     O_2   0.967132 0.306176 0.356186 -0.591430
O2    O     O_2   0.988888 0.737072 0.745240 -0.575522
O3    O     O_3   0.311562 0.608828 0.925585 -0.806892
O4    O     O_3   0.663673 0.316402 0.011860 -0.798711

loop_
_geom_bond_atom_site_label_1
_geom_bond_atom_site_label_2
_ccdc_geom_bond_type
C9    C33   A    
C6    C82   A    
C27   C29   A    
C75   H40   S    
C1    C77   A    
C14   C18   A    
N3    N14   A    
C10   H26   S    
C76   C79   A    
C41   H32   S    
C19   C31   S    
C11   H50   S    
H47   O3    S    
C71   N3    A    
C15   C19   A    
C6    C66   S    
C81   O2    D    
C69   N16   A    
C19   C21   A    
C24   C26   A    
C38   C42   A    
C11   C14   A    
C57   C59   A    
C11   C25   A    
C70   H35   S    
C49   C54   A    
C12   C79   A    
C37   C42   A    
C49   C57   A    
C38   H11   S    
C60   C62   A    
C33   H16   S    
C63   H30   S    
C61   C63   A    
N13   Ni4   S    
N15   Ni3   S    
C43   H9    S    
C72   C78   A    
C60   H27   S    
C75   N7    A    
N12   N16   A    
C29   C78   S    
C40   H31   S    
C22   C25   A    
C64   O3    S    
C7    H23   S    
C36   C46   A    
C10   C35   A    
C18   C20   A    
C30   C67   S    
C71   H36   S    
C44   C47   A    
N6    Ni3   S    
C72   N4    A    
C52   H24   S    
C73   H38   S    
C64   N14   A    
C70   N2    A    
C7    C33   A    
C12   H12   S    
N14   Ni4   S    
C23   C73   A    
C5    C68   S    
C35   H17   S    
C61   H28   S    
C82   H42   S    
C52   C54   A    
N4    N15   A    
C40   C45   A    
C46   C48   A    
C16   H14   S    
C50   C53   A    
C62   C66   A    
C45   C69   A    
C64   C67   A    
C4    C6    A    
C44   C81   S    
C39   C43   A    
C14   H52   S    
N5    Ni4   S    
N4    Ni2   S    
C58   C59   A    
C23   C37   S    
C57   H18   S    
C74   N6    A    
C50   C56   S    
C51   C53   A    
C8    C35   A    
C17   N11   A    
C41   C56   A    
C24   H6    S    
N5    N10   A    
C47   C48   A    
C41   N13   A    
C45   C49   S    
C20   H3    S    
C3    C82   A    
C22   H5    S    
C62   H29   S    
C75   C77   A    
C39   H13   S    
C3    C79   S    
N11   Ni1   S    
C52   C58   A    
C34   C74   A    
N9    Ni2   S    
C20   C22   A    
C8    C68   A    
C16   C23   A    
C56   C70   A    
C13   C15   A    
C81   H46   S    
N16   Ni2   S    
C13   C26   A    
C21   C24   A    
C10   C61   A    
C18   C32   S    
C17   C34   A    
N2    Ni1   S    
C80   O1    D    
C39   C47   A    
C55   H19   S    
C21   H4    S    
C69   H33   S    
C65   C78   A    
C42   H10   S    
C16   N10   A    
C27   C32   A    
N8    N9    A    
C76   H41   S    
C38   C48   A    
C54   H20   S    
C28   C31   A    
C65   O4    S    
C3    C5    A    
N6    N11   A    
C15   H2    S    
N8    Ni4   S    
C1    H1    S    
C73   N5    A    
C63   C68   A    
C50   C55   A    
C12   N9    A    
C40   N12   A    
H48   O4    S    
C9    C60   A    
C37   C44   A    
C28   C30   A    
C51   H22   S    
C4    C77   S    
N10   Ni2   S    
C7    C66   A    
C30   C32   A    
N7    Ni3   S    
N12   Ni3   S    
C80   H44   S    
C53   H21   S    
N1    Ni1   S    
C2    C4    A    
C72   H37   S    
C34   C36   S    
C27   H7    S    
C67   C71   A    
C25   H45   S    
C13   H51   S    
N2    N13   A    
C8    H34   S    
C2    C5    A    
C2    H43   S    
N1    N7    A    
C74   H39   S    
C51   C59   A    
C29   C31   A    
C55   C58   A    
C65   N15   A    
C9    H25   S    
N3    Ni1   S    
C36   C43   A    
C28   H8    S    
C46   C80   S    
C1    N1    A    
C17   H15   S    
C26   H49   S    
C76   N8    A    
