data_mof_unit_31998.cif
_audit_creation_date              2012-10-26T18:50:01-0400
_audit_creation_method            fapswitch 2.2
_symmetry_space_group_name_H-M    P1
_symmetry_Int_Tables_number       1
_space_group_crystal_system       triclinic
_cell_length_a                    10.787528
_cell_length_b                    13.005427
_cell_length_c                    11.680201
_cell_angle_alpha                 99.542121
_cell_angle_beta                  93.543514
_cell_angle_gamma                 90.381169
_cell_volume                      1612.69001321

loop_
_atom_site_label
_atom_site_type_symbol
_atom_type_description
_atom_site_fract_x
_atom_site_fract_y
_atom_site_fract_z
_atom_type_partial_charge
C1    C     C_R   0.494735 0.299514 0.479054 0.523231
C2    C     C_R   0.552022 0.864926 0.451156 0.088346
C3    C     C_R   0.459661 0.026871 0.542801 0.061562
C4    C     C_R   0.532753 0.972458 0.455780 0.033941
C5    C     C_R   0.384913 0.400537 0.022489 -0.167994
C6    C     C_R   0.615020 0.599538 0.977533 -0.172161
C7    C     C_R   0.395682 0.410216 0.144541 0.050406
C8    C     C_R   0.604262 0.589834 0.855470 0.051581
C9    C     C_R   0.549396 0.543191 0.156654 0.051691
C10   C     C_R   0.450614 0.456818 0.843369 0.060028
C11   C     C_R   0.541690 0.536223 0.033957 0.004765
C12   C     C_R   0.502729 0.700508 0.520993 0.558423
C13   C     C_R   0.458280 0.463831 0.966069 0.009177
C14   C     C_R   0.262845 0.499869 0.500421 0.523680
C15   C     C_R   0.737099 0.500234 0.499508 0.532567
C16   C     C_R   0.123064 0.308792 0.437800 -0.109225
C17   C     C_R   0.876160 0.692028 0.555484 -0.097860
C18   C     C_R   0.055717 0.215251 0.409630 -0.125674
C19   C     C_R   0.943518 0.785579 0.583507 -0.123882
C20   C     C_R   0.927004 0.215145 0.411413 -0.119553
C21   C     C_R   0.072481 0.785357 0.585188 -0.122423
C22   C     C_R   0.865192 0.308674 0.440666 -0.091418
C23   C     C_R   0.497746 0.813190 0.532362 0.039967
C24   C     C_R   0.134518 0.691582 0.558650 -0.092832
C25   C     C_R   0.931758 0.404708 0.469213 0.010233
C26   C     C_R   0.067987 0.595565 0.529831 0.010360
C27   C     C_R   0.062280 0.404660 0.469042 0.006931
C28   C     C_R   0.937334 0.595778 0.528317 0.005078
C29   C     C_R   0.870745 0.500275 0.498599 -0.014170
C30   C     C_R   0.129074 0.499943 0.500778 -0.013097
C31   C     C_R   0.495499 0.186620 0.467373 0.018543
C32   C     C_R   0.583560 0.026288 0.374728 -0.156340
C33   C     C_R   0.412256 0.973748 0.626353 -0.142652
C34   C     C_R   0.565847 0.132186 0.381283 -0.169645
C35   C     C_R   0.431590 0.868117 0.621228 -0.190241
C36   C     C_R   0.435522 0.133396 0.545218 0.099846
Cu1   Cu    Cu3+1 0.509250 0.507730 0.615930 0.932468
Cu2   Cu    Cu3+1 0.490750 0.492270 0.384070 0.941529
H1    H     H_    0.124706 0.858104 0.606730 0.110707
H2    H     H_    0.234726 0.695234 0.560245 0.121967
H3    H     H_    0.390811 0.828396 0.684713 0.126769
H4    H     H_    0.610689 0.172477 0.320507 0.128173
H5    H     H_    0.639517 0.988013 0.307042 0.112461
H6    H     H_    0.359328 0.013045 0.695960 0.145500
H7    H     H_    0.386486 0.401553 0.790370 0.129754
H8    H     H_    0.613583 0.598401 0.209686 0.137748
H9    H     H_    0.661129 0.639008 0.812909 0.129260
H10   H     H_    0.338787 0.361063 0.187105 0.129305
H11   H     H_    0.588434 0.811827 0.283009 0.226145
H12   H     H_    0.874770 0.142402 0.389879 0.110266
H13   H     H_    0.716856 0.840231 0.376319 0.218912
H14   H     H_    0.326721 0.258770 0.608740 0.236988
H15   H     H_    0.263459 0.143339 0.605174 0.210109
H16   H     H_    0.319769 0.343970 0.972761 0.098561
H17   H     H_    0.680122 0.656140 0.027266 0.090194
H18   H     H_    0.222865 0.305049 0.434712 0.112862
H19   H     H_    0.776028 0.696120 0.554725 0.132516
H20   H     H_    0.103685 0.142616 0.386543 0.111605
H21   H     H_    0.895374 0.858495 0.603688 0.114674
H22   H     H_    0.765114 0.304856 0.441014 0.124260
N1    N     N_R   0.523180 0.519350 0.790130 -0.229660
N2    N     N_R   0.476820 0.480650 0.209870 -0.230203
N3    N     N_3   0.627343 0.807333 0.366220 -0.637278
N4    N     N_3   0.348075 0.184167 0.624218 -0.640406
O1    O     O_R   0.506570 0.354460 0.582000 -0.491283
O2    O     O_R   0.493430 0.645540 0.418000 -0.469867
O3    O     O_R   0.490940 0.341410 0.386200 -0.520018
O4    O     O_R   0.509060 0.658590 0.613800 -0.526244
O5    O     O_R   0.327470 0.506520 0.597900 -0.512275
O6    O     O_R   0.672530 0.493480 0.402100 -0.500818
O7    O     O_R   0.311840 0.493460 0.402100 -0.504042
O8    O     O_R   0.688160 0.506540 0.597900 -0.501829

loop_
_geom_bond_atom_site_label_1
_geom_bond_atom_site_label_2
_ccdc_geom_bond_type
Cu2   O3    S    
C2    C4    A    
Cu2   O6    S    
C7    N2    A    
C15   C29   S    
Cu1   Cu2   S    
H11   N3    S    
Cu1   O5    S    
C25   C27   A    
C9    C11   A    
C14   O7    A    
C6    H17   S    
C5    C13   A    
C21   H1    S    
C8    N1    A    
C7    H10   S    
C17   C28   A    
C10   H7    S    
C16   H18   S    
C14   O5    A    
C8    H9    S    
C9    H8    S    
Cu2   N2    S    
C36   N4    S    
C26   C28   A    
C2    N3    S    
C27   C30   A    
C22   H22   S    
C15   O8    A    
C12   O4    A    
C12   C23   S    
C4    C32   A    
C3    C36   A    
C14   C30   S    
C6    C8    A    
C16   C27   A    
C28   C29   A    
C33   C35   A    
C32   H5    S    
C20   C22   A    
C10   C13   A    
C26   C30   A    
C23   C35   A    
C6    C11   A    
C25   C29   A    
C35   H3    S    
H15   N4    S    
C21   C24   A    
C31   C34   A    
C11   C13   A    
C3    C33   A    
C17   C19   A    
C9    N2    A    
C10   N1    A    
Cu1   O4    S    
Cu2   O2    S    
C5    H16   S    
C1    C31   S    
H13   N3    S    
Cu1   N1    S    
C18   C20   A    
C16   C18   A    
H14   N4    S    
Cu1   O8    S    
C17   H19   S    
C2    C23   A    
C5    C7    A    
C15   O6    A    
C31   C36   A    
C24   H2    S    
C20   H12   S    
C19   H21   S    
Cu2   O7    S    
C33   H6    S    
C12   O2    A    
C1    O1    A    
C18   H20   S    
C1    O3    A    
C3    C4    A    
Cu1   O1    S    
C24   C26   A    
C34   H4    S    
C19   C21   A    
C22   C25   A    
C32   C34   A    
