data_mof_unit_20260.cif
_audit_creation_date              2012-12-10T19:00:45-0500
_audit_creation_method            fapswitch 2.2
_symmetry_space_group_name_H-M    P1
_symmetry_Int_Tables_number       1
_space_group_crystal_system       triclinic
_cell_length_a                    15.026358
_cell_length_b                    10.873396
_cell_length_c                    9.655259
_cell_angle_alpha                 89.072965
_cell_angle_beta                  86.940534
_cell_angle_gamma                 89.869191
_cell_volume                      1575.09272757

loop_
_atom_site_label
_atom_site_type_symbol
_atom_type_description
_atom_site_fract_x
_atom_site_fract_y
_atom_site_fract_z
_atom_type_partial_charge
C1    C     C_R   0.498119 0.262830 0.501074 0.817791
C2    C     C_R   0.907257 0.619700 0.525445 -0.048814
C3    C     C_R   0.950506 0.292516 0.618346 -0.176865
C4    C     C_R   0.043212 0.292669 0.622529 -0.210792
C5    C     C_R   0.091740 0.398411 0.582991 0.125155
C6    C     C_R   0.046225 0.508459 0.552357 0.092831
C7    C     C_R   0.094436 0.615955 0.512668 -0.000397
C8    C     C_R   0.048832 0.730041 0.511485 -0.103242
C9    C     C_R   0.955257 0.731643 0.525623 -0.061108
C10   C     C_R   0.184878 0.396058 0.572105 -0.245235
C11   C     C_R   0.231788 0.497374 0.515024 -0.097794
C12   C     C_R   0.329041 0.494657 0.503776 0.791789
C13   C     C_R   0.186254 0.604241 0.477062 -0.103623
C14   C     C_R   0.470033 0.063033 0.623200 0.005973
C15   C     C_R   0.488493 0.130025 0.501564 -0.121750
C16   C     C_R   0.486875 0.067762 0.375931 -0.351785
C17   C     C_R   0.470004 0.940325 0.374527 0.474226
C18   C     C_R   0.478783 0.871370 0.499114 -0.183640
C19   C     C_R   0.467733 0.936736 0.623129 -0.092102
C20   C     C_3   0.502726 0.926728 0.766690 0.885051
C21   C     C_3   0.507495 0.068544 0.761823 -0.523054
C22   C     C_R   0.559794 0.569412 0.065476 0.231333
C23   C     C_R   0.493741 0.737555 0.499601 0.844852
C24   C     C_R   0.438631 0.435634 0.081155 -0.098817
C25   C     C_R   0.438743 0.434697 0.933293 0.013123
C26   C     C_R   0.558955 0.570315 0.918605 0.289189
C27   C     C_3   0.656804 0.557328 0.898091 -0.496430
C28   C     C_3   0.659135 0.554889 0.053305 -0.338661
C29   C     C_R   0.671667 0.501577 0.498360 0.921183
C30   C     C_R   0.816994 0.614757 0.492144 0.342654
C31   C     C_R   0.769844 0.502274 0.503007 -0.273875
C32   C     C_R   0.813329 0.394895 0.547939 0.327819
C33   C     C_R   0.904887 0.398105 0.573898 0.017745
C34   C     C_R   0.952505 0.509097 0.552557 -0.068851
Cu1   Cu    Cu3+1 0.500000 0.499980 0.640670 0.978734
Cu2   Cu    Cu3+1 0.500000 0.500020 0.359330 0.979706
H1    H     H_    0.460740 0.113001 0.838791 0.190269
H2    H     H_    0.575586 0.108587 0.754773 0.185651
H3    H     H_    0.390257 0.380979 0.142095 0.144526
H4    H     H_    0.677490 0.468929 0.849429 0.230198
H5    H     H_    0.688753 0.639629 0.847527 0.202895
H6    H     H_    0.692994 0.636727 0.087387 0.133604
H7    H     H_    0.915181 0.208700 0.647600 0.182707
H8    H     H_    0.077085 0.208751 0.651514 0.163169
H9    H     H_    0.220608 0.313102 0.599097 0.161341
H10   H     H_    0.494686 0.118537 0.278782 0.170187
N1    N     N_R   0.500570 0.500930 0.147930 -0.189339
N2    N     N_R   0.500570 0.500890 0.852020 -0.222144
O1    O     O_R   0.500000 0.319640 0.618810 -0.564127
O2    O     O_R   0.500010 0.319680 0.381230 -0.604391
O3    O     O_R   0.370250 0.499950 0.618800 -0.588056
O4    O     O_R   0.370260 0.499990 0.381220 -0.577023
O5    O     O_R   0.499990 0.680320 0.618770 -0.577176
O6    O     O_R   0.500000 0.680360 0.381190 -0.531111
O7    O     O_R   0.629740 0.500010 0.618780 -0.571669
O8    O     O_R   0.629750 0.500050 0.381200 -0.594782
O9    O     O_3   0.778054 0.717742 0.434896 -0.604749
C35   C     C_3   0.783063 0.707183 0.288726 0.048825
H11   H     H_    0.728652 0.764737 0.248819 0.165348
H12   H     H_    0.772914 0.610598 0.257534 0.148496
C36   C     C_3   0.872032 0.752158 0.219417 -0.382073
H13   H     H_    0.880803 0.851838 0.237072 0.223257
H14   H     H_    0.928670 0.701788 0.262338 0.230452
C37   C     C_3   0.876478 0.728338 0.063683 -0.918918
H15   H     H_    0.878992 0.627828 0.044804 0.264057
H16   H     H_    0.937417 0.771322 0.014205 0.267439
H17   H     H_    0.817408 0.766979 0.014650 0.252117
O10   O     O_3   0.442095 0.882883 0.256831 -0.587617
C38   C     C_3   0.384585 0.957459 0.177139 0.113244
H18   H     H_    0.352648 0.894019 0.107021 0.223765
H19   H     H_    0.423934 0.023345 0.109498 0.133359
C39   C     C_3   0.308751 0.025460 0.261384 -0.401856
H20   H     H_    0.289038 0.973051 0.357491 0.263443
H21   H     H_    0.331779 0.117311 0.292667 0.202772
C40   C     C_3   0.226746 0.047068 0.177398 -0.861140
H22   H     H_    0.244183 0.106866 0.085689 0.246528
H23   H     H_    0.174342 0.093999 0.242671 0.268642
H24   H     H_    0.199511 0.958403 0.143107 0.269312
O11   O     O_3   0.443532 0.885279 0.878174 -0.656133
C41   C     C_3   0.368267 0.817426 0.840108 0.021010
H25   H     H_    0.351510 0.751171 0.926317 0.181020
H26   H     H_    0.380193 0.760326 0.747888 0.168396
C42   C     C_3   0.288187 0.902389 0.819851 -0.399439
H27   H     H_    0.285180 0.973986 0.900243 0.234507
H28   H     H_    0.295372 0.949660 0.717112 0.229335
C43   C     C_3   0.200965 0.830322 0.828248 -0.865873
H29   H     H_    0.202630 0.757885 0.748315 0.261871
H30   H     H_    0.144520 0.893647 0.810302 0.263284
H31   H     H_    0.189846 0.786730 0.932574 0.253197
O12   O     O_3   0.586491 0.866473 0.766394 -0.602590
C44   C     C_3   0.637661 0.903893 0.877734 0.043897
H32   H     H_    0.647608 0.824110 0.948004 0.145251
H33   H     H_    0.605578 0.975836 0.944751 0.153832
C45   C     C_3   0.728380 0.948376 0.817195 -0.331673
H34   H     H_    0.769821 0.867218 0.787667 0.230171
H35   H     H_    0.719164 0.004829 0.722183 0.253960
C46   C     C_3   0.777290 0.026270 0.918411 -0.909906
H36   H     H_    0.738239 0.110479 0.944254 0.271271
H37   H     H_    0.843098 0.054256 0.870415 0.270661
H38   H     H_    0.788157 0.972768 0.014485 0.257456
C47   C     C_1   0.375246 0.357232 0.870859 0.287979
N3    N     N_1   0.323990 0.294021 0.822092 -0.334679
C48   C     C_1   0.691621 0.435636 0.104329 0.346377
N4    N     N_1   0.717116 0.341148 0.141858 -0.342109
O13   O     O_3   0.766003 0.285914 0.559900 -0.616396
C49   C     C_3   0.786149 0.214644 0.440792 0.034076
H39   H     H_    0.841557 0.150967 0.461037 0.184053
H40   H     H_    0.807077 0.270621 0.346796 0.152206
C50   C     C_3   0.704283 0.140521 0.408240 -0.284975
H41   H     H_    0.676472 0.092972 0.503531 0.230165
H42   H     H_    0.653968 0.204842 0.369122 0.232518
C51   C     C_3   0.726236 0.045713 0.297634 -0.906723
H43   H     H_    0.759809 0.091209 0.205711 0.265175
H44   H     H_    0.664339 0.000865 0.266257 0.258688
H45   H     H_    0.770648 0.974493 0.339238 0.285004
C52   C     C_1   0.229999 0.687557 0.377989 0.259461
N5    N     N_1   0.265126 0.750741 0.295127 -0.276713
C53   C     C_1   0.096766 0.845997 0.507825 0.238819
N6    N     N_1   0.134195 0.938951 0.505743 -0.319704
C54   C     C_1   0.909778 0.848090 0.544936 0.323713
N7    N     N_1   0.874227 0.941413 0.561360 -0.342188

loop_
_geom_bond_atom_site_label_1
_geom_bond_atom_site_label_2
_ccdc_geom_bond_type
C47   N3    T    
Cu1   O5    S    
C19   C20   S    
C12   O3    A    
C51   H44   S    
C46   H36   S    
O9    C35   S    
C8    C53   S    
C7    C8    A    
C3    H7    S    
C26   C27   S    
C14   C21   S    
C50   H42   S    
C5    C6    A    
C41   H25   S    
C43   H30   S    
C49   H39   S    
C3    C33   A    
C35   H12   S    
C15   C16   A    
C30   O9    S    
C24   H3    S    
C52   N5    T    
Cu2   N1    S    
C38   H19   S    
C18   C19   A    
C36   H14   S    
C53   N6    T    
C46   H37   S    
O10   C38   S    
C21   H2    S    
C31   C32   A    
C16   C17   A    
Cu1   O1    S    
C1    C15   S    
C39   C40   S    
C1    O2    A    
C36   H13   S    
Cu2   O4    S    
C26   N2    A    
C39   H20   S    
C2    C34   A    
C35   C36   S    
C22   N1    A    
C22   C28   S    
C38   H18   S    
C41   C42   S    
Cu1   N2    S    
C51   H43   S    
C12   O4    A    
C23   O5    A    
Cu1   O7    S    
C18   C23   S    
C37   H17   S    
C24   C25   A    
C39   H21   S    
C50   C51   S    
C16   H10   S    
C44   H32   S    
C43   H29   S    
C8    C9    A    
C4    H8    S    
C45   C46   S    
C35   H11   S    
C20   O12   S    
C6    C34   A    
Cu1   Cu2   S    
C37   H16   S    
C38   C39   S    
C40   H22   S    
Cu2   O8    S    
C44   H33   S    
C27   H5    S    
C42   H27   S    
C27   H4    S    
C10   H9    S    
C17   C18   A    
C45   H35   S    
C40   H23   S    
C25   N2    A    
C41   H26   S    
C42   H28   S    
C32   O13   S    
Cu1   O3    S    
C3    C4    A    
C48   N4    T    
C46   H38   S    
Cu2   O2    S    
C54   N7    T    
C23   O6    A    
C17   O10   S    
C20   O11   S    
C24   N1    A    
C14   C19   A    
C4    C5    A    
C43   H31   S    
C11   C12   S    
C6    C7    A    
C29   O8    A    
C29   O7    A    
O13   C49   S    
C2    C30   A    
C32   C33   A    
C5    C10   A    
C29   C31   S    
C50   H41   S    
C37   H15   S    
C36   C37   S    
C11   C13   A    
C28   C48   S    
C25   C47   S    
O12   C44   S    
C30   C31   A    
C49   H40   S    
C28   H6    S    
C33   C34   A    
C45   H34   S    
C40   H24   S    
C13   C52   S    
Cu2   O6    S    
C10   C11   A    
O11   C41   S    
C7    C13   A    
C42   C43   S    
C21   H1    S    
C20   C21   S    
C22   C26   A    
C27   C28   S    
C9    C54   S    
C14   C15   A    
C2    C9    A    
C1    O1    A    
C51   H45   S    
C44   C45   S    
C49   C50   S    
