data_mof_unit_11906.cif
_audit_creation_date              2012-12-10T18:09:35-0500
_audit_creation_method            fapswitch 2.2
_symmetry_space_group_name_H-M    P1
_symmetry_Int_Tables_number       1
_space_group_crystal_system       triclinic
_cell_length_a                    14.614876
_cell_length_b                    16.862031
_cell_length_c                    9.891309
_cell_angle_alpha                 90.413432
_cell_angle_beta                  89.992827
_cell_angle_gamma                 90.015985
_cell_volume                      2437.5159211

loop_
_atom_site_label
_atom_site_type_symbol
_atom_type_description
_atom_site_fract_x
_atom_site_fract_y
_atom_site_fract_z
_atom_type_partial_charge
C1    C     C_R   0.117785 0.378595 0.497911 0.914115
C2    C     C_R   0.117751 0.621444 0.502090 0.928412
C3    C     C_R   0.617785 0.878595 0.497911 0.914115
C4    C     C_R   0.617751 0.121444 0.502090 0.928412
C5    C     C_3   0.096364 0.514233 0.076021 0.400850
C6    C     C_3   0.096347 0.485729 0.923946 0.400387
C7    C     C_3   0.596364 0.014233 0.076021 0.400850
C8    C     C_3   0.596347 0.985729 0.923946 0.400387
C9    C     C_R   0.880333 0.381013 0.500247 0.820028
C10   C     C_R   0.880178 0.618863 0.499731 0.726156
C11   C     C_R   0.380333 0.881013 0.500247 0.820028
C12   C     C_R   0.380178 0.118863 0.499731 0.726156
C13   C     C_3   0.828403 0.255809 0.630483 0.621044
C14   C     C_3   0.819584 0.256802 0.373958 0.518088
C15   C     C_3   0.818547 0.742314 0.626408 0.552682
C16   C     C_3   0.828355 0.743984 0.370134 0.658121
C17   C     C_3   0.328403 0.755809 0.630483 0.621044
C18   C     C_3   0.319584 0.756802 0.373958 0.518088
C19   C     C_3   0.318547 0.242314 0.626408 0.552682
C20   C     C_3   0.328356 0.243984 0.370134 0.658121
C21   C     C_3   0.262492 0.681043 0.624291 0.655264
C22   C     C_3   0.237994 0.696679 0.370482 0.730665
C23   C     C_3   0.237519 0.302918 0.629618 0.733070
C24   C     C_3   0.262540 0.318804 0.376034 0.656773
C25   C     C_3   0.762492 0.181043 0.624291 0.655264
C26   C     C_3   0.737994 0.196680 0.370482 0.730665
C27   C     C_3   0.737519 0.802918 0.629618 0.733070
C28   C     C_3   0.762540 0.818803 0.376034 0.656773
C29   C     C_3   0.709486 0.346387 0.517103 0.630092
C30   C     C_3   0.707674 0.653566 0.481550 0.636808
C31   C     C_3   0.209486 0.846387 0.517103 0.630092
C32   C     C_3   0.207674 0.153566 0.481550 0.636808
C33   C     C_3   0.810644 0.312431 0.503737 -0.246892
C34   C     C_3   0.809867 0.687004 0.496153 -0.371320
C35   C     C_3   0.310644 0.812431 0.503737 -0.246892
C36   C     C_3   0.309868 0.187004 0.496153 -0.371320
C37   C     C_3   0.187480 0.691918 0.509505 -0.289786
C38   C     C_3   0.187297 0.307991 0.490512 -0.356542
C39   C     C_3   0.687481 0.191918 0.509505 -0.289786
C40   C     C_3   0.687297 0.807991 0.490512 -0.356542
C41   C     C_3   0.140464 0.774883 0.536451 -0.770100
C42   C     C_3   0.139870 0.225275 0.463181 -0.580288
C43   C     C_3   0.640464 0.274883 0.536451 -0.770100
C44   C     C_3   0.639870 0.725275 0.463181 -0.580288
C45   C     C_3   0.948139 0.570289 0.086326 0.651280
C46   C     C_3   0.956334 0.573555 0.919582 0.560168
C47   C     C_3   0.956271 0.426445 0.080478 0.555772
C48   C     C_3   0.948072 0.429709 0.913715 0.648243
C49   C     C_3   0.448139 0.070289 0.086326 0.651280
C50   C     C_3   0.456334 0.073555 0.919582 0.560168
C51   C     C_3   0.456271 0.926445 0.080478 0.555772
C52   C     C_3   0.448072 0.929709 0.913715 0.648243
Cu1   Cu    Cu3+1 0.000100 0.500000 0.642410 1.112524
Cu2   Cu    Cu3+1 0.000100 0.500000 0.357590 1.109682
Cu3   Cu    Cu3+1 0.500100 0.000000 0.642410 1.112524
Cu4   Cu    Cu3+1 0.500100 1.000000 0.357590 1.109682
H1    H     H_    0.110125 0.778813 0.638466 0.212173
H2    H     H_    0.079423 0.782263 0.472142 0.249800
H3    H     H_    0.078910 0.217805 0.527749 0.256937
H4    H     H_    0.109087 0.221794 0.361388 0.213759
H5    H     H_    0.610125 0.278813 0.638466 0.212173
H6    H     H_    0.579423 0.282263 0.472142 0.249800
H7    H     H_    0.578910 0.717805 0.527749 0.256937
H8    H     H_    0.609087 0.721794 0.361388 0.213759
N1    N     N_3   0.001260 0.500000 0.143650 -0.321323
N2    N     N_3   0.001260 0.500000 0.856350 -0.321471
N3    N     N_3   0.501260 0.000000 0.143650 -0.321323
N4    N     N_3   0.501260 0.000000 0.856350 -0.321471
O1    O     O_R   0.091250 0.408820 0.620260 -0.476864
O2    O     O_R   0.091250 0.408820 0.379740 -0.531957
O3    O     O_R   0.091250 0.591180 0.620260 -0.530214
O4    O     O_R   0.091250 0.591180 0.379740 -0.475205
O5    O     O_R   0.591250 0.908820 0.620260 -0.476864
O6    O     O_R   0.591250 0.908820 0.379740 -0.531957
O7    O     O_R   0.591250 0.091180 0.620260 -0.530214
O8    O     O_R   0.591250 0.091180 0.379740 -0.475205
O9    O     O_R   0.908940 0.408800 0.620260 -0.490970
O10   O     O_R   0.908940 0.408800 0.379740 -0.570963
O11   O     O_R   0.908940 0.591200 0.620260 -0.568471
O12   O     O_R   0.908940 0.591200 0.379740 -0.497708
O13   O     O_R   0.408940 0.908800 0.620260 -0.490970
O14   O     O_R   0.408940 0.908800 0.379740 -0.570963
O15   O     O_R   0.408940 0.091200 0.620260 -0.568471
O16   O     O_R   0.408940 0.091200 0.379740 -0.497708
O17   O     O_3   0.816262 0.297417 0.753521 -0.613151
H9    H     H_    0.750852 0.303902 0.776169 0.377366
O18   O     O_3   0.822375 0.296645 0.250472 -0.650323
H10   H     H_    0.767637 0.329521 0.238628 0.396321
O19   O     O_3   0.819922 0.702142 0.749538 -0.653470
H11   H     H_    0.765961 0.667928 0.757994 0.378274
O20   O     O_3   0.816893 0.702601 0.246744 -0.623871
H12   H     H_    0.751671 0.696367 0.222932 0.380479
O21   O     O_3   0.316262 0.797417 0.753521 -0.613151
H13   H     H_    0.250852 0.803902 0.776169 0.377366
O22   O     O_3   0.322375 0.796645 0.250472 -0.650323
H14   H     H_    0.267637 0.829521 0.238628 0.396321
O23   O     O_3   0.319922 0.202143 0.749538 -0.653470
H15   H     H_    0.265960 0.167928 0.757994 0.378274
O24   O     O_3   0.316893 0.202601 0.246744 -0.623872
H16   H     H_    0.251671 0.196367 0.222932 0.380479
O25   O     O_3   0.919406 0.227922 0.630673 -0.683318
H17   H     H_    0.960801 0.272436 0.653278 0.364443
O26   O     O_3   0.902479 0.214185 0.380839 -0.641257
H18   H     H_    0.952962 0.252212 0.364111 0.343058
O27   O     O_3   0.901913 0.784438 0.621081 -0.652197
H19   H     H_    0.952074 0.746186 0.638321 0.349615
O28   O     O_3   0.919403 0.771850 0.371274 -0.694154
H20   H     H_    0.960845 0.727670 0.347032 0.371082
O29   O     O_3   0.419406 0.727922 0.630673 -0.683318
H21   H     H_    0.460801 0.772436 0.653278 0.364442
O30   O     O_3   0.402479 0.714185 0.380839 -0.641257
H22   H     H_    0.452962 0.752212 0.364111 0.343058
O31   O     O_3   0.401913 0.284438 0.621081 -0.652197
H23   H     H_    0.452074 0.246186 0.638321 0.349615
O32   O     O_3   0.419403 0.271850 0.371274 -0.694154
H24   H     H_    0.460845 0.227670 0.347032 0.371082
O33   O     O_3   0.313057 0.611933 0.593152 -0.570076
H25   H     H_    0.350490 0.598022 0.673374 0.411524
O34   O     O_3   0.272849 0.621256 0.337298 -0.567701
H26   H     H_    0.302578 0.625248 0.247242 0.406665
O35   O     O_3   0.272899 0.378164 0.662940 -0.566447
H27   H     H_    0.302320 0.374060 0.753184 0.403805
O36   O     O_3   0.313150 0.387882 0.407372 -0.571545
H28   H     H_    0.350735 0.401784 0.327274 0.406651
O37   O     O_3   0.813056 0.111933 0.593152 -0.570076
H29   H     H_    0.850490 0.098022 0.673374 0.411524
O38   O     O_3   0.772849 0.121256 0.337298 -0.567701
H30   H     H_    0.802578 0.125248 0.247242 0.406665
O39   O     O_3   0.772899 0.878164 0.662940 -0.566447
H31   H     H_    0.802320 0.874060 0.753184 0.403805
O40   O     O_3   0.813150 0.887882 0.407372 -0.571545
H32   H     H_    0.850735 0.901784 0.327274 0.406651
O41   O     O_3   0.224728 0.670986 0.754449 -0.650192
H33   H     H_    0.162292 0.692527 0.761523 0.358013
O42   O     O_3   0.173590 0.717116 0.270744 -0.654754
H34   H     H_    0.146252 0.769819 0.284589 0.341400
O43   O     O_3   0.172808 0.282820 0.729174 -0.653807
H35   H     H_    0.145441 0.230104 0.715708 0.349805
O44   O     O_3   0.225056 0.328938 0.245742 -0.651597
H36   H     H_    0.162610 0.307438 0.238360 0.356872
O45   O     O_3   0.724728 0.170986 0.754449 -0.650192
H37   H     H_    0.662292 0.192527 0.761523 0.358013
O46   O     O_3   0.673590 0.217116 0.270744 -0.654754
H38   H     H_    0.646252 0.269819 0.284589 0.341400
O47   O     O_3   0.672808 0.782820 0.729174 -0.653807
H39   H     H_    0.645440 0.730104 0.715708 0.349805
O48   O     O_3   0.725056 0.828938 0.245742 -0.651597
H40   H     H_    0.662610 0.807438 0.238360 0.356872
O49   O     O_3   0.704839 0.399051 0.628413 -0.699211
H41   H     H_    0.640378 0.416700 0.638670 0.357667
O50   O     O_3   0.686743 0.390378 0.401501 -0.767878
H42   H     H_    0.623178 0.410228 0.412191 0.368754
O51   O     O_3   0.679746 0.610289 0.595627 -0.726019
H43   H     H_    0.721751 0.564563 0.606332 0.337248
O52   O     O_3   0.698401 0.602978 0.367957 -0.661819
H44   H     H_    0.734285 0.554009 0.383700 0.358817
O53   O     O_3   0.204839 0.899051 0.628413 -0.699211
H45   H     H_    0.140378 0.916700 0.638670 0.357667
O54   O     O_3   0.186743 0.890378 0.401501 -0.767878
H46   H     H_    0.123177 0.910228 0.412191 0.368754
O55   O     O_3   0.179746 0.110289 0.595627 -0.726019
H47   H     H_    0.221751 0.064563 0.606332 0.337248
O56   O     O_3   0.198401 0.102978 0.367957 -0.661819
H48   H     H_    0.234285 0.054009 0.383700 0.358817
O57   O     O_3   0.981827 0.640709 0.144144 -0.597249
H49   H     H_    0.948911 0.686035 0.103463 0.385123
O58   O     O_3   0.007100 0.639728 0.876249 -0.656355
H50   H     H_    0.969001 0.688206 0.884037 0.384353
O59   O     O_3   0.007045 0.360309 0.123811 -0.654481
H51   H     H_    0.969180 0.311736 0.115181 0.386607
O60   O     O_3   0.981707 0.359290 0.855888 -0.598474
H52   H     H_    0.948571 0.313976 0.896285 0.386351
O61   O     O_3   0.481827 0.140709 0.144144 -0.597249
H53   H     H_    0.448911 0.186035 0.103463 0.385123
O62   O     O_3   0.507100 0.139728 0.876249 -0.656355
H54   H     H_    0.469001 0.188206 0.884037 0.384353
O63   O     O_3   0.507045 0.860309 0.123811 -0.654481
H55   H     H_    0.469180 0.811736 0.115181 0.386607
O64   O     O_3   0.481707 0.859290 0.855888 -0.598474
H56   H     H_    0.448571 0.813976 0.896285 0.386351
O65   O     O_3   0.856267 0.570317 0.131999 -0.661258
H57   H     H_    0.811519 0.547979 0.068204 0.342193
O66   O     O_3   0.866478 0.585353 0.874377 -0.730206
H58   H     H_    0.847774 0.549836 0.801372 0.388542
O67   O     O_3   0.866398 0.414603 0.125785 -0.728616
H59   H     H_    0.847584 0.450109 0.198766 0.395285
O68   O     O_3   0.856193 0.429671 0.868088 -0.648164
H60   H     H_    0.811463 0.451970 0.931947 0.340610
O69   O     O_3   0.356267 0.070317 0.131999 -0.661258
H61   H     H_    0.311519 0.047979 0.068204 0.342193
O70   O     O_3   0.366478 0.085353 0.874377 -0.730206
H62   H     H_    0.347774 0.049836 0.801372 0.388542
O71   O     O_3   0.366398 0.914603 0.125785 -0.728616
H63   H     H_    0.347584 0.950109 0.198766 0.395285
O72   O     O_3   0.356193 0.929671 0.868088 -0.648164
H64   H     H_    0.311463 0.951970 0.931947 0.340610
Br1   Br    Br    0.151087 0.620436 0.058651 -0.257481
Br2   Br    Br    0.198438 0.514744 0.812892 -0.220863
Br3   Br    Br    0.198407 0.485090 0.187001 -0.219391
Br4   Br    Br    0.150973 0.379508 0.941321 -0.254413
Br5   Br    Br    0.651087 0.120436 0.058651 -0.257481
Br6   Br    Br    0.698438 0.014744 0.812892 -0.220863
Br7   Br    Br    0.698407 0.985090 0.187001 -0.219391
Br8   Br    Br    0.650972 0.879508 0.941321 -0.254413

loop_
_geom_bond_atom_site_label_1
_geom_bond_atom_site_label_2
_ccdc_geom_bond_type
C16   C28   S    
O60   H52   S    
Cu1   O3    S    
O25   H17   S    
Cu4   O8    S    
O22   H14   S    
O59   H51   S    
C19   C23   S    
O30   H22   S    
Cu3   Cu4   S    
Cu1   O1    S    
C14   C33   S    
C49   O61   S    
O23   H15   S    
C19   O23   S    
C45   O65   S    
O36   H28   S    
C23   O35   S    
Cu2   N1    S    
O61   H53   S    
C11   O13   A    
C45   O57   S    
O57   H49   S    
C6    N2    S    
C32   C36   S    
Cu1   O11   S    
C14   O18   S    
C38   C42   S    
C19   C36   S    
O17   H9    S    
C5    C6    S    
C26   C39   S    
C49   O69   S    
C28   C40   S    
C21   O33   S    
O32   H24   S    
C32   O56   S    
C29   C33   S    
Cu2   O10   S    
C12   O16   A    
C17   O21   S    
C3    O6    A    
C25   O37   S    
C4    O7    A    
C7    Br7   S    
C16   O28   S    
C16   C34   S    
O49   H41   S    
C30   O51   S    
O48   H40   S    
C24   C38   S    
O50   H42   S    
C12   C36   S    
C49   N3    S    
C18   C35   S    
C15   C34   S    
C52   N4    S    
C27   O47   S    
C26   O38   S    
Cu3   O7    S    
O37   H29   S    
C11   O14   A    
C29   C43   S    
C9    C33   S    
C18   O22   S    
C30   C44   S    
C52   O72   S    
C2    O4    A    
C21   O41   S    
C47   O59   S    
Cu4   O16   S    
O52   H44   S    
Cu2   O12   S    
C24   O44   S    
C22   O34   S    
Cu3   O13   S    
Cu4   O6    S    
C46   O58   S    
C30   C34   S    
O70   H62   S    
C47   C48   S    
C20   C24   S    
O42   H34   S    
C18   O30   S    
C48   O68   S    
C5    Br3   S    
C51   O71   S    
C42   H4    S    
O58   H50   S    
C6    Br2   S    
Cu3   N4    S    
C39   C43   S    
C45   C46   S    
C22   C37   S    
C29   O49   S    
C24   O36   S    
C44   H8    S    
C51   C52   S    
O53   H45   S    
C50   O62   S    
C20   C36   S    
C46   O66   S    
O65   H57   S    
Cu1   O9    S    
O66   H58   S    
C44   H7    S    
C13   C33   S    
C50   O70   S    
C51   O63   S    
C29   O50   S    
C48   O60   S    
C15   C27   S    
O54   H46   S    
Cu2   O2    S    
C4    C39   S    
C8    Br8   S    
C27   C40   S    
O44   H36   S    
C32   O55   S    
C21   C37   S    
C15   O19   S    
C10   C34   S    
O21   H13   S    
C9    O9    A    
C14   C26   S    
O34   H26   S    
Cu4   O14   S    
Cu1   N2    S    
O35   H27   S    
C31   O53   S    
C1    C38   S    
C16   O20   S    
C5    N1    S    
C30   O52   S    
C3    C40   S    
C49   C50   S    
C45   N1    S    
O41   H33   S    
C27   O39   S    
C31   C35   S    
C47   O67   S    
O28   H20   S    
Cu3   O15   S    
C2    O3    A    
C23   C38   S    
O47   H39   S    
O20   H12   S    
C43   H5    S    
C19   O31   S    
O31   H23   S    
O27   H19   S    
C28   O48   S    
C10   O12   A    
C31   C41   S    
C18   C22   S    
C23   O43   S    
C25   O45   S    
C13   C25   S    
O40   H32   S    
C17   O29   S    
C42   H3    S    
C41   H2    S    
C20   O32   S    
C5    Br1   S    
C10   O11   A    
C46   N2    S    
Cu1   Cu2   S    
O38   H30   S    
O64   H56   S    
Cu4   N3    S    
O43   H35   S    
O33   H25   S    
C1    O2    A    
O24   H16   S    
C22   O42   S    
C28   O40   S    
C15   O27   S    
C8    N4    S    
C11   C35   S    
O46   H38   S    
O39   H31   S    
C52   O64   S    
C41   H1    S    
O68   H60   S    
C7    Br5   S    
O62   H54   S    
O55   H47   S    
O29   H21   S    
C25   C39   S    
C6    Br4   S    
C2    C37   S    
O67   H59   S    
C51   N3    S    
C20   O24   S    
C50   N4    S    
C8    Br6   S    
C9    O10   A    
C37   C41   S    
O69   H61   S    
C3    O5    A    
C1    O1    A    
C4    O8    A    
O56   H48   S    
C7    C8    S    
O63   H55   S    
C7    N3    S    
O72   H64   S    
Cu3   O5    S    
C40   C44   S    
Cu2   O4    S    
C12   O15   A    
O18   H10   S    
O71   H63   S    
C13   O17   S    
O26   H18   S    
C14   O26   S    
C32   C42   S    
C17   C35   S    
C48   N2    S    
O19   H11   S    
O45   H37   S    
C13   O25   S    
C47   N1    S    
C31   O54   S    
C26   O46   S    
C43   H6    S    
O51   H43   S    
C17   C21   S    
