data_mof_unit_28648.cif
_audit_creation_date              2013-03-05T15:55:01-0500
_audit_creation_method            fapswitch 2.2
_symmetry_space_group_name_H-M    P1
_symmetry_Int_Tables_number       1
_space_group_crystal_system       triclinic
_cell_length_a                    23.367347
_cell_length_b                    10.696862
_cell_length_c                    10.019085
_cell_angle_alpha                 93.888596
_cell_angle_beta                  90.876242
_cell_angle_gamma                 95.260519
_cell_volume                      2487.47081826

loop_
_atom_site_label
_atom_site_type_symbol
_atom_site_description
_atom_site_fract_x
_atom_site_fract_y
_atom_site_fract_z
_atom_type_partial_charge
O1    O     O_R   0.500000 0.316780 0.614690 -0.624473
O2    O     O_R   0.500000 0.316750 0.385360 -0.609092
C1    C     C_R   0.505675 0.261420 0.495971 0.903506
O3    O     O_R   0.416160 0.499970 0.614690 -0.535851
O4    O     O_R   0.416150 0.499950 0.385360 -0.616919
C2    C     C_R   0.389901 0.501323 0.498984 0.969830
Zn1   Zn    Zn3+2 0.500000 0.500020 0.653130 1.054442
Zn2   Zn    Zn3+2 0.500000 0.499980 0.346870 0.996085
O5    O     O_R   0.500000 0.683250 0.614640 -0.574524
O6    O     O_R   0.500000 0.683220 0.385310 -0.610796
O7    O     O_R   0.583850 0.500050 0.614640 -0.586665
O8    O     O_R   0.583840 0.500030 0.385310 -0.622820
C3    C     C_R   0.496026 0.739894 0.505060 0.951788
C4    C     C_R   0.610321 0.500946 0.501021 0.883506
C5    C     C_R   0.883505 0.526328 0.621003 0.585101
N1    N     N_R   0.851660 0.483086 0.509301 -0.341128
C6    C     C_R   0.875106 0.426026 0.400045 0.607851
C7    C     C_R   0.934435 0.414288 0.397136 -0.125983
C8    C     C_R   0.968651 0.461723 0.511192 -0.045767
C9    C     C_R   0.942982 0.514070 0.626867 -0.085722
C10   C     C_R   0.961031 0.361168 0.282885 0.319170
C11   C     C_R   0.020651 0.365902 0.279321 -0.144417
C12   C     C_R   0.054647 0.414216 0.390087 -0.066484
C13   C     C_R   0.028834 0.458261 0.508448 -0.039856
C14   C     C_R   0.063369 0.500180 0.622726 -0.178814
C15   C     C_R   0.037206 0.545541 0.740481 0.353790
C16   C     C_R   0.977792 0.553529 0.742657 0.019531
C17   C     C_R   0.114430 0.419509 0.384762 0.600646
N2    N     N_R   0.147127 0.459817 0.495763 -0.348459
C18   C     C_R   0.123250 0.495016 0.614462 0.566504
O9    O     O_2   0.857106 0.582918 0.724114 -0.532631
O10   O     O_2   0.840750 0.384019 0.293979 -0.466299
H1    H     H_    0.040252 0.327776 0.189962 0.235536
O11   O     O_2   0.139897 0.385997 0.269361 -0.491321
O12   O     O_2   0.157838 0.524492 0.723230 -0.446074
C19   C     C_R   0.238305 0.589974 0.502033 -0.157353
H2    H     H_    0.214574 0.672274 0.513828 0.198480
C20   C     C_R   0.298219 0.603464 0.508484 0.286548
C21   C     C_R   0.327798 0.494393 0.495201 -0.142218
C22   C     C_R   0.297666 0.375379 0.473223 -0.226347
H3    H     H_    0.320517 0.292128 0.458703 0.199186
C23   C     C_R   0.237863 0.362386 0.472059 0.171161
C24   C     C_R   0.208253 0.470350 0.487374 0.232342
C25   C     C_R   0.765446 0.568597 0.416707 0.360388
C26   C     C_R   0.705540 0.567182 0.412826 -0.239988
H4    H     H_    0.684844 0.621990 0.342309 0.203852
C27   C     C_R   0.672316 0.499885 0.503717 -0.080474
C28   C     C_R   0.698462 0.432122 0.598152 -0.162199
H5    H     H_    0.673259 0.380564 0.669592 0.158963
C29   C     C_R   0.757405 0.427356 0.598553 -0.095315
H6    H     H_    0.777120 0.370777 0.668832 0.183106
C30   C     C_R   0.791180 0.494721 0.508643 0.171962
C31   C     C_R   0.570455 0.145745 0.699163 -0.203528
H7    H     H_    0.591641 0.236114 0.677890 0.159226
C32   C     C_R   0.581560 0.099201 0.821675 -0.217545
H8    H     H_    0.611067 0.155040 0.891274 0.202904
C33   C     C_R   0.551556 0.987794 0.858273 0.334809
C34   C     C_R   0.513232 0.918150 0.762082 0.072120
C35   C     C_R   0.512570 0.953132 0.627580 0.021205
C36   C     C_R   0.533035 0.076252 0.604535 0.027593
C37   C     C_R   0.514592 0.128527 0.488312 -0.131645
C38   C     C_R   0.491855 0.051045 0.378211 0.061915
C39   C     C_R   0.473582 0.926002 0.397398 0.083075
C40   C     C_R   0.489338 0.874364 0.516014 -0.055441
H9    H     H_    0.566824 0.642278 0.140183 0.207818
C41   C     C_R   0.431271 0.302105 0.115672 0.044281
C42   C     C_R   0.414098 0.191494 0.033981 0.224887
C43   C     C_R   0.427735 0.187242 0.900755 -0.344885
H10   H     H_    0.410751 0.105268 0.838027 0.238049
C44   C     C_R   0.437127 0.301162 0.843323 0.354258
C45   C     C_R   0.466578 0.405933 0.919095 -0.047539
C46   C     C_R   0.466465 0.404772 0.063163 0.087497
N3    N     N_R   0.499460 0.498800 0.142780 -0.125529
C47   C     C_R   0.536646 0.578608 0.079686 -0.069164
C48   C     C_R   0.539219 0.574948 0.937547 0.293695
N4    N     N_R   0.499440 0.498720 0.857170 -0.177843
N5    N     N_R   0.928762 0.299489 0.170352 0.252688
O13   O     O_R   0.941737 0.329112 0.049950 -0.345415
O14   O     O_R   0.896548 0.195808 0.185601 -0.274784
N6    N     N_3   0.489654 0.099603 0.248288 -0.437442
H11   H     H_    0.477768 0.029076 0.173953 0.233360
H12   H     H_    0.531506 0.133404 0.225421 0.239221
N7    N     N_R   0.560863 0.948942 0.991615 0.206922
O15   O     O_R   0.602719 0.004765 0.067146 -0.365900
O16   O     O_R   0.529566 0.855989 0.038265 -0.487496
N8    N     N_3   0.466933 0.832989 0.803494 -0.341723
H13   H     H_    0.443816 0.880457 0.875556 0.250337
H14   H     H_    0.482685 0.756402 0.845354 0.256051
N9    N     N_3   0.435327 0.851980 0.302711 -0.386399
H15   H     H_    0.456613 0.832593 0.214130 0.253960
H16   H     H_    0.400225 0.902405 0.283207 0.268366
N10   N     N_3   0.405202 0.314309 0.241620 -0.344405
H17   H     H_    0.362433 0.331697 0.225137 0.224564
H18   H     H_    0.405516 0.231844 0.291652 0.230735
N11   N     N_R   0.375695 0.090573 0.080086 0.215275
O17   O     O_R   0.329261 0.114958 0.142986 -0.361631
O18   O     O_R   0.380140 0.975209 0.034686 -0.400959
N12   N     N_R   0.393388 0.318175 0.747801 0.242098
O19   O     O_R   0.351647 0.383871 0.786675 -0.337193
O20   O     O_R   0.383971 0.235837 0.646262 -0.427814
N13   N     N_R   0.588877 0.640237 0.882048 0.227764
O21   O     O_R   0.638234 0.647060 0.945405 -0.331431
O22   O     O_R   0.584881 0.703844 0.777357 -0.361336
N14   N     N_R   0.070620 0.590012 0.858257 0.266302
O23   O     O_R   0.097587 0.702286 0.865305 -0.288336
O24   O     O_R   0.065940 0.528118 0.965556 -0.298198
N15   N     N_3   0.954746 0.603403 0.865049 -0.343195
H19   H     H_    0.923551 0.537642 0.899538 0.282018
H20   H     H_    0.937711 0.688266 0.849121 0.266051
N16   N     N_R   0.327867 0.727125 0.529907 0.205848
O25   O     O_R   0.371505 0.747046 0.612992 -0.382226
O26   O     O_R   0.306166 0.823299 0.482681 -0.344228
N17   N     N_3   0.207110 0.239970 0.458647 -0.397263
H21   H     H_    0.220488 0.188684 0.536758 0.237518
H22   H     H_    0.218877 0.194841 0.368717 0.245722
N18   N     N_R   0.799293 0.645676 0.329147 0.232456
O27   O     O_R   0.850745 0.694276 0.365280 -0.342766
O28   O     O_R   0.776755 0.677922 0.218436 -0.292616

loop_
_geom_bond_atom_site_label_1
_geom_bond_atom_site_label_2
_geom_bond_distance
_ccdc_geom_bond_type
C32   H8    1.082456 S    
N13   O21   1.301667 A    
C7    C10   1.420471 A    
N3    C47   1.355512 A    
C31   C32   1.385177 A    
C8    C9    1.418209 A    
N14   O24   1.301096 A    
N5    O13   1.301132 A    
Zn1   O7    2.002695 S    
C35   C40   1.422639 A    
N2    C18   1.365827 A    
C18   O12   1.349061 S    
O4    C2    1.301202 A    
C38   N6    1.435773 S    
C17   N2    1.362011 A    
C20   C21   1.409369 A    
O7    C4    1.304028 A    
N8    H14   1.039098 S    
C1    C37   1.452619 S    
C5    N1    1.364330 A    
N18   O27   1.301297 A    
C7    C8    1.421823 A    
O5    C3    1.295584 A    
N16   O25   1.299345 A    
N10   H17   1.045873 S    
C15   N14   1.433846 S    
C41   C46   1.444012 A    
C27   C28   1.396586 A    
C31   H7    1.080912 S    
N1    C6    1.363810 A    
C19   H2    1.083459 S    
C29   C30   1.399687 A    
C12   C13   1.410783 A    
C33   N7    1.444923 S    
C44   C45   1.425887 A    
N9    H16   1.045184 S    
C46   N3    1.404481 A    
C25   C30   1.415432 A    
N5    O14   1.301320 A    
C41   C42   1.415067 A    
C17   O11   1.350334 S    
C35   C36   1.394860 A    
N13   O22   1.295107 A    
C10   C11   1.390526 A    
N2    C24   1.426678 S    
C42   N11   1.444553 S    
N15   H20   1.044948 S    
O3    Zn1   1.990773 S    
C34   N8    1.434148 S    
N14   O23   1.301076 A    
C31   C36   1.405658 A    
C29   H6    1.083196 S    
C26   C27   1.399371 A    
C5    C9    1.408621 A    
C47   C48   1.424330 A    
C42   C43   1.375768 A    
C13   C14   1.413849 A    
N6    H12   1.045423 S    
C21   C22   1.399232 A    
N8    H13   1.040850 S    
C43   H10   1.084066 S    
C41   N10   1.412870 S    
C14   C15   1.414189 A    
C26   H4    1.083736 S    
H9    C47   1.082320 S    
C36   C37   1.404103 A    
O1    C1    1.306425 A    
C48   N4    1.387971 A    
C38   C39   1.393202 A    
C23   N17   1.431712 S    
N7    O15   1.301867 A    
C16   N15   1.436136 S    
Zn2   O8    1.990770 S    
C2    C21   1.446059 S    
C39   N9    1.438197 S    
N10   H18   1.044281 S    
C6    C7    1.404012 A    
C15   C16   1.399195 A    
C12   C17   1.394911 A    
C28   C29   1.382907 A    
Zn1   N4    2.045518 S    
Zn2   O6    1.971778 S    
C22   H3    1.082269 S    
N7    O16   1.296950 A    
O8    C4    1.304777 A    
N12   O20   1.301996 A    
C32   C33   1.400032 A    
O3    C2    1.304901 A    
C20   N16   1.436906 S    
C23   C24   1.400620 A    
N15   H19   1.045096 S    
C25   C26   1.398456 A    
N17   H21   1.045628 S    
C14   C18   1.408870 A    
Zn1   O5    2.023062 S    
C11   H1    1.083942 S    
C28   H5    1.081747 S    
O1    Zn1   1.971776 S    
O2    Zn2   2.023061 S    
N1    C30   1.430007 S    
N6    H11   1.039239 S    
O6    C3    1.315564 A    
O4    Zn2   2.002697 S    
N11   O18   1.299742 A    
C5    O9    1.348100 S    
C4    C27   1.449593 S    
C9    C16   1.423872 A    
C19   C20   1.394282 A    
C8    C13   1.410835 A    
C34   C35   1.423050 A    
C45   C46   1.444360 A    
C33   C34   1.428163 A    
C45   N4    1.384943 A    
C3    C40   1.458019 S    
C22   C23   1.391394 A    
Zn2   N3    2.043817 S    
N18   O28   1.301568 A    
O2    C1    1.301882 A    
C37   C38   1.401210 A    
N16   O26   1.301426 A    
C39   C40   1.402138 A    
C25   N18   1.440384 S    
C43   C44   1.383523 A    
N12   O19   1.302722 A    
C10   N5    1.434218 S    
N11   O17   1.301167 A    
C48   N13   1.437788 S    
C6    O10   1.348598 S    
C11   C12   1.396316 A    
C19   C24   1.399523 A    
N9    H15   1.041885 S    
C44   N12   1.421788 S    
N17   H22   1.045658 S    
