data_mof_unit_56896.cif
_audit_creation_date              2012-12-10T17:19:12-0500
_audit_creation_method            fapswitch 2.2
_symmetry_space_group_name_H-M    P1
_symmetry_Int_Tables_number       1
_space_group_crystal_system       triclinic
_cell_length_a                    18.283
_cell_length_b                    18.282757
_cell_length_c                    34.493392
_cell_angle_alpha                 90.006046
_cell_angle_beta                  89.995022
_cell_angle_gamma                 89.963631
_cell_volume                      11529.8845502

loop_
_atom_site_label
_atom_site_type_symbol
_atom_type_description
_atom_site_fract_x
_atom_site_fract_y
_atom_site_fract_z
_atom_type_partial_charge
C1    C     C_R   0.535743 0.869888 0.520480 0.151945
C2    C     C_R   0.961877 0.629027 0.979538 0.152016
C3    C     C_R   0.565075 0.983097 0.959241 0.013399
C4    C     C_R   0.978903 0.564149 0.040781 0.013409
C5    C     C_R   0.015792 0.434690 0.959256 0.016302
C6    C     C_R   0.564847 0.982041 0.040766 0.013469
C7    C     C_R   0.434925 0.017035 0.959253 0.013609
C8    C     C_R   0.999999 0.500037 0.644100 0.498404
C9    C     C_R   0.999995 0.500016 0.355897 0.499431
C10   C     C_R   0.500081 1.000000 0.644089 0.498378
C11   C     C_R   0.500153 0.000023 0.355908 0.498907
C12   C     C_R   0.500003 0.999972 0.144103 0.498100
C13   C     C_R   0.370633 0.036658 0.020493 0.154337
C14   C     C_R   0.499997 0.000021 0.855901 0.498220
C15   C     C_R   0.999905 0.499984 0.144102 0.498741
C16   C     C_R   0.000009 0.499999 0.855902 0.498084
C17   C     C_R   0.860185 0.639815 0.750003 0.479633
C18   C     C_R   0.139810 0.360202 0.249992 0.482424
C19   C     C_R   0.360188 0.860186 0.750000 0.482707
C20   C     C_R   0.639811 0.139838 0.249993 0.480782
C21   C     C_R   0.139816 0.360187 0.750000 0.479677
C22   C     C_R   0.860194 0.639802 0.249997 0.481946
C23   C     C_R   0.639811 0.139811 0.750000 0.482612
C24   C     C_R   0.629752 0.965016 0.979530 0.151593
C25   C     C_R   0.360167 0.860186 0.250006 0.481283
C26   C     C_R   0.860185 0.360165 0.250006 0.480764
C27   C     C_R   0.139812 0.639813 0.750000 0.482655
C28   C     C_R   0.360201 0.139806 0.249996 0.482176
C29   C     C_R   0.639815 0.860185 0.749998 0.479658
C30   C     C_R   0.139835 0.639811 0.249993 0.481113
C31   C     C_R   0.860188 0.360189 0.750000 0.482518
C32   C     C_R   0.639796 0.860191 0.249992 0.481729
C33   C     C_R   0.360183 0.139813 0.750001 0.479689
C34   C     C_R   0.265938 0.626277 0.798864 -0.091093
C35   C     C_R   0.959882 0.628590 0.020473 0.154865
C36   C     C_R   0.714419 0.393269 0.224382 -0.090549
C37   C     C_R   0.393301 0.285606 0.775476 -0.091317
C38   C     C_R   0.626998 0.734822 0.200552 -0.094820
C39   C     C_R   0.734044 0.373740 0.798865 -0.091118
C40   C     C_R   0.285716 0.606679 0.224521 -0.088970
C41   C     C_R   0.606686 0.714399 0.775455 -0.091570
C42   C     C_R   0.373403 0.265525 0.200853 -0.094531
C43   C     C_R   0.265613 0.373429 0.200895 -0.092382
C44   C     C_R   0.714392 0.606695 0.775466 -0.091489
C45   C     C_R   0.393321 0.714359 0.224492 -0.088962
C46   C     C_R   0.033438 0.369913 0.979580 0.151868
C47   C     C_R   0.626262 0.265957 0.798863 -0.091177
C48   C     C_R   0.734854 0.626982 0.200551 -0.094931
C49   C     C_R   0.285602 0.393316 0.775473 -0.091149
C50   C     C_R   0.606736 0.285663 0.224412 -0.089912
C51   C     C_R   0.373729 0.734052 0.798859 -0.091132
C52   C     C_R   0.785570 0.106739 0.275622 -0.090249
C53   C     C_R   0.234061 0.873723 0.701138 -0.091198
C54   C     C_R   0.873115 0.765309 0.299328 -0.092361
C55   C     C_R   0.106690 0.214386 0.724540 -0.090932
C56   C     C_R   0.214287 0.893316 0.275474 -0.088678
C57   C     C_R   0.629344 0.963162 0.020459 0.154129
C58   C     C_R   0.765952 0.126262 0.701134 -0.091270
C59   C     C_R   0.126482 0.234347 0.299023 -0.091792
C60   C     C_R   0.893325 0.785613 0.724564 -0.091278
C61   C     C_R   0.785619 0.893317 0.724554 -0.091345
C62   C     C_R   0.234320 0.126492 0.299018 -0.091642
C63   C     C_R   0.873736 0.234045 0.701135 -0.091219
C64   C     C_R   0.106682 0.785637 0.275503 -0.089302
C65   C     C_R   0.214388 0.106674 0.724546 -0.091097
C66   C     C_R   0.765200 0.873087 0.299375 -0.094751
C67   C     C_R   0.126274 0.765945 0.701139 -0.091194
C68   C     C_R   0.370260 0.035123 0.979561 0.151989
C69   C     C_R   0.893258 0.214340 0.275587 -0.090319
C70   C     C_R   0.326816 0.619440 0.822910 -0.124039
C71   C     C_R   0.643762 0.409990 0.212119 -0.121159
C72   C     C_R   0.410003 0.356306 0.787645 -0.121531
C73   C     C_R   0.620500 0.674240 0.176269 -0.129442
C74   C     C_R   0.673161 0.380581 0.822912 -0.124312
C75   C     C_R   0.356409 0.589971 0.212309 -0.120027
C76   C     C_R   0.589986 0.643707 0.787633 -0.121755
C77   C     C_R   0.380095 0.326275 0.176711 -0.128365
C78   C     C_R   0.326357 0.380088 0.176739 -0.126051
C79   C     C_R   0.312178 0.742408 0.774311 0.013602
C80   C     C_R   0.643696 0.589997 0.787638 -0.121747
C81   C     C_R   0.410069 0.643674 0.212288 -0.120170
C82   C     C_R   0.619421 0.326842 0.822911 -0.124298
C83   C     C_R   0.674284 0.620470 0.176267 -0.129622
C84   C     C_R   0.356295 0.410019 0.787644 -0.121514
C85   C     C_R   0.590058 0.356330 0.212139 -0.120874
C86   C     C_R   0.380562 0.673174 0.822906 -0.124070
C87   C     C_R   0.856231 0.090013 0.287877 -0.120663
C88   C     C_R   0.173182 0.880560 0.677092 -0.124105
C89   C     C_R   0.879656 0.825939 0.323575 -0.126084
C90   C     C_R   0.677948 0.267510 0.237619 0.010706
C91   C     C_R   0.089983 0.143681 0.712380 -0.121200
C92   C     C_R   0.143590 0.910029 0.287675 -0.119560
C93   C     C_R   0.826836 0.119420 0.677087 -0.124381
C94   C     C_R   0.119744 0.173546 0.323126 -0.124624
C95   C     C_R   0.910032 0.856312 0.712399 -0.121463
C96   C     C_R   0.856322 0.910022 0.712394 -0.121490
C97   C     C_R   0.173511 0.119764 0.323121 -0.124482
C98   C     C_R   0.880576 0.173160 0.677087 -0.124343
C99   C     C_R   0.089931 0.856327 0.287696 -0.119816
C100  C     C_R   0.143691 0.089967 0.712383 -0.121239
C101  C     C_R   0.267485 0.322072 0.762325 0.009872
C102  C     C_R   0.825836 0.879671 0.323606 -0.128533
C103  C     C_R   0.119439 0.826824 0.677094 -0.124153
C104  C     C_R   0.909936 0.143670 0.287852 -0.120566
C105  C     C_R   0.505271 0.000862 0.520323 -0.023973
C106  C     C_R   0.506358 0.001077 0.479645 -0.023633
C107  C     C_R   0.000007 0.500296 0.520344 -0.023967
C108  C     C_R   0.000003 0.500271 0.479651 -0.023759
C109  C     C_R   0.996439 0.499200 0.020359 -0.023913
C110  C     C_R   0.997405 0.499414 0.979667 -0.024447
C111  C     C_R   0.499990 0.999929 0.020353 -0.023963
C112  C     C_R   0.478088 0.132482 0.479527 0.150459
C113  C     C_R   0.742815 0.688196 0.225374 0.012674
C114  C     C_R   0.499994 0.000011 0.979665 -0.024962
C115  C     C_3   0.621230 0.790417 0.554538 -0.316452
C116  C     C_3   0.532033 0.237452 0.448053 -0.319407
C117  C     C_3   0.795896 0.623594 0.551623 -0.323767
C118  C     C_3   0.236822 0.527344 0.448196 -0.316318
C119  C     C_3   0.381212 0.205199 0.551200 -0.322546
C120  C     C_3   0.636362 0.808883 0.444438 -0.310494
C121  C     C_3   0.204364 0.377382 0.551666 -0.322778
C122  C     C_3   0.763045 0.473449 0.448285 -0.319395
C123  C     C_3   0.981337 0.261553 0.051891 -0.316703
C124  C     C_R   0.687816 0.257597 0.774313 0.013605
C125  C     C_3   0.870139 0.701348 0.945046 -0.314433
C126  C     C_3   0.306227 0.135049 0.052755 -0.309346
C127  C     C_3   0.702977 0.873574 0.945307 -0.314133
C128  C     C_3   0.861127 0.692521 0.052729 -0.312768
C129  C     C_3   0.129963 0.300861 0.948610 -0.324165
C130  C     C_3   0.693615 0.864535 0.052632 -0.312221
C131  C     C_3   0.297368 0.127037 0.945445 -0.314657
C132  C     C_R   0.322083 0.732495 0.237668 0.011554
C133  C     C_R   0.732511 0.677933 0.762318 0.009496
C134  C     C_R   0.257421 0.312013 0.225547 0.012803
C135  C     C_R   0.312015 0.257389 0.225537 0.012849
C136  C     C_R   0.677928 0.732514 0.762312 0.009422
C137  C     C_R   0.267536 0.677920 0.237675 0.011402
C138  C     C_R   0.742403 0.312184 0.774313 0.013648
C139  C     C_R   0.688204 0.742803 0.225372 0.012647
C140  C     C_R   0.869010 0.530385 0.520454 0.151504
C141  C     C_R   0.322065 0.267487 0.762327 0.009681
C142  C     C_R   0.732524 0.322057 0.237611 0.010445
C143  C     C_R   0.257589 0.687823 0.774313 0.013627
C144  C     C_R   0.822043 0.232496 0.262384 0.010456
C145  C     C_R   0.187823 0.757590 0.725688 0.013616
C146  C     C_R   0.757211 0.811841 0.274577 0.012842
C147  C     C_R   0.232510 0.177923 0.737686 0.009805
C148  C     C_R   0.177923 0.767499 0.262331 0.011329
C149  C     C_R   0.812181 0.242404 0.725686 0.013621
C150  C     C_R   0.242547 0.187946 0.274395 0.013112
C151  C     C_R   0.131685 0.473389 0.479537 0.150243
C152  C     C_R   0.767494 0.822073 0.737693 0.009565
C153  C     C_R   0.822078 0.767492 0.737698 0.009624
C154  C     C_R   0.187940 0.242556 0.274395 0.013098
C155  C     C_R   0.757594 0.187817 0.725686 0.013599
C156  C     C_R   0.232470 0.822073 0.262325 0.011592
C157  C     C_R   0.177931 0.232508 0.737683 0.009942
C158  C     C_R   0.811838 0.757252 0.274565 0.012828
C159  C     C_R   0.242412 0.812175 0.725688 0.013583
C160  C     C_R   0.767467 0.177951 0.262393 0.010625
C161  C     C_R   0.304081 0.804076 0.749999 0.013347
C162  C     C_R   0.474687 0.131778 0.520416 0.151320
C163  C     C_R   0.695920 0.195948 0.250002 0.008177
C164  C     C_R   0.195927 0.304077 0.749999 0.007451
C165  C     C_R   0.804091 0.695920 0.249987 0.012520
C166  C     C_R   0.695920 0.195921 0.749999 0.013351
C167  C     C_R   0.304059 0.804073 0.249999 0.009202
C168  C     C_R   0.804077 0.695927 0.750007 0.006975
C169  C     C_R   0.195913 0.304085 0.249985 0.012809
C170  C     C_R   0.304085 0.195907 0.249985 0.012906
C171  C     C_R   0.695925 0.804075 0.749997 0.006850
C172  C     C_R   0.195946 0.695921 0.250001 0.008841
C173  C     C_R   0.539177 0.870609 0.479494 0.154976
C174  C     C_R   0.804079 0.304080 0.750000 0.013404
C175  C     C_R   0.695909 0.804088 0.249987 0.012574
C176  C     C_R   0.304071 0.195921 0.750005 0.007132
C177  C     C_R   0.804073 0.304058 0.249999 0.007800
C178  C     C_R   0.195920 0.695922 0.750001 0.013395
C179  C     C_R   0.488849 0.065055 0.581335 -0.120416
C180  C     C_R   0.517250 0.935844 0.418622 -0.123688
C181  C     C_R   0.064745 0.486640 0.581366 -0.120353
C182  C     C_R   0.935275 0.513839 0.418617 -0.121622
C183  C     C_R   0.515290 0.935440 0.581342 -0.119563
C184  C     C_R   0.131036 0.470337 0.520442 0.151559
C185  C     C_R   0.490113 0.065289 0.418642 -0.120581
C186  C     C_R   0.935259 0.513847 0.581378 -0.120539
C187  C     C_R   0.064706 0.486479 0.418618 -0.120903
C188  C     C_R   0.981413 0.563668 0.081397 -0.121477
C189  C     C_R   0.015284 0.435679 0.918635 -0.120387
C190  C     C_R   0.564184 0.983915 0.081380 -0.121798
C191  C     C_R   0.435676 0.015545 0.918635 -0.117617
C192  C     C_R   0.014232 0.435505 0.081389 -0.120803
C193  C     C_R   0.983205 0.564041 0.918634 -0.117631
C194  C     C_R   0.435799 0.015819 0.081391 -0.121088
C195  C     C_R   0.868343 0.527261 0.479547 0.150253
C196  C     C_R   0.564324 0.984642 0.918624 -0.117935
C197  C     C_R   0.501161 0.000088 0.601595 -0.018690
C198  C     C_R   0.502180 0.000269 0.398387 -0.018187
C199  C     C_R   0.999995 0.500166 0.601623 -0.018639
C200  C     C_R   0.999986 0.500099 0.398370 -0.018272
C201  C     C_R   0.998694 0.499804 0.101634 -0.017497
C202  C     C_R   0.999624 0.499948 0.898384 -0.017946
C203  C     C_R   0.500000 0.999900 0.101632 -0.017571
C204  C     C_R   0.499995 0.000071 0.898380 -0.017583
C205  C     C_R   0.518903 0.935013 0.540733 0.014220
C206  C     C_R   0.030160 0.369091 0.020481 0.150101
C207  C     C_R   0.491916 0.066768 0.459233 0.015678
C208  C     C_R   0.934436 0.515272 0.540766 0.015710
C209  C     C_R   0.065939 0.487017 0.459231 0.015845
C210  C     C_R   0.489235 0.066227 0.540727 0.016137
C211  C     C_R   0.521400 0.935533 0.459216 0.014097
C212  C     C_R   0.065585 0.485338 0.540757 0.015983
C213  C     C_R   0.934061 0.513485 0.459234 0.015560
C214  C     C_R   0.013259 0.434093 0.040780 0.015954
C215  C     C_R   0.980682 0.564540 0.959246 0.013303
C216  C     C_R   0.435127 0.017731 0.040780 0.013770
H1    H     H_    0.225549 0.583061 0.799844 0.104703
H2    H     H_    0.754453 0.563227 0.776784 0.119780
H3    H     H_    0.361553 0.157065 0.567847 0.156968
H4    H     H_    0.547765 0.757378 0.470370 0.251849
H5    H     H_    0.675399 0.811397 0.468997 0.136978
H6    H     H_    0.645631 0.857041 0.425487 0.152925
H7    H     H_    0.647696 0.758793 0.427242 0.147123
H8    H     H_    0.243506 0.476074 0.530167 0.257074
H9    H     H_    0.210239 0.343262 0.525199 0.133969
H10   H     H_    0.156253 0.358199 0.568494 0.156960
H11   H     H_    0.253932 0.370301 0.569885 0.144849
H12   H     H_    0.768536 0.579501 0.469792 0.254235
H13   H     H_    0.436751 0.754408 0.223171 0.119910
H14   H     H_    0.743409 0.444941 0.474745 0.136600
H15   H     H_    0.798824 0.435869 0.431511 0.160644
H16   H     H_    0.715144 0.487726 0.430001 0.147368
H17   H     H_    0.086916 0.271747 0.030236 0.254304
H18   H     H_    0.953603 0.240600 0.025483 0.139006
H19   H     H_    0.942289 0.295646 0.068709 0.161403
H20   H     H_    0.997861 0.214381 0.070177 0.149929
H21   H     H_    0.969071 0.741854 0.967571 0.249632
H22   H     H_    0.841227 0.743483 0.962426 0.125764
H23   H     H_    0.839665 0.648845 0.947117 0.148460
H24   H     H_    0.583042 0.225572 0.799841 0.104709
H25   H     H_    0.870498 0.719020 0.914275 0.154752
H26   H     H_    0.257789 0.041238 0.030434 0.252775
H27   H     H_    0.304159 0.170726 0.026761 0.142260
H28   H     H_    0.355670 0.148838 0.069967 0.152495
H29   H     H_    0.257291 0.146079 0.070907 0.147686
H30   H     H_    0.742446 0.973219 0.967482 0.248904
H31   H     H_    0.745880 0.845527 0.962556 0.126112
H32   H     H_    0.720020 0.873716 0.914433 0.154804
H33   H     H_    0.650957 0.842387 0.947814 0.148530
H34   H     H_    0.954696 0.741445 0.030416 0.252859
H35   H     H_    0.775280 0.583749 0.199568 0.104053
H36   H     H_    0.825411 0.694286 0.026743 0.139881
H37   H     H_    0.849817 0.741473 0.070824 0.141495
H38   H     H_    0.847650 0.643073 0.070005 0.151955
H39   H     H_    0.032886 0.257328 0.969802 0.257319
H40   H     H_    0.164020 0.296416 0.975173 0.130654
H41   H     H_    0.147193 0.349826 0.931885 0.156695
H42   H     H_    0.139443 0.251710 0.930373 0.145021
H43   H     H_    0.742196 0.958316 0.030378 0.252076
H44   H     H_    0.695581 0.828893 0.026619 0.140031
H45   H     H_    0.644184 0.850796 0.069865 0.152675
H46   H     H_    0.245543 0.436788 0.776782 0.119747
H47   H     H_    0.742568 0.853368 0.070743 0.141343
H48   H     H_    0.257532 0.027392 0.967465 0.249595
H49   H     H_    0.253758 0.154919 0.962308 0.127922
H50   H     H_    0.281435 0.127069 0.914406 0.154545
H51   H     H_    0.349206 0.158339 0.948535 0.148989
H52   H     H_    0.563276 0.245643 0.223127 0.119987
H53   H     H_    0.416952 0.774434 0.799836 0.104721
H54   H     H_    0.745516 0.063313 0.276937 0.119604
H55   H     H_    0.274448 0.916940 0.700158 0.104829
H56   H     H_    0.916385 0.724921 0.300288 0.105129
H57   H     H_    0.754473 0.436696 0.223069 0.119805
H58   H     H_    0.063223 0.254447 0.723227 0.119794
H59   H     H_    0.254303 0.936779 0.276768 0.119934
H60   H     H_    0.725566 0.083043 0.700154 0.104727
H61   H     H_    0.083243 0.274766 0.300004 0.105066
H62   H     H_    0.936795 0.745553 0.723255 0.119919
H63   H     H_    0.745560 0.936785 0.723236 0.119895
H64   H     H_    0.274730 0.083244 0.299993 0.105482
H65   H     H_    0.916955 0.274429 0.700157 0.104733
H66   H     H_    0.063252 0.745590 0.276823 0.119737
H67   H     H_    0.254445 0.063201 0.723238 0.119895
H68   H     H_    0.436768 0.245543 0.776788 0.119769
H69   H     H_    0.724754 0.916301 0.300373 0.103974
H70   H     H_    0.083052 0.725561 0.700161 0.104751
H71   H     H_    0.936720 0.254358 0.276869 0.119845
H72   H     H_    0.072293 0.832247 0.658331 0.102329
H73   H     H_    0.964654 0.130599 0.297613 0.110746
H74   H     H_    0.130631 0.035220 0.702689 0.110773
H75   H     H_    0.831031 0.926642 0.342512 0.101474
H76   H     H_    0.927726 0.167734 0.658323 0.102295
H77   H     H_    0.035190 0.869372 0.297438 0.111099
H78   H     H_    0.869382 0.964764 0.702694 0.110796
H79   H     H_    0.583758 0.775240 0.199572 0.104492
H80   H     H_    0.168157 0.072660 0.341916 0.104093
H81   H     H_    0.072645 0.168210 0.341930 0.103423
H82   H     H_    0.964776 0.869368 0.702702 0.110774
H83   H     H_    0.130503 0.964769 0.297394 0.110783
H84   H     H_    0.832261 0.072271 0.658321 0.102114
H85   H     H_    0.926655 0.831189 0.342452 0.103379
H86   H     H_    0.035242 0.130621 0.702684 0.110790
H87   H     H_    0.869252 0.035295 0.297666 0.111194
H88   H     H_    0.167764 0.927703 0.658328 0.102544
H89   H     H_    0.535342 0.369392 0.202368 0.110994
H90   H     H_    0.774430 0.416959 0.799844 0.104657
H91   H     H_    0.427708 0.667751 0.841669 0.101924
H92   H     H_    0.669112 0.573524 0.157341 0.101237
H93   H     H_    0.369352 0.464763 0.797346 0.110680
H94   H     H_    0.464806 0.630637 0.202535 0.111265
H95   H     H_    0.572271 0.332267 0.841676 0.101850
H96   H     H_    0.331682 0.427162 0.157921 0.103818
H97   H     H_    0.630641 0.535261 0.797347 0.110708
H98   H     H_    0.535247 0.630657 0.797339 0.110696
H99   H     H_    0.427142 0.331554 0.157866 0.101871
H100  H     H_    0.667736 0.427730 0.841678 0.101669
H101  H     H_    0.245699 0.563217 0.223228 0.120137
H102  H     H_    0.369488 0.535233 0.202580 0.110912
H103  H     H_    0.464741 0.369364 0.797347 0.110715
H104  H     H_    0.573556 0.669050 0.157349 0.101986
H105  H     H_    0.332233 0.572299 0.841676 0.102088
H106  H     H_    0.630745 0.464707 0.202323 0.111223
H107  H     H_    0.478492 0.114722 0.597527 0.176507
H108  H     H_    0.525601 0.885809 0.402427 0.174398
H109  H     H_    0.114499 0.476727 0.597558 0.176572
H110  H     H_    0.885927 0.525513 0.402405 0.175107
H111  H     H_    0.524622 0.885631 0.597577 0.176618
H112  H     H_    0.563216 0.754459 0.776764 0.119851
H113  H     H_    0.477754 0.114529 0.402478 0.176217
H114  H     H_    0.885503 0.523746 0.597576 0.176442
H115  H     H_    0.114051 0.474748 0.402409 0.175761
H116  H     H_    0.969821 0.613046 0.097612 0.174969
H117  H     H_    0.027535 0.386460 0.902424 0.175860
H118  H     H_    0.613552 0.972283 0.097587 0.174841
H119  H     H_    0.386372 0.027333 0.902419 0.174354
H120  H     H_    0.028471 0.386825 0.097598 0.174839
H121  H     H_    0.971403 0.613334 0.902411 0.174427
H122  H     H_    0.386434 0.027436 0.097609 0.175322
H123  H     H_    0.416618 0.225081 0.199855 0.104295
H124  H     H_    0.613627 0.972872 0.902398 0.174439
H125  H     H_    0.520441 0.758133 0.531497 0.247837
H126  H     H_    0.654709 0.768734 0.530351 0.135412
H127  H     H_    0.620592 0.749012 0.578067 0.148502
H128  H     H_    0.646569 0.841229 0.566039 0.152696
H129  H     H_    0.426138 0.232501 0.469791 0.255966
H130  H     H_    0.560869 0.256982 0.474438 0.136408
H131  H     H_    0.517806 0.285400 0.429793 0.148184
H132  H     H_    0.569268 0.201468 0.431184 0.160010
H133  H     H_    0.756533 0.524928 0.530201 0.256839
H134  H     H_    0.225216 0.416691 0.199931 0.105403
H135  H     H_    0.790136 0.657654 0.525129 0.130930
H136  H     H_    0.844032 0.642699 0.568453 0.156954
H137  H     H_    0.746317 0.630857 0.569819 0.144622
H138  H     H_    0.231615 0.421362 0.469803 0.255736
H139  H     H_    0.256398 0.555996 0.474627 0.138707
H140  H     H_    0.200938 0.564771 0.431397 0.161592
H141  H     H_    0.284748 0.513120 0.429914 0.149739
H142  H     H_    0.480424 0.244177 0.530269 0.256732
H143  H     H_    0.347626 0.211270 0.524560 0.133980
H144  H     H_    0.373880 0.254700 0.569446 0.144803
N1    N     N_2   0.547099 0.803841 0.541712 -0.531492
N2    N     N_2   0.944818 0.694001 0.958489 -0.530082
N3    N     N_2   0.307038 0.058778 0.041487 -0.526251
N4    N     N_2   0.694848 0.948349 0.958489 -0.530254
N5    N     N_2   0.937398 0.692096 0.041445 -0.524526
N6    N     N_2   0.053226 0.305490 0.958671 -0.531928
N7    N     N_2   0.692914 0.940843 0.041419 -0.525448
N8    N     N_2   0.305227 0.052172 0.958547 -0.530255
N9    N     N_2   0.465954 0.198690 0.458567 -0.535640
N10   N     N_2   0.803781 0.547206 0.541385 -0.532439
N11   N     N_2   0.197912 0.461276 0.458587 -0.536654
N12   N     N_2   0.457742 0.197007 0.541322 -0.532864
N13   N     N_2   0.561663 0.807050 0.458471 -0.528303
N14   N     N_2   0.196310 0.453718 0.541371 -0.532723
N15   N     N_2   0.802130 0.539457 0.458604 -0.537115
N16   N     N_2   0.045452 0.303541 0.041443 -0.538143
O1    O     O_3   1.000000 0.500000 0.750000 -0.440120
O2    O     O_R   0.060740 0.500000 0.337440 -0.545247
O3    O     O_R   0.500000 0.939260 0.662560 -0.544651
O4    O     O_R   0.500000 0.060740 0.337440 -0.545968
O5    O     O_R   0.560740 0.000000 0.162560 -0.544601
O6    O     O_R   0.439260 1.000000 0.837440 -0.544925
O7    O     O_R   0.000000 0.560740 0.162560 -0.543445
O8    O     O_R   0.000000 0.439260 0.837440 -0.544132
O9    O     O_R   0.439260 0.000000 0.162560 -0.544119
O10   O     O_R   0.560740 1.000000 0.837440 -0.545039
O11   O     O_R   0.000000 0.439260 0.162560 -0.545945
O12   O     O_3   0.000000 0.500000 0.250000 -0.439624
O13   O     O_R   0.000000 0.560740 0.837440 -0.544949
O14   O     O_R   0.853850 0.585450 0.727070 -0.544164
O15   O     O_R   0.146150 0.414550 0.272930 -0.542130
O16   O     O_R   0.414550 0.853850 0.727070 -0.541139
O17   O     O_R   0.585450 0.146150 0.272930 -0.544970
O18   O     O_R   0.146150 0.414550 0.727070 -0.544325
O19   O     O_R   0.853850 0.585450 0.272930 -0.542593
O20   O     O_R   0.585450 0.146150 0.727070 -0.541084
O21   O     O_R   0.414550 0.853850 0.272930 -0.542732
O22   O     O_R   0.853850 0.414550 0.272930 -0.544325
O23   O     O_3   0.500000 0.000000 0.750000 -0.439816
O24   O     O_R   0.146150 0.585450 0.727070 -0.541029
O25   O     O_R   0.414550 0.146150 0.272930 -0.541886
O26   O     O_R   0.585450 0.853850 0.727070 -0.544524
O27   O     O_R   0.146150 0.585450 0.272930 -0.544484
O28   O     O_R   0.853850 0.414550 0.727070 -0.541164
O29   O     O_R   0.585450 0.853850 0.272930 -0.543318
O30   O     O_R   0.414550 0.146150 0.727070 -0.544068
O31   O     O_R   0.353850 0.085450 0.227070 -0.543167
O32   O     O_R   0.646150 0.914550 0.772930 -0.545217
O33   O     O_R   0.914550 0.353850 0.227070 -0.543726
O34   O     O_3   0.500000 0.000000 0.250000 -0.439987
O35   O     O_R   0.085450 0.646150 0.772930 -0.541183
O36   O     O_R   0.646150 0.914550 0.227070 -0.543144
O37   O     O_R   0.353850 0.085450 0.772930 -0.545260
O38   O     O_R   0.085450 0.646150 0.227070 -0.541338
O39   O     O_R   0.914550 0.353850 0.772930 -0.540980
O40   O     O_R   0.353850 0.914550 0.772930 -0.541134
O41   O     O_R   0.646150 0.085450 0.227070 -0.541978
O42   O     O_R   0.914550 0.646150 0.772930 -0.545339
O43   O     O_R   0.085450 0.353850 0.227070 -0.542631
O44   O     O_R   0.646150 0.085450 0.772930 -0.541237
O45   O     O_R   0.060740 0.500000 0.662560 -0.544525
O46   O     O_R   0.353850 0.914550 0.227070 -0.541984
O47   O     O_R   0.085450 0.353850 0.772930 -0.544406
O48   O     O_R   0.914550 0.646150 0.227070 -0.543341
O49   O     O_R   0.939260 0.500000 0.337440 -0.545795
O50   O     O_R   0.500000 0.060740 0.662560 -0.544582
O51   O     O_R   0.500000 0.939260 0.337440 -0.544284
O52   O     O_R   0.939260 0.500000 0.662560 -0.544574
Zn1   Zn    Zn3+2 1.000000 0.586740 0.782740 0.923507
Zn2   Zn    Zn3+2 0.500000 0.913260 0.717260 0.924371
Zn3   Zn    Zn3+2 0.913260 0.500000 0.282740 0.922626
Zn4   Zn    Zn3+2 0.086740 0.500000 0.717260 0.924859
Zn5   Zn    Zn3+2 0.500000 0.913260 0.282740 0.924543
Zn6   Zn    Zn3+2 0.500000 0.086740 0.717260 0.924886
Zn7   Zn    Zn3+2 0.086740 0.500000 0.282740 0.924179
Zn8   Zn    Zn3+2 0.913260 0.500000 0.717260 0.924661
Zn9   Zn    Zn3+2 0.000000 0.413260 0.217260 0.923351
Zn10  Zn    Zn3+2 0.413260 0.000000 0.782740 0.923698
Zn11  Zn    Zn3+2 0.586740 1.000000 0.217260 0.924400
Zn12  Zn    Zn3+2 0.000000 0.413260 0.782740 0.924939
Zn13  Zn    Zn3+2 0.000000 0.586740 0.217260 0.926016
Zn14  Zn    Zn3+2 0.586740 0.000000 0.782740 0.923459
Zn15  Zn    Zn3+2 0.413260 1.000000 0.217260 0.925799
Zn16  Zn    Zn3+2 0.500000 0.086740 0.282740 0.922993

loop_
_geom_bond_atom_site_label_1
_geom_bond_atom_site_label_2
_ccdc_geom_bond_type
C185  C207  A    
C75   H102  S    
C27   O24   A    
C151  C184  A    
O45   Zn4   S    
C142  C177  A    
O34   Zn11  S    
C183  C197  A    
C62   H64   S    
O21   Zn5   S    
C63   C98   A    
C74   H100  S    
H48   N8    S    
H34   N5    S    
C131  H51   S    
C151  N11   S    
C121  H9    S    
C23   O44   A    
C12   C203  S    
C192  C214  A    
C36   C142  A    
C60   C153  A    
C117  H136  S    
C100  H74   S    
C7    C68   A    
C50   C90   A    
C183  H111  S    
C91   H86   S    
H43   N7    S    
C53   H55   S    
C134  C169  A    
C138  C174  A    
C159  C161  A    
C91   C100  A    
C144  C160  A    
C130  H47   S    
C36   C71   A    
O30   Zn6   S    
H21   N2    S    
O52   Zn8   S    
C122  N15   S    
O28   Zn8   S    
C79   C161  A    
C16   C202  S    
O40   Zn10  S    
C9    O2    A    
H129  N9    S    
C77   H99   S    
C34   C143  A    
C53   C159  A    
C120  N13   S    
C118  H141  S    
O46   Zn15  S    
C160  C163  A    
C115  N1    S    
C44   H2    S    
C17   O14   A    
C116  N9    S    
C107  C212  A    
C92   H83   S    
C94   C97   A    
C132  C137  A    
C20   C163  S    
C105  C210  A    
C8    O52   A    
C189  H117  S    
C127  H33   S    
H17   N16   S    
C136  C171  A    
C117  N10   S    
C37   H68   S    
C72   C84   A    
C81   H94   S    
C28   O31   A    
C28   C170  S    
C115  H128  S    
C140  N10   S    
C33   O30   A    
C41   H112  S    
C153  C168  A    
C126  H28   S    
C186  C199  A    
C120  H6    S    
O48   Zn13  S    
C62   C150  A    
C45   C81   A    
C130  H44   S    
C49   H46   S    
C131  H49   S    
C129  N6    S    
C194  H122  S    
C5    C46   A    
C134  C135  A    
C121  H11   S    
C186  C208  A    
C187  C200  A    
C4    C188  A    
C149  C155  A    
O15   Zn7   S    
C41   C76   A    
C113  C165  A    
O11   Zn9   S    
C150  C170  A    
C21   O18   A    
C16   O13   A    
C127  H32   S    
C66   C146  A    
C130  H45   S    
C180  C198  A    
C12   O9    A    
C5    C189  A    
C123  H20   S    
O1    Zn4   S    
C60   C95   A    
C64   H66   S    
C45   C132  A    
C173  N13   S    
C12   O5    A    
C73   C83   A    
C125  H22   S    
C158  C165  A    
C102  H75   S    
C52   C160  A    
C4    C109  A    
C118  H139  S    
O5    Zn11  S    
C97   H80   S    
C87   H87   S    
C6    C111  A    
O19   Zn3   S    
O8    Zn12  S    
C27   C178  S    
C119  H143  S    
C56   C156  A    
C47   C124  A    
C34   H1    S    
C67   C103  A    
C18   O15   A    
C69   C144  A    
C122  H15   S    
C16   O8    A    
C1    C173  A    
O50   Zn6   S    
C31   O28   A    
C49   C84   A    
C129  H41   S    
C145  C159  A    
C39   C74   A    
C5    C110  A    
C123  H18   S    
C25   O21   A    
C135  C170  A    
C128  N5    S    
C82   H95   S    
C64   C99   A    
C79   C143  A    
C187  C209  A    
C115  H126  S    
C24   C57   A    
C14   C204  S    
C67   C145  A    
C128  H38   S    
C107  C108  A    
C113  C139  A    
C21   O47   A    
C89   H85   S    
O35   Zn1   S    
C39   C138  A    
C64   C148  A    
C116  H131  S    
C117  H137  S    
C3    C24   A    
H125  N1    S    
C84   H93   S    
C15   C201  S    
C193  C215  A    
O1    Zn8   S    
O2    Zn7   S    
C32   C175  S    
C58   H60   S    
C17   O42   A    
O25   Zn16  S    
C109  C214  A    
C133  C168  A    
C185  H113  S    
C26   O22   A    
O34   Zn16  S    
C98   H76   S    
C11   O51   A    
C182  C213  A    
C62   C97   A    
C9    O49   A    
C13   N3    S    
O29   Zn5   S    
C29   C171  S    
C157  C164  A    
C30   C172  S    
C28   O25   A    
C70   H105  S    
C78   H96   S    
O9    Zn15  S    
O18   Zn4   S    
C183  C205  A    
O6    Zn10  S    
C65   C147  A    
C181  C199  A    
C10   C197  S    
C126  H27   S    
O3    Zn2   S    
C26   C177  S    
C104  H73   S    
C46   C206  A    
C55   H58   S    
C32   O29   A    
C108  C213  A    
C112  C207  A    
C3    C114  A    
C143  C178  A    
H26   N3    S    
C146  C158  A    
C189  C202  A    
C35   N5    S    
C48   C83   A    
C11   C198  S    
O16   Zn2   S    
C179  H107  S    
C126  N3    S    
C206  C214  A    
O13   Zn1   S    
C83   H92   S    
C106  C211  A    
O26   Zn2   S    
C112  N9    S    
C190  H118  S    
C140  C195  A    
C51   C79   A    
C117  H135  S    
H142  N12   S    
O12   Zn7   S    
C76   H98   S    
C152  C153  A    
C186  H114  S    
C42   C77   A    
O34   Zn5   S    
C191  H119  S    
C19   O16   A    
C92   C99   A    
C126  H29   S    
C13   C68   A    
C147  C157  A    
C2    C35   A    
C18   O43   A    
C132  C167  A    
C77   C78   A    
C43   C78   A    
C179  C210  A    
C37   C141  A    
C181  C212  A    
C7    C114  A    
C124  C138  A    
C58   C93   A    
C67   H70   S    
O44   Zn14  S    
C194  C216  A    
C116  H132  S    
C149  C174  A    
C19   C161  S    
C30   O38   A    
C33   C176  S    
C137  C172  A    
C55   C91   A    
C50   C85   A    
C195  N15   S    
C59   C154  A    
C42   H123  S    
C88   H88   S    
C145  C178  A    
C141  C176  A    
O20   Zn6   S    
C38   C139  A    
C59   C94   A    
C25   O46   A    
C34   C70   A    
O17   Zn16  S    
C4    C35   A    
C115  H127  S    
C2    C215  A    
C21   C164  S    
C60   H62   S    
C29   O32   A    
C61   H63   S    
C6    C57   A    
C7    C191  A    
C173  C211  A    
C74   C82   A    
C20   O41   A    
C140  C208  A    
C51   C86   A    
H8    N14   S    
O36   Zn11  S    
C52   C87   A    
C50   H52   S    
C61   C96   A    
C116  H130  S    
O23   Zn10  S    
C76   C80   A    
C44   C80   A    
C39   H90   S    
C182  C200  A    
C111  C216  A    
O32   Zn14  S    
C106  C207  A    
O4    Zn16  S    
C17   C168  S    
C31   O39   A    
C193  C202  A    
C154  C169  A    
C1    N1    S    
C42   C135  A    
O12   Zn3   S    
C43   C134  A    
C80   H97   S    
O12   Zn9   S    
O47   Zn12  S    
C180  H108  S    
C40   C137  A    
O24   Zn4   S    
O10   Zn14  S    
C15   O11   A    
C192  H120  S    
C107  C208  A    
O22   Zn3   S    
O1    Zn12  S    
C123  H19   S    
C19   O40   A    
C86   H91   S    
C69   H71   S    
C59   H61   S    
C95   H82   S    
C127  H31   S    
O37   Zn10  S    
C196  H124  S    
O38   Zn13  S    
C36   H57   S    
C43   H134  S    
C68   N8    S    
C18   C169  S    
C118  H140  S    
C147  C176  A    
C101  C164  A    
C65   C100  A    
C99   H77   S    
C105  C205  A    
C125  N2    S    
C122  H16   S    
C105  C106  A    
C193  H121  S    
C3    C196  A    
C40   C75   A    
C90   C163  A    
C22   O48   A    
C48   H35   S    
C110  C215  A    
C15   O7    A    
C109  C110  A    
H138  N11   S    
O7    Zn13  S    
C54   C89   A    
C111  C114  A    
H133  N10   S    
C96   H78   S    
C103  H72   S    
C195  C213  A    
C121  H10   S    
C87   C104  A    
O27   Zn7   S    
C55   C157  A    
C144  C177  A    
C37   C72   A    
C29   O26   A    
H12   N15   S    
O51   Zn5   S    
C148  C156  A    
O14   Zn8   S    
C184  N14   S    
C22   O19   A    
C2    N2    S    
C48   C113  A    
C20   O17   A    
C120  H5    S    
C89   C102  A    
O43   Zn9   S    
C119  N12   S    
C66   C102  A    
C139  C175  A    
C95   C96   A    
C108  C209  A    
C131  H50   S    
C25   C167  S    
O31   Zn15  S    
C128  H36   S    
C13   C216  A    
C46   N6    S    
C190  C203  A    
O23   Zn6   S    
C155  C166  A    
C188  C201  A    
C9    C200  S    
C14   O10   A    
C47   C82   A    
C63   C149  A    
C71   C85   A    
C22   C165  S    
C101  C141  A    
C11   O4    A    
C133  C136  A    
C129  H40   S    
C93   H84   S    
C125  H25   S    
O39   Zn12  S    
C1    C205  A    
C125  H23   S    
C181  H109  S    
C94   H81   S    
C146  C175  A    
C119  H3    S    
C57   N7    S    
C45   H13   S    
C119  H144  S    
C52   H54   S    
C184  C212  A    
C122  H14   S    
O1    Zn1   S    
C8    O45   A    
C162  N12   S    
H39   N6    S    
C129  H42   S    
C152  C171  A    
C75   C81   A    
C26   O33   A    
O42   Zn1   S    
C179  C197  A    
C156  C167  A    
O41   Zn11  S    
C180  C211  A    
H30   N4    S    
C54   C158  A    
C23   C166  S    
C196  C204  A    
C72   H103  S    
C54   H56   S    
C6    C190  A    
C56   H59   S    
C128  H37   S    
O49   Zn3   S    
C30   O27   A    
C65   H67   S    
C90   C142  A    
C118  N11   S    
C124  C166  A    
O33   Zn9   S    
C120  H7    S    
C51   H53   S    
C150  C154  A    
C38   H79   S    
C185  C198  A    
O23   Zn14  S    
C130  N7    S    
C73   H104  S    
C162  C210  A    
C70   C86   A    
C88   C103  A    
C63   H65   S    
C85   H89   S    
C69   C104  A    
C44   C133  A    
C71   H106  S    
C151  C209  A    
C32   O36   A    
C188  H116  S    
C66   H69   S    
C14   O6    A    
O12   Zn13  S    
C206  N16   S    
H4    N13   S    
C24   N4    S    
C112  C162  A    
O34   Zn15  S    
C182  H110  S    
C131  N8    S    
C127  N4    S    
C194  C203  A    
C121  N14   S    
C148  C172  A    
C33   O37   A    
C53   C88   A    
C192  C201  A    
C27   O35   A    
C123  N16   S    
C61   C152  A    
C58   C155  A    
C47   H24   S    
C187  H115  S    
C23   O20   A    
C56   C92   A    
C10   O3    A    
C191  C204  A    
C10   O50   A    
C8    C199  S    
O23   Zn2   S    
C93   C98   A    
C31   C174  S    
C41   C136  A    
C40   H101  S    
C49   C101  A    
C38   C73   A    
