data_mof_unit_56814.cif
_audit_creation_date              2012-12-11T15:14:52-0500
_audit_creation_method            fapswitch 2.2
_symmetry_space_group_name_H-M    P1
_symmetry_Int_Tables_number       1
_space_group_crystal_system       triclinic
_cell_length_a                    11.05554
_cell_length_b                    11.023921
_cell_length_c                    18.435734
_cell_angle_alpha                 90.574487
_cell_angle_beta                  89.783629
_cell_angle_gamma                 120.427939
_cell_volume                      1937.29532266

loop_
_atom_site_label
_atom_site_type_symbol
_atom_type_description
_atom_site_fract_x
_atom_site_fract_y
_atom_site_fract_z
_atom_type_partial_charge
C1    C     C_R   0.542606 0.424957 0.636501 0.552807
C2    C     C_R   0.425737 0.543095 0.363580 0.549350
C3    C     C_R   0.460377 0.889078 0.137179 0.535056
C4    C     C_R   0.063268 0.543724 0.355306 0.549668
C5    C     C_3   0.462835 0.082723 0.470040 -0.133540
C6    C     C_3   0.617206 0.530054 0.031918 -0.134138
C7    C     C_3   0.880144 0.419708 0.461893 -0.150049
C8    C     C_3   0.536818 0.096843 0.040963 -0.122227
C9    C     C_3   0.610435 0.562989 0.461615 -0.114346
C10   C     C_3   0.943941 0.383081 0.038520 -0.116314
C11   C     C_3   0.022311 0.412330 0.965413 -0.111885
C12   C     C_R   0.879119 0.455523 0.862946 0.555254
C13   C     C_3   0.581881 0.612055 0.535217 -0.114683
C14   C     C_3   0.418322 0.040841 0.983506 -0.123786
C15   C     C_3   0.949453 0.368625 0.517265 -0.122675
C16   C     C_3   0.595155 0.620505 0.976156 -0.119189
C17   C     C_3   0.375334 0.966963 0.525440 -0.118411
C18   C     C_3   0.595992 0.130271 0.516696 -0.122887
C19   C     C_3   0.527982 0.397138 0.984454 -0.123248
C20   C     C_3   0.902265 0.539157 0.514741 -0.123786
C21   C     C_3   0.632452 0.078608 0.985951 -0.119364
C22   C     C_3   0.551540 0.413592 0.491728 -0.154811
C23   C     C_R   0.539480 0.057165 0.646223 0.534942
C24   C     C_3   0.853961 0.441381 0.007900 -0.153624
C25   C     C_3   0.131209 0.560582 0.992720 -0.158309
C26   C     C_3   0.433598 0.571618 0.508852 -0.156550
C27   C     C_3   0.363028 0.889628 0.009347 -0.149020
C28   C     C_3   0.094570 0.467748 0.484438 -0.133410
C29   C     C_3   0.459354 0.589927 0.015557 -0.125541
C30   C     C_3   0.409055 0.865350 0.484134 -0.126576
C31   C     C_3   0.508287 0.013065 0.570631 0.056496
C32   C     C_3   0.505326 0.488306 0.930076 0.057310
C33   C     C_3   0.973060 0.489217 0.568666 0.062372
C34   C     C_R   0.518368 0.459780 0.854300 0.544423
C35   C     C_3   0.513056 0.019879 0.929988 0.063484
C36   C     C_3   0.521521 0.462715 0.563858 0.060425
C37   C     C_3   0.934397 0.473008 0.936365 0.061678
C38   C     C_3   0.051430 0.531468 0.064346 0.061019
C39   C     C_3   0.462561 0.521486 0.436550 0.060458
C40   C     C_3   0.481986 0.945700 0.064711 0.062241
C41   C     C_3   0.023982 0.518255 0.430827 0.062243
C42   C     C_3   0.482518 0.499419 0.069732 0.056106
C43   C     C_3   0.497674 0.982545 0.430507 0.055057
C44   C     C_3   0.542321 0.912686 0.530613 -0.124875
C45   C     C_R   0.934965 0.478909 0.644222 0.548583
C46   C     C_3   0.370447 0.457358 0.968288 -0.125329
C47   C     C_3   0.116690 0.587396 0.537460 -0.147910
C48   C     C_3   0.458652 0.870204 0.954416 -0.143919
C49   C     C_3   0.374154 0.422220 0.538346 -0.111854
C50   C     C_3   0.042521 0.620238 0.962928 -0.113676
C51   C     C_3   0.962385 0.590188 0.034818 -0.110474
C52   C     C_3   0.403371 0.372450 0.465822 -0.109972
C53   C     C_3   0.578003 0.927664 0.011030 -0.121418
C54   C     C_3   0.047191 0.638282 0.482643 -0.110321
C55   C     C_3   0.392863 0.367074 0.023563 -0.106167
C56   C     C_R   0.544371 0.065841 0.855796 0.540543
C57   C     C_3   0.630143 0.029104 0.476003 -0.107522
C58   C     C_R   0.457851 0.517198 0.145471 0.543902
C59   C     C_R   0.482320 0.940650 0.354539 0.544128
C60   C     C_R   0.113238 0.571772 0.136610 0.537064
Cr1   Cr    Cr6+3 0.769930 0.543130 0.750000 1.008106
Cr2   Cr    Cr6+3 0.773200 0.230070 0.750000 1.006378
Cr3   Cr    Cr6+3 0.456870 0.226800 0.750000 1.007804
Cr4   Cr    Cr6+3 0.543130 0.769930 0.250000 1.010118
Cr5   Cr    Cr6+3 0.230070 0.773200 0.250000 1.006763
Cr6   Cr    Cr6+3 0.226800 0.456870 0.250000 1.009250
H1    H     H_    0.574911 0.848994 0.561356 0.114124
H2    H     H_    0.085476 0.748795 0.466835 0.126992
H3    H     H_    0.311984 0.263263 0.044793 0.122289
H4    H     H_    0.734505 0.056655 0.453994 0.121782
H5    H     H_    0.671339 0.234896 0.539240 0.111059
H6    H     H_    0.551382 0.317103 0.963574 0.106571
H7    H     H_    0.827725 0.572920 0.531554 0.124772
H8    H     H_    0.743223 0.152903 0.972157 0.123208
H9    H     H_    0.608463 0.359366 0.480088 0.099512
H10   H     H_    0.742091 0.380766 0.018837 0.098506
H11   H     H_    0.242878 0.610939 0.981873 0.100520
H12   H     H_    0.274536 0.427820 0.936922 0.113156
H13   H     H_    0.380335 0.628992 0.522101 0.100283
H14   H     H_    0.253987 0.823969 0.027514 0.118997
H15   H     H_    0.167020 0.432218 0.466523 0.122345
H16   H     H_    0.430541 0.664224 0.038518 0.097657
H17   H     H_    0.332778 0.761836 0.460718 0.110751
H18   H     H_    0.428804 0.144396 0.438413 0.111082
H19   H     H_    0.710593 0.560334 0.065484 0.111728
H20   H     H_    0.789359 0.353258 0.426125 0.107084
H21   H     H_    0.566373 0.185543 0.079460 0.116425
H22   H     H_    0.707386 0.621421 0.428810 0.128193
H23   H     H_    0.207393 0.653721 0.573301 0.106720
H24   H     H_    0.905060 0.286499 0.071389 0.128567
H25   H     H_    0.040296 0.334689 0.935944 0.120101
H26   H     H_    0.660957 0.707387 0.564850 0.118582
H27   H     H_    0.349870 0.083895 0.969636 0.120435
H28   H     H_    0.911961 0.258869 0.534164 0.123361
H29   H     H_    0.676633 0.722689 0.953680 0.115071
H30   H     H_    0.271614 0.940077 0.548071 0.115449
H31   H     H_    0.429138 0.781461 0.915914 0.112390
H32   H     H_    0.275279 0.364112 0.569755 0.135171
H33   H     H_    0.084097 0.719255 0.931816 0.137036
H34   H     H_    0.943426 0.668830 0.062487 0.127805
H35   H     H_    0.325087 0.273826 0.438157 0.127169
H36   H     H_    0.648319 0.887230 0.025399 0.121621
O1    O     O_R   0.913270 0.574260 0.668550 -0.523501
O2    O     O_R   0.574260 0.913270 0.331450 -0.518434
O3    O     O_R   0.086730 0.660990 0.168550 -0.523208
O4    O     O_R   0.339010 0.425740 0.331450 -0.523023
O5    O     O_R   0.640160 0.530400 0.673300 -0.510401
O6    O     O_R   0.890240 0.359840 0.826700 -0.507134
O7    O     O_R   0.469600 0.109760 0.673300 -0.514780
O8    O     O_R   0.640160 0.530400 0.826700 -0.513495
O9    O     O_R   0.890240 0.359840 0.673300 -0.505552
O10   O     O_R   0.469600 0.109760 0.826700 -0.512003
O11   O     O_R   0.530400 0.640160 0.173300 -0.514914
O12   O     O_R   0.660990 0.086730 0.831450 -0.525828
O13   O     O_R   0.359840 0.890240 0.326700 -0.504210
O14   O     O_R   0.109760 0.469600 0.173300 -0.498174
O15   O     O_R   0.530400 0.640160 0.326700 -0.497924
O16   O     O_R   0.359840 0.890240 0.173300 -0.510943
O17   O     O_R   0.109760 0.469600 0.326700 -0.516723
O18   O     O_3   0.666667 0.333333 0.750000 -0.296779
O19   O     O_3   0.333333 0.666667 0.250000 -0.306134
O20   O     O_R   0.425740 0.339010 0.668550 -0.514659
O21   O     O_R   0.913270 0.574260 0.831450 -0.516092
O22   O     O_R   0.660990 0.086730 0.668550 -0.518329
O23   O     O_R   0.425740 0.339010 0.831450 -0.516159
O24   O     O_R   0.574260 0.913270 0.168550 -0.513792
O25   O     O_R   0.086730 0.660990 0.331450 -0.517328
O26   O     O_R   0.339010 0.425740 0.168550 -0.518215

loop_
_geom_bond_atom_site_label_1
_geom_bond_atom_site_label_2
_ccdc_geom_bond_type
C27   C48   S    
C21   C53   S    
C28   C47   S    
C58   O26   A    
C13   C26   S    
C37   C50   S    
C29   C42   S    
C33   C45   S    
C60   O3    A    
C42   C58   S    
C15   H28   S    
Cr2   O22   S    
C3    O24   A    
C48   H31   S    
C50   H33   S    
C6    H19   S    
Cr6   O14   S    
C25   H11   S    
C59   O2    A    
Cr5   O25   S    
C22   C52   S    
Cr1   O1    S    
Cr2   O12   S    
C9    H22   S    
C42   C55   S    
C9    C22   S    
C7    H20   S    
Cr2   O6    S    
C4    C41   S    
C35   C48   S    
Cr4   O19   S    
C28   C41   S    
C9    C39   S    
C30   H17   S    
C11   C37   S    
C9    C13   S    
C1    O20   A    
C45   O1    A    
C49   H32   S    
C25   C50   S    
C2    C39   S    
Cr2   O9    S    
C46   C55   S    
C58   O11   A    
Cr5   O16   S    
C4    O17   A    
Cr5   O19   S    
C14   C27   S    
C53   H36   S    
C14   H27   S    
Cr2   O18   S    
C43   C59   S    
C24   C51   S    
C7    C15   S    
C39   C52   S    
C5    C43   S    
Cr1   O18   S    
C17   C30   S    
Cr5   O13   S    
C30   C44   S    
C19   H6    S    
C22   H9    S    
Cr6   O4    S    
Cr1   O8    S    
Cr5   O3    S    
C2    O15   A    
C50   C51   S    
C48   C53   S    
C23   O7    A    
C52   H35   S    
C31   C44   S    
C13   C36   S    
C20   C54   S    
C27   H14   S    
C26   C49   S    
C14   C35   S    
C12   O6    A    
C5    H18   S    
C24   H10   S    
C5    C18   S    
C10   C24   S    
C16   C29   S    
C21   H8    S    
C2    O4    A    
Cr4   O15   S    
C32   C34   S    
Cr3   O7    S    
C6    C19   S    
C3    O16   A    
C25   C38   S    
C26   C39   S    
C18   C57   S    
C44   C57   S    
C49   C52   S    
C19   C32   S    
C24   C37   S    
Cr6   O19   S    
C17   H30   S    
Cr3   O23   S    
C5    C17   S    
C7    C20   S    
C55   H3    S    
C1    O5    A    
C47   C54   S    
C38   C60   S    
C20   C33   S    
C56   O12   A    
C3    C40   S    
C47   H23   S    
Cr4   O24   S    
Cr6   O17   S    
C13   H26   S    
C6    C42   S    
C18   H5    S    
C33   C47   S    
C30   C43   S    
C60   O14   A    
Cr3   O20   S    
C46   H12   S    
C19   C55   S    
C51   H34   S    
Cr4   O2    S    
C16   H29   S    
C8    C14   S    
Cr4   O11   S    
C4    O25   A    
C35   C56   S    
Cr3   O10   S    
C32   C46   S    
C15   C33   S    
C8    C21   S    
C45   O9    A    
C23   O22   A    
C38   C51   S    
C16   C32   S    
C22   C36   S    
C26   H13   S    
Cr1   O21   S    
C29   C46   S    
C10   C38   S    
C8    H21   S    
C21   C35   S    
C28   H15   S    
C29   H16   S    
C27   C40   S    
Cr3   O18   S    
C15   C28   S    
C12   O21   A    
C34   O23   A    
C17   C31   S    
Cr6   O26   S    
C20   H7    S    
C7    C41   S    
Cr1   O5    S    
C41   C54   S    
C10   C11   S    
C43   C57   S    
C57   H4    S    
C6    C16   S    
C11   H25   S    
C54   H2    S    
C10   H24   S    
C59   O13   A    
C40   C53   S    
C12   C37   S    
C11   C25   S    
C44   H1    S    
C18   C31   S    
C8    C40   S    
C34   O8    A    
C56   O10   A    
C36   C49   S    
C1    C36   S    
C23   C31   S    
