data_mof_unit_46460.cif
_audit_creation_date              2012-12-10T16:41:56-0500
_audit_creation_method            fapswitch 2.2
_symmetry_space_group_name_H-M    P1
_symmetry_Int_Tables_number       1
_space_group_crystal_system       triclinic
_cell_length_a                    10.920014
_cell_length_b                    8.724309
_cell_length_c                    7.430752
_cell_angle_alpha                 102.178348
_cell_angle_beta                  94.415743
_cell_angle_gamma                 91.84169
_cell_volume                      689.088529755

loop_
_atom_site_label
_atom_site_type_symbol
_atom_type_description
_atom_site_fract_x
_atom_site_fract_y
_atom_site_fract_z
_atom_type_partial_charge
C1    C     C_R   0.493586 0.200254 0.454454 0.827450
C2    C     C_2   0.528114 0.965047 0.563034 0.142725
C3    C     C_R   0.265230 0.495216 0.501331 0.837644
C4    C     C_R   0.507010 0.799511 0.544847 0.826338
C5    C     C_R   0.734916 0.510237 0.500152 0.696267
C6    C     C_2   0.924029 0.460943 0.356831 -0.259440
C7    C     C_2   0.868285 0.535988 0.502594 0.298703
C8    C     C_2   0.057542 0.472653 0.351387 -0.112698
C9    C     C_2   0.133147 0.480672 0.504554 -0.244581
C10   C     C_2   0.476733 0.033489 0.431943 0.113615
Cu1   Cu    Cu3+1 0.513740 0.517380 0.684380 0.941324
Cu2   Cu    Cu3+1 0.486260 0.482620 0.315620 0.951576
H1    H     H_    0.871328 0.385983 0.239041 0.129529
H2    H     H_    0.093262 0.467950 0.217963 0.157773
H3    H     H_    0.097780 0.472291 0.634846 0.171359
H4    H     H_    0.402165 0.382167 0.949074 0.227390
H5    H     H_    0.599208 0.615849 0.050528 0.208107
N1    N     N_2   0.465540 0.456420 0.038510 -0.211754
N2    N     N_2   0.534460 0.543580 0.961490 -0.224797
O1    O     O_R   0.508930 0.286130 0.619780 -0.539684
O2    O     O_R   0.485720 0.256780 0.308360 -0.600135
O3    O     O_R   0.333540 0.514670 0.655670 -0.606209
O4    O     O_R   0.310330 0.485320 0.344250 -0.574612
O5    O     O_R   0.514280 0.743220 0.691640 -0.590326
O6    O     O_R   0.491070 0.713870 0.380220 -0.577341
O7    O     O_R   0.689670 0.514680 0.655750 -0.605685
O8    O     O_R   0.666460 0.485330 0.344330 -0.599662
O9    O     O_3   0.934802 0.652815 0.636146 -0.581830
C11   C     C_3   0.902404 0.655434 0.817487 0.066085
H6    H     H_    0.889395 0.534666 0.842907 0.149278
H7    H     H_    0.818696 0.723100 0.843879 0.174268
C12   C     C_3   0.004285 0.739024 0.956213 -0.834995
H8    H     H_    0.021265 0.859778 0.934699 0.255203
H9    H     H_    0.977430 0.746063 0.098815 0.219856
H10   H     H_    0.088576 0.671913 0.938856 0.246904
O10   O     O_3   0.383491 0.954812 0.304903 -0.595230
C13   C     C_3   0.419988 0.929875 0.123019 0.116312
H11   H     H_    0.504954 0.863141 0.109541 0.145878
H12   H     H_    0.434999 0.040615 0.075939 0.181015
C14   C     C_3   0.315931 0.838526 0.994537 -0.701176
H13   H     H_    0.230449 0.901519 0.019999 0.232333
H14   H     H_    0.332824 0.831713 0.848321 0.222745
H15   H     H_    0.304797 0.718462 0.020888 0.251470
O11   O     O_3   0.603220 0.048208 0.713591 -0.580076
C15   C     C_3   0.727000 0.034524 0.672421 0.075773
H16   H     H_    0.743786 0.085332 0.550379 0.115710
H17   H     H_    0.752158 0.909505 0.644539 0.141077
C16   C     C_3   0.810032 0.124643 0.837026 -0.760371
H18   H     H_    0.796823 0.075156 0.960597 0.234193
H19   H     H_    0.907725 0.115436 0.806011 0.196457
H20   H     H_    0.787942 0.250435 0.867033 0.246243

loop_
_geom_bond_atom_site_label_1
_geom_bond_atom_site_label_2
_ccdc_geom_bond_type
O10   C13   S    
C2    C4    S    
Cu1   Cu2   S    
C1    O2    A    
C6    C7    D    
C3    C9    S    
C11   C12   S    
Cu1   O3    S    
C3    O4    A    
Cu2   O6    S    
C12   H8    S    
O9    C11   S    
C14   H14   S    
C4    O6    A    
C9    H3    S    
C11   H7    S    
H4    N1    S    
C15   H16   S    
C6    H1    S    
Cu2   O4    S    
Cu1   N2    S    
C11   H6    S    
C16   H19   S    
C16   H18   S    
H5    N2    S    
C13   H11   S    
C10   O10   S    
C13   C14   S    
C15   H17   S    
C4    O5    A    
C8    H2    S    
Cu1   O1    S    
C16   H20   S    
C1    C10   S    
Cu2   O8    S    
C5    O7    A    
C2    C10   D    
C12   H10   S    
Cu1   O5    S    
O11   C15   S    
C13   H12   S    
N1    N2    D    
C15   C16   S    
Cu2   N1    S    
C5    C7    S    
C14   H13   S    
C3    O3    A    
C6    C8    S    
Cu1   O7    S    
C5    O8    A    
Cu2   O2    S    
C14   H15   S    
C7    O9    S    
C2    O11   S    
C8    C9    D    
C1    O1    A    
C12   H9    S    
