data_mof_unit_29037.cif
_audit_creation_date              2012-12-10T18:59:15-0500
_audit_creation_method            fapswitch 2.2
_symmetry_space_group_name_H-M    P1
_symmetry_Int_Tables_number       1
_space_group_crystal_system       triclinic
_cell_length_a                    10.763031
_cell_length_b                    10.847567
_cell_length_c                    9.56951
_cell_angle_alpha                 90.211451
_cell_angle_beta                  90.328675
_cell_angle_gamma                 90.613343
_cell_volume                      1117.17586761

loop_
_atom_site_label
_atom_site_type_symbol
_atom_type_description
_atom_site_fract_x
_atom_site_fract_y
_atom_site_fract_z
_atom_type_partial_charge
C1    C     C_R   0.501298 0.262770 0.499808 0.836272
C2    C     C_R   0.067189 0.609596 0.565720 0.098560
C3    C     C_R   0.129023 0.511121 0.499379 -0.100561
C4    C     C_R   0.062683 0.417639 0.430663 -0.170900
C5    C     C_R   0.934527 0.417540 0.431076 -0.191164
C6    C     C_R   0.871132 0.510942 0.500217 -0.098719
C7    C     C_R   0.499715 0.062261 0.621132 0.091861
C8    C     C_R   0.505880 0.130126 0.498543 -0.115802
C9    C     C_R   0.516567 0.064307 0.371723 -0.161783
C10   C     C_R   0.516387 0.935039 0.371747 -0.197206
C11   C     C_R   0.505341 0.869811 0.498599 -0.088050
C12   C     C_R   0.262688 0.503214 0.499775 0.798528
C13   C     C_R   0.498765 0.938119 0.620899 0.056319
C14   C     C_3   0.479576 0.928493 0.774440 -0.482731
C15   C     C_3   0.480641 0.070639 0.775194 0.113298
C16   C     C_R   0.564532 0.588337 0.074498 0.196385
C17   C     C_R   0.425260 0.421269 0.071552 0.346498
C18   C     C_R   0.426138 0.421517 0.923465 -0.038933
C19   C     C_R   0.564217 0.588610 0.927408 0.224099
C20   C     C_3   0.700444 0.614729 0.922794 -0.465481
C21   C     C_3   0.700780 0.613669 0.081399 -0.459954
C22   C     C_R   0.501142 0.737198 0.499998 0.773584
C23   C     C_R   0.737342 0.503314 0.500217 0.788757
C24   C     C_R   0.132590 0.709486 0.628183 -0.175630
C25   C     C_R   0.068837 0.806825 0.689469 -0.122416
C26   C     C_R   0.939535 0.807495 0.687993 -0.120387
C27   C     C_R   0.873231 0.710609 0.625671 -0.198845
C28   C     C_R   0.935848 0.609830 0.565350 0.098259
Cu1   Cu    Cu3+1 0.499990 0.499980 0.640670 0.965705
Cu2   Cu    Cu3+1 0.500010 0.500020 0.359330 0.990433
H1    H     H_    0.110439 0.342796 0.379273 0.187887
H2    H     H_    0.560119 0.885992 0.828352 0.220300
H3    H     H_    0.389842 0.111668 0.803045 0.132846
H4    H     H_    0.368335 0.356592 0.865878 0.163621
H5    H     H_    0.754321 0.537947 0.876673 0.238948
H6    H     H_    0.721163 0.707371 0.879139 0.188581
H7    H     H_    0.754195 0.535676 0.125600 0.230691
H8    H     H_    0.722310 0.705318 0.128489 0.197246
H9    H     H_    0.232961 0.714542 0.628413 0.140646
H10   H     H_    0.120031 0.882779 0.736738 0.137964
H11   H     H_    0.890349 0.883970 0.734083 0.159708
H12   H     H_    0.884351 0.342894 0.379481 0.160681
H13   H     H_    0.523834 0.111859 0.272747 0.210793
H14   H     H_    0.523594 0.886978 0.272750 0.174054
H15   H     H_    0.387414 0.887547 0.800134 0.173679
N1    N     N_R   0.500790 0.500930 0.147930 -0.208331
N2    N     N_R   0.500790 0.500890 0.852020 -0.200709
O1    O     O_R   0.500000 0.319640 0.618810 -0.562138
O2    O     O_R   0.500010 0.319680 0.381230 -0.546773
O3    O     O_R   0.319640 0.499980 0.618820 -0.593851
O4    O     O_R   0.319650 0.500020 0.381230 -0.537562
O5    O     O_R   0.499990 0.680320 0.618770 -0.592278
O6    O     O_R   0.500000 0.680360 0.381190 -0.587021
O7    O     O_R   0.680350 0.499980 0.618770 -0.572064
O8    O     O_R   0.680360 0.500020 0.381180 -0.584168
Br1   Br    Br    0.624193 0.141271 0.871222 -0.524064
Br2   Br    Br    0.314976 0.304294 0.156080 -0.537784
H16   H     H_    0.773032 0.716531 0.623426 0.139100

loop_
_geom_bond_atom_site_label_1
_geom_bond_atom_site_label_2
_ccdc_geom_bond_type
C12   O3    A    
C5    H12   S    
C1    O1    A    
C23   O8    A    
Cu1   Cu2   S    
C22   O6    A    
C1    C8    S    
C18   H4    S    
C9    C10   A    
C11   C22   S    
C19   C20   S    
Cu2   O4    S    
C18   N2    A    
C24   H9    S    
C7    C15   S    
C17   C18   A    
C24   C25   A    
C7    C8    A    
C13   C14   S    
C20   C21   S    
C11   C13   A    
C26   C27   A    
C16   C21   S    
Cu1   N2    S    
C16   C19   A    
C6    C23   S    
Cu2   O2    S    
C15   H3    S    
C2    C3    A    
C14   H15   S    
Cu1   O3    S    
C14   H2    S    
C25   H10   S    
C2    C24   A    
C5    C6    A    
Cu1   O5    S    
Cu2   O6    S    
C19   N2    A    
C9    H13   S    
C4    H1    S    
C10   C11   A    
Cu1   O1    S    
C10   H14   S    
C3    C4    A    
C20   H6    S    
C7    C13   A    
C12   O4    A    
C21   H7    S    
C17   N1    A    
C23   O7    A    
C22   O5    A    
Cu1   O7    S    
C16   N1    A    
C27   C28   A    
C14   C15   S    
C4    C5    A    
C2    C28   A    
C3    C12   S    
C25   C26   A    
C27   H16   S    
C20   H5    S    
C1    O2    A    
Cu2   O8    S    
Cu2   N1    S    
C6    C28   A    
C21   H8    S    
C26   H11   S    
C17   Br2   S    
C8    C9    A    
C15   Br1   S    
