data_mof_unit_62525.cif
_audit_creation_date              2012-10-26T18:22:28-0400
_audit_creation_method            fapswitch 2.2
_symmetry_space_group_name_H-M    P1
_symmetry_Int_Tables_number       1
_space_group_crystal_system       triclinic
_cell_length_a                    27.86222
_cell_length_b                    28.008512
_cell_length_c                    27.92247
_cell_angle_alpha                 109.523405
_cell_angle_beta                  109.481095
_cell_angle_gamma                 109.435863
_cell_volume                      16768.5037185

loop_
_atom_site_label
_atom_site_type_symbol
_atom_type_description
_atom_site_fract_x
_atom_site_fract_y
_atom_site_fract_z
_atom_type_partial_charge
C1    C     C_R   0.420606 0.420539 0.500178 0.550126
C2    C     C_R   0.204519 0.207948 0.500012 0.013676
C3    C     C_R   0.637488 0.372913 0.640685 0.005993
C4    C     C_R   0.582163 0.371115 0.623013 -0.127810
C5    C     C_R   0.528581 0.318681 0.590158 -0.102447
C6    C     C_R   0.527084 0.265460 0.570985 -0.092950
C7    C     C_R   0.579193 0.264585 0.583646 -0.125401
C8    C     C_R   0.632844 0.316862 0.616532 -0.079518
C9    C     C_R   0.243395 0.391062 0.236729 0.088155
C10   C     C_R   0.283281 0.374467 0.227431 -0.054950
C11   C     C_R   0.279664 0.322530 0.224750 -0.097312
C12   C     C_R   0.236276 0.286921 0.231293 -0.090196
C13   C     C_R   0.248503 0.199157 0.492380 -0.170229
C14   C     C_R   0.196451 0.303212 0.240566 -0.092216
C15   C     C_R   0.199977 0.355175 0.243374 -0.055038
C16   C     C_2   0.767614 0.757882 0.609880 0.247466
C17   C     C_2   0.734677 0.741828 0.386534 0.229724
C18   C     C_R   0.641752 0.653699 0.389869 0.088480
C19   C     C_R   0.598341 0.665324 0.361907 -0.059061
C20   C     C_R   0.545124 0.619705 0.311364 -0.097565
C21   C     C_R   0.534932 0.562337 0.288586 -0.093361
C22   C     C_R   0.577951 0.550492 0.316295 -0.096605
C23   C     C_R   0.631231 0.595976 0.366806 -0.049512
C24   C     C_R   0.579614 0.500022 0.579722 0.566733
C25   C     C_R   0.105196 0.333489 0.863427 0.037287
C26   C     C_R   0.105535 0.337622 0.915278 -0.093242
C27   C     C_R   0.155476 0.380486 0.970212 -0.101357
C28   C     C_R   0.205765 0.418662 0.973750 -0.094262
C29   C     C_R   0.206134 0.414253 0.922405 -0.106220
C30   C     C_R   0.155910 0.372203 0.867478 -0.079839
C31   C     C_R   0.106202 0.244206 0.772046 0.036246
C32   C     C_R   0.126643 0.223562 0.809534 -0.077053
C33   C     C_R   0.176498 0.217938 0.817775 -0.102881
C34   C     C_R   0.206393 0.233304 0.789054 -0.096478
C35   C     C_R   0.293350 0.241579 0.492963 0.025001
C36   C     C_R   0.186583 0.254464 0.752158 -0.106610
C37   C     C_R   0.136631 0.259877 0.743584 -0.099191
C38   C     C_R   0.892655 0.164039 0.637473 0.037214
C39   C     C_R   0.845361 0.123000 0.635822 -0.079177
C40   C     C_R   0.793615 0.080699 0.582319 -0.106580
C41   C     C_R   0.788773 0.078992 0.530197 -0.098983
C42   C     C_R   0.835653 0.119758 0.531537 -0.102804
C43   C     C_R   0.887442 0.162243 0.584982 -0.092268
C44   C     C_R   0.892529 0.255932 0.725255 0.037971
C45   C     C_R   0.869908 0.270008 0.682202 -0.090838
C46   C     C_R   0.293765 0.294506 0.501042 0.008473
C47   C     C_R   0.817246 0.270886 0.668314 -0.089827
C48   C     C_R   0.786993 0.258022 0.697461 -0.089478
C49   C     C_R   0.809442 0.244323 0.740614 -0.122350
C50   C     C_R   0.862050 0.243281 0.754561 -0.096392
C51   C     C_R   0.980413 0.752705 0.143207 0.032456
C52   C     C_R   0.017439 0.748943 0.119525 -0.092247
C53   C     C_R   0.005493 0.749245 0.066852 -0.082972
C54   C     C_R   0.957504 0.754970 0.038135 -0.060922
C55   C     C_R   0.921456 0.760530 0.062114 -0.091161
C56   C     C_R   0.932699 0.759280 0.114275 -0.085142
C57   C     C_R   0.248903 0.303861 0.508092 -0.029663
C58   C     C_2   0.685376 0.562256 0.783030 0.174925
C59   C     C_2   0.013559 0.747621 0.358203 0.208112
C60   C     C_2   0.017807 0.658516 0.268540 0.281849
C61   C     C_2   0.636030 0.457611 0.741335 -0.030855
C62   C     C_R   0.721177 0.480389 0.846083 0.065502
C63   C     C_R   0.744763 0.451549 0.871717 -0.027357
C64   C     C_R   0.722640 0.427231 0.901230 -0.094627
C65   C     C_R   0.678540 0.433840 0.909914 -0.102622
C66   C     C_R   0.658072 0.466658 0.890958 -0.105814
C67   C     C_R   0.680169 0.490873 0.861456 -0.076577
C68   C     C_1   0.160885 0.162385 0.500463 0.007965
C69   C     C_2   0.785829 0.575563 0.870138 0.236407
C70   C     C_2   0.774357 0.544061 0.671181 0.253798
C71   C     C_2   0.771412 0.608541 0.752035 0.271882
C72   C     C_R   0.873328 0.550717 0.761454 0.006657
C73   C     C_R   0.907313 0.524069 0.775196 -0.063145
C74   C     C_R   0.952286 0.528761 0.761937 -0.107992
C75   C     C_R   0.970175 0.566049 0.741165 -0.102162
C76   C     C_R   0.945685 0.601405 0.737436 -0.104629
C77   C     C_R   0.900404 0.595934 0.750246 -0.108820
C78   C     C_1   0.339014 0.338929 0.500752 0.004162
C79   C     C_1   0.376320 0.376182 0.500508 0.015530
C80   C     C_1   0.124069 0.124434 0.500476 0.015410
C81   C     C_3   0.747526 0.429679 0.731623 -0.003662
C82   C     C_R   0.255871 0.554475 0.253490 0.013404
C83   C     C_R   0.207857 0.500644 0.203328 -0.009827
C84   C     C_R   0.204446 0.446805 0.196163 -0.006611
C85   C     C_R   0.579613 0.579472 0.500051 0.567828
C86   C     C_R   0.247920 0.446814 0.240826 -0.001240
C87   C     C_R   0.295100 0.500245 0.291109 -0.014138
C88   C     C_R   0.299592 0.553884 0.297167 -0.043893
C89   C     C_1   0.161571 0.500273 0.158986 -0.004898
C90   C     C_1   0.339381 0.500110 0.336990 -0.046033
C91   C     C_1   0.376224 0.500100 0.375087 -0.013498
C92   C     C_3   0.788633 0.496744 0.789967 -0.012402
C93   C     C_1   0.123214 0.499966 0.122014 0.017703
C94   C     C_R   0.799245 0.795698 0.549994 -0.081428
C95   C     C_R   0.791556 0.792387 0.496620 -0.035363
C96   C     C_R   0.740895 0.745177 0.443049 0.019850
C97   C     C_R   0.420276 0.499965 0.420099 0.552466
C98   C     C_R   0.697541 0.701817 0.444530 0.006754
C99   C     C_R   0.706217 0.705556 0.499010 -0.032887
C100  C     C_R   0.757396 0.752727 0.552024 0.012308
C101  C     C_1   0.837424 0.837826 0.498191 -0.069835
C102  C     C_1   0.661663 0.661188 0.500067 -0.076694
C103  C     C_3   0.822251 0.548572 0.776037 -0.069162
C104  C     C_1   0.624257 0.623901 0.500155 -0.010444
C105  C     C_1   0.875513 0.875639 0.499274 -0.014893
C106  C     C_R   0.998357 0.420640 0.918800 0.544357
C107  C     C_R   0.918516 0.500437 0.919049 0.557156
C108  C     C_R   0.997802 0.579527 0.077426 0.571457
C109  C     C_3   0.700827 0.430600 0.675782 -0.011102
C110  C     C_R   0.078163 0.500082 0.077919 0.558541
C111  C     C_R   0.999868 0.079489 0.579389 0.556374
C112  C     C_R   0.079561 0.079527 0.500064 0.553529
C113  C     C_R   0.000327 0.920670 0.420592 0.554639
C114  C     C_3   0.769082 0.548833 0.726354 -0.053105
C115  C     C_R   0.920392 0.920471 0.499921 0.557404
C116  C     C_R   0.051753 0.247585 0.760861 -0.019697
C117  C     C_R   0.000081 0.206995 0.705746 -0.003571
C118  C     C_R   0.947646 0.208913 0.694406 -0.020170
C119  C     C_R   0.947049 0.252303 0.738055 -0.018393
C120  C     C_R   0.998585 0.292780 0.793279 -0.004464
C121  C     C_3   0.694556 0.508632 0.761929 -0.042228
C122  C     C_R   0.050941 0.290234 0.805175 -0.018193
C123  C     C_1   0.000226 0.161674 0.661242 -0.039288
C124  C     C_1   0.998319 0.338504 0.837209 -0.046676
C125  C     C_1   0.835393 0.498419 0.836728 0.003897
C126  C     C_1   0.998360 0.376225 0.874292 -0.018240
C127  C     C_1   0.000119 0.124098 0.623957 -0.007832
C128  C     C_R   0.993170 0.794117 0.243277 -0.121347
C129  C     C_R   0.001401 0.793542 0.295225 -0.012608
C130  C     C_R   0.007781 0.748353 0.303381 -0.002314
C131  C     C_R   0.006969 0.704056 0.258650 0.030221
C132  C     C_R   0.998456 0.705233 0.205950 0.016007
C133  C     C_3   0.747103 0.513419 0.815877 -0.032697
C134  C     C_R   0.991343 0.750492 0.198294 -0.018165
C135  C     C_1   0.000919 0.838952 0.339045 -0.062992
C136  C     C_1   0.659636 0.497482 0.660698 0.081644
C137  C     C_1   0.997676 0.660491 0.160020 0.012310
C138  C     C_1   0.997649 0.623588 0.122127 0.031795
C139  C     C_1   0.000542 0.876376 0.376051 -0.018703
C140  C     C_1   0.873875 0.500100 0.874828 0.014609
C141  C     C_3   0.705227 0.495737 0.705693 -0.000051
C142  C     C_R   0.720711 0.382778 0.750191 0.039059
C143  C     C_R   0.756826 0.363284 0.778965 -0.093188
C144  C     C_R   0.735950 0.321145 0.794063 -0.128609
C145  C     C_R   0.678048 0.295626 0.781215 -0.113483
C146  C     C_R   0.641419 0.313405 0.754672 -0.108467
C147  C     C_1   0.623229 0.499337 0.624083 0.079177
C148  C     C_R   0.662319 0.356465 0.740497 -0.081505
C149  C     C_R   0.712219 0.423080 0.621383 0.062115
C150  C     C_R   0.766411 0.433724 0.622175 -0.040353
C151  C     C_R   0.771675 0.423603 0.572131 -0.102469
C152  C     C_R   0.723818 0.404175 0.519198 -0.093224
C153  C     C_R   0.670952 0.396301 0.516546 -0.082149
C154  C     C_R   0.665415 0.406245 0.566356 -0.052735
C155  C     C_2   0.786704 0.408562 0.714379 0.166145
C156  C     C_2   0.863520 0.608888 0.833840 0.218551
C157  C     C_2   0.248580 0.358538 0.513373 0.193036
C158  C     C_R   0.204351 0.260619 0.508505 0.042307
C159  C     C_2   0.160137 0.272225 0.521044 0.275222
C160  C     C_2   0.338132 0.227641 0.484599 0.216698
C161  C     C_R   0.351514 0.609580 0.348921 0.013888
C162  C     C_R   0.357945 0.626561 0.405085 -0.091135
C163  C     C_R   0.407586 0.678245 0.453873 -0.102337
C164  C     C_R   0.450948 0.713288 0.446865 -0.096656
C165  C     C_R   0.444745 0.696666 0.391044 -0.110186
C166  C     C_R   0.395231 0.644940 0.342154 -0.097466
C167  C     C_2   0.260777 0.611923 0.262054 0.228389
C168  C     C_2   0.155310 0.391007 0.141344 0.208219
Cu1   Cu    Cu3+1 0.500150 0.458980 0.459120 0.963023
Cu2   Cu    Cu3+1 0.499850 0.541020 0.540880 0.995736
Cu3   Cu    Cu3+1 0.957230 0.459100 0.998270 0.964379
Cu4   Cu    Cu3+1 0.039250 0.541110 0.998230 0.992376
Cu5   Cu    Cu3+1 0.041170 0.999960 0.541120 0.962092
Cu6   Cu    Cu3+1 0.958830 0.000040 0.458870 0.979968
H1    H     H_    0.247919 0.158553 0.486190 0.098573
H2    H     H_    0.813809 0.432627 0.575046 0.113956
H3    H     H_    0.728139 0.396733 0.480612 0.116135
H4    H     H_    0.633885 0.382583 0.475696 0.115676
H5    H     H_    0.623143 0.399895 0.560596 0.118200
H6    H     H_    0.831007 0.425672 0.745714 0.103280
H7    H     H_    0.868140 0.649259 0.835142 0.090204
H8    H     H_    0.289705 0.399123 0.535563 0.113485
H9    H     H_    0.171811 0.316532 0.549459 0.138353
H10   H     H_    0.336660 0.187525 0.481848 0.094814
H11   H     H_    0.324680 0.599582 0.410986 0.117827
H12   H     H_    0.838620 0.832184 0.590422 0.172558
H13   H     H_    0.412484 0.691074 0.497120 0.115283
H14   H     H_    0.489362 0.753278 0.484690 0.112930
H15   H     H_    0.478393 0.723821 0.385686 0.107584
H16   H     H_    0.391009 0.632259 0.299144 0.115203
H17   H     H_    0.285620 0.649667 0.305899 0.117042
H18   H     H_    0.113848 0.387875 0.116838 0.106874
H19   H     H_    0.577368 0.408846 0.633061 0.111424
H20   H     H_    0.487869 0.319545 0.578990 0.159789
H21   H     H_    0.485484 0.224958 0.545346 0.124486
H22   H     H_    0.578201 0.223141 0.567505 0.112081
H23   H     H_    0.987958 0.828993 0.237702 0.122198
H24   H     H_    0.670206 0.311852 0.622687 0.197913
H25   H     H_    0.317116 0.401822 0.222415 0.107773
H26   H     H_    0.310525 0.309915 0.217655 0.111571
H27   H     H_    0.233541 0.246737 0.229224 0.119982
H28   H     H_    0.162929 0.275628 0.245692 0.123062
H29   H     H_    0.169115 0.367576 0.250873 0.111237
H30   H     H_    0.736143 0.724961 0.612537 0.138674
H31   H     H_    0.758693 0.780962 0.386060 0.115940
H32   H     H_    0.605674 0.709565 0.379418 0.098799
H33   H     H_    0.511713 0.628782 0.289922 0.106037
H34   H     H_    0.802824 0.381463 0.791971 0.101109
H35   H     H_    0.493687 0.527063 0.249529 0.110989
H36   H     H_    0.569962 0.506047 0.298714 0.112374
H37   H     H_    0.664181 0.586325 0.388125 0.120105
H38   H     H_    0.066856 0.308266 0.913112 0.113837
H39   H     H_    0.155081 0.384204 0.010030 0.132185
H40   H     H_    0.244421 0.451761 0.016251 0.119076
H41   H     H_    0.245084 0.443756 0.925170 0.111753
H42   H     H_    0.156371 0.370219 0.828154 0.109388
H43   H     H_    0.103523 0.211029 0.831598 0.114194
H44   H     H_    0.191707 0.201239 0.846069 0.113455
H45   H     H_    0.765254 0.308722 0.816409 0.110571
H46   H     H_    0.244763 0.228603 0.795237 0.110621
H47   H     H_    0.209678 0.266274 0.729867 0.111361
H48   H     H_    0.121418 0.275936 0.714594 0.108977
H49   H     H_    0.848737 0.123809 0.675918 0.109895
H50   H     H_    0.757296 0.049139 0.581249 0.109921
H51   H     H_    0.748728 0.046129 0.488779 0.111772
H52   H     H_    0.831803 0.118407 0.491151 0.117016
H53   H     H_    0.923403 0.193737 0.585552 0.113342
H54   H     H_    0.892803 0.279770 0.659100 0.109188
H55   H     H_    0.799690 0.281143 0.634661 0.157594
H56   H     H_    0.661768 0.262704 0.792617 0.110413
H57   H     H_    0.746072 0.258451 0.686414 0.144415
H58   H     H_    0.785853 0.233980 0.762939 0.104718
H59   H     H_    0.878639 0.231867 0.787519 0.109823
H60   H     H_    0.055521 0.745699 0.141699 0.110706
H61   H     H_    0.033578 0.745276 0.048386 0.128046
H62   H     H_    0.948435 0.755411 0.997476 0.131788
H63   H     H_    0.884648 0.765637 0.040188 0.116719
H64   H     H_    0.903857 0.762911 0.131830 0.114658
H65   H     H_    0.692858 0.584093 0.827103 0.095023
H66   H     H_    0.034801 0.788424 0.398823 0.119877
H67   H     H_    0.596329 0.294042 0.745328 0.111555
H68   H     H_    0.048071 0.669585 0.312145 0.141137
H69   H     H_    0.597448 0.461172 0.738128 -0.036130
H70   H     H_    0.780193 0.446318 0.870351 0.125475
H71   H     H_    0.740529 0.403734 0.918129 0.115448
H72   H     H_    0.661646 0.415165 0.932973 0.115953
H73   H     H_    0.625719 0.474436 0.900083 0.114383
H74   H     H_    0.664646 0.518441 0.851218 0.095879
H75   H     H_    0.786687 0.613640 0.868301 0.071754
H76   H     H_    0.809345 0.540722 0.664419 0.107479
H77   H     H_    0.777987 0.629582 0.795520 0.086670
H78   H     H_    0.630218 0.366637 0.721596 0.137122
H79   H     H_    0.905021 0.503828 0.800964 0.105787
H80   H     H_    0.975482 0.505715 0.770909 0.113545
H81   H     H_    0.005590 0.570379 0.731767 0.116648
H82   H     H_    0.962510 0.633994 0.725820 0.125187
H83   H     H_    0.885315 0.626973 0.750177 0.118142
H84   H     H_    0.807308 0.455036 0.661768 0.123408
O1    O     O_R   0.440300 0.405520 0.465490 -0.488423
O2    O     O_R   0.965060 0.059870 0.524970 -0.500596
O3    O     O_R   0.094600 0.059810 0.534710 -0.514478
O4    O     O_R   0.440040 0.474790 0.534530 -0.514697
O5    O     O_R   0.025070 0.059880 0.465260 -0.484376
O6    O     O_R   0.034940 0.940120 0.475030 -0.505594
O7    O     O_R   0.965400 0.940190 0.405570 -0.500334
O8    O     O_R   0.974930 0.940120 0.534740 -0.496521
O9    O     O_R   0.905400 0.940180 0.465280 -0.506915
O10   O     O_R   0.560200 0.465360 0.525540 -0.518778
O11   O     O_R   0.559940 0.534640 0.594570 -0.472926
O12   O     O_R   0.033070 0.474870 0.938590 -0.506138
O13   O     O_R   0.559960 0.525210 0.465470 -0.502904
O14   O     O_R   0.559700 0.594480 0.534510 -0.498041
O15   O     O_R   0.440060 0.465360 0.405430 -0.509021
O16   O     O_R   0.439800 0.534640 0.474460 -0.504737
O17   O     O_R   0.963810 0.405620 0.938630 -0.512842
O18   O     O_2   0.767192 0.363816 0.669303 -0.571233
O19   O     O_2   0.899864 0.614840 0.878089 -0.460215
O20   O     O_2   0.202613 0.358331 0.490861 -0.493952
O21   O     O_2   0.110154 0.232862 0.499287 -0.492614
O22   O     O_2   0.376561 0.259595 0.480131 -0.520013
O23   O     O_R   0.903540 0.465480 0.938210 -0.524196
O24   O     O_2   0.238764 0.618470 0.220653 -0.496409
O25   O     O_2   0.161058 0.348496 0.121754 -0.500481
O26   O     O_2   0.811562 0.799190 0.655611 -0.491366
O27   O     O_2   0.704273 0.695389 0.340167 -0.488023
O28   O     O_2   0.663285 0.577943 0.749875 -0.478057
O29   O     O_2   0.992476 0.701704 0.358159 -0.487613
O30   O     O_2   0.992291 0.608094 0.228637 -0.481866
O31   O     O_2   0.592540 0.461625 0.737726 0.010708
O32   O     O_2   0.819722 0.584600 0.917719 -0.455936
O33   O     O_2   0.737853 0.543580 0.631060 -0.463985
O34   O     O_R   0.972800 0.534740 0.938170 -0.486917
O35   O     O_2   0.766910 0.635219 0.725392 -0.424518
O36   O     O_R   0.963400 0.525340 0.057910 -0.480703
O37   O     O_R   0.032660 0.594600 0.057870 -0.506800
O38   O     O_R   0.023680 0.465480 0.058320 -0.508273
O39   O     O_R   0.092940 0.534740 0.058290 -0.485042
O40   O     O_R   0.034600 0.059810 0.594420 -0.500882

loop_
_geom_bond_atom_site_label_1
_geom_bond_atom_site_label_2
_ccdc_geom_bond_type
C61   H69   S    
C57   C158  A    
C59   C130  S    
C68   C80   T    
C165  C166  A    
C21   H35   S    
C117  C118  A    
C159  O21   D    
C73   C74   A    
C118  C119  A    
C8    H24   S    
C95   C96   A    
C160  O22   D    
C54   H62   S    
C145  H56   S    
C128  C129  A    
C145  C146  A    
C52   H60   S    
C7    C8    A    
Cu5   Cu6   S    
C70   C114  S    
Cu6   O2    S    
C135  C139  T    
C53   H61   S    
C28   C29   A    
C26   C27   A    
C29   C30   A    
C116  C122  A    
C62   C67   A    
C40   H50   S    
C83   C84   A    
C24   O10   A    
C85   O14   A    
C61   C121  S    
C164  C165  A    
C18   C98   S    
C84   C86   A    
C37   H48   S    
C13   C35   A    
C2    C68   S    
C71   O35   D    
C5    C6    A    
C51   C134  S    
C34   H46   S    
C29   H41   S    
C94   H12   S    
C31   C116  S    
C112  O5    A    
C44   C50   A    
C143  C144  A    
C98   C99   A    
C110  O39   A    
C22   H36   S    
C152  H3    S    
C69   O32   D    
Cu1   O13   S    
C163  H13   S    
C18   C19   A    
Cu1   Cu2   S    
Cu3   O23   S    
C107  C140  S    
C72   C77   A    
C2    C13   A    
C128  H23   S    
Cu5   O8    S    
Cu5   O6    S    
C92   C103  S    
Cu6   O5    S    
C35   C160  S    
C81   C92   S    
C120  C124  S    
C64   H71   S    
C92   C133  S    
C95   C101  S    
C120  C122  A    
C58   C121  S    
C96   C98   A    
C152  C153  A    
C19   H32   S    
C165  H15   S    
C151  C152  A    
C113  C139  S    
C113  O6    A    
Cu3   Cu4   S    
C25   C122  S    
C70   H76   S    
Cu5   O3    S    
C32   H43   S    
C70   O33   D    
C115  O8    A    
C69   H75   S    
C93   C110  S    
C66   H73   S    
C45   C47   A    
C66   C67   A    
C157  O20   D    
C153  C154  A    
C149  C154  A    
C129  C135  S    
C154  H5    S    
C10   H25   S    
C101  C105  T    
C48   H57   S    
C39   H49   S    
C107  O23   A    
Cu2   O11   S    
C60   C131  S    
C71   H77   S    
C6    H21   S    
C108  O37   A    
C115  O9    A    
C161  C162  A    
C146  C148  A    
C82   C167  S    
C42   H52   S    
C125  C140  T    
C28   H40   S    
C4    H19   S    
C83   C89   S    
C41   H51   S    
C148  H78   S    
C74   C75   A    
C106  O17   A    
C63   C64   A    
C51   C52   A    
C136  C147  T    
C114  C141  S    
C121  C141  S    
C103  C114  S    
Cu1   O15   S    
C76   C77   A    
C92   C125  S    
Cu4   O12   S    
C3    C8    A    
C10   C11   A    
C39   C40   A    
C46   C78   S    
C143  H34   S    
C108  O36   A    
C78   C79   T    
C155  O18   D    
Cu4   O34   S    
C44   C119  S    
C25   C26   A    
C33   H44   S    
C110  O38   A    
C80   C112  S    
C61   O31   D    
C89   C93   T    
C91   C97   S    
C60   O30   D    
C71   C114  S    
C3    C109  S    
C166  H16   S    
C45   H54   S    
C106  O12   A    
C16   O26   D    
C50   H59   S    
C109  C149  S    
C75   C76   A    
C41   C42   A    
Cu3   O38   S    
C62   C63   A    
C84   C168  S    
C128  C134  A    
C9    C86   S    
C161  C166  A    
C17   O27   D    
C67   H74   S    
C22   C23   A    
C123  C127  T    
C47   C48   A    
C14   C15   A    
C94   C100  A    
C155  H6    S    
C2    C158  A    
C111  O40   A    
Cu5   O40   S    
C43   H53   S    
C55   C56   A    
C33   C34   A    
C94   C95   A    
C17   C96   S    
C12   H27   S    
C55   H63   S    
C102  C104  T    
C142  C148  A    
C106  C126  S    
C74   H80   S    
C85   C104  S    
C86   C87   A    
C144  H45   S    
Cu6   O7    S    
C73   H79   S    
C132  C134  A    
C48   C49   A    
C81   C109  S    
C82   C83   A    
C46   C57   A    
Cu2   O14   S    
C158  C159  S    
C11   H26   S    
C97   O16   A    
C38   C43   A    
C42   C43   A    
C58   H65   S    
Cu2   O16   S    
Cu3   O17   S    
C111  O2    A    
C107  O34   A    
C62   C133  S    
C1    C79   S    
C124  C126  T    
C129  C130  A    
C9    C10   A    
Cu3   O36   S    
C56   H64   S    
C25   C30   A    
C13   H1    S    
C57   C157  S    
C54   C55   A    
C40   C41   A    
Cu1   O10   S    
C69   C133  S    
C151  H2    S    
C109  C141  S    
C142  C143  A    
C60   H68   S    
C105  C115  S    
C31   C32   A    
C16   C100  S    
C44   C45   A    
C51   C56   A    
C12   C14   A    
C72   C73   A    
C164  H14   S    
C24   C147  S    
C168  H18   S    
C162  H11   S    
C26   H38   S    
C119  C120  A    
C168  O25   D    
C53   C54   A    
C6    C7    A    
C47   H55   S    
C72   C103  S    
C162  C163  A    
C167  H17   S    
C137  C138  T    
C112  O3    A    
C111  C127  S    
C75   H81   S    
C21   C22   A    
C81   C155  S    
C99   C100  A    
Cu2   O4    S    
C24   O11   A    
C144  C145  A    
C121  C133  S    
C64   C65   A    
C85   O13   A    
C19   C20   A    
C17   H31   S    
C130  C131  A    
C117  C123  S    
C156  O19   D    
C156  H7    S    
C81   C142  S    
C149  C150  A    
C32   C33   A    
C108  C138  S    
C90   C91   T    
C38   C39   A    
C59   O29   D    
C49   H58   S    
C18   C23   A    
C82   C88   A    
C63   H70   S    
C14   H28   S    
C146  H67   S    
C136  C141  S    
C58   O28   D    
C116  C117  A    
Cu4   O39   S    
C34   C36   A    
C65   C66   A    
C9    C15   A    
C131  C132  A    
C76   H82   S    
C113  O7    A    
C23   H37   S    
C163  C164  A    
C153  H4    S    
C88   C161  S    
C167  O24   D    
C30   H42   S    
C1    O4    A    
C38   C118  S    
C31   C37   A    
C103  C156  S    
C4    C5    A    
C99   C102  S    
Cu1   O1    S    
C20   C21   A    
C87   C88   A    
C36   C37   A    
C49   C50   A    
C157  H8    S    
C87   C90   S    
C59   H66   S    
C27   C28   A    
C27   H39   S    
C150  C151  A    
Cu6   O9    S    
C77   H83   S    
C15   H29   S    
C132  C137  S    
C20   H33   S    
C159  H9    S    
C7    H22   S    
C16   H30   S    
C35   C46   A    
C97   O15   A    
C36   H47   S    
C160  H10   S    
C65   H72   S    
C150  H84   S    
C3    C4    A    
C11   C12   A    
C52   C53   A    
C5    H20   S    
C1    O1    A    
Cu4   O37   S    
