data_mof_unit_59909.cif
_audit_creation_date              2012-12-11T17:23:08-0500
_audit_creation_method            fapswitch 2.2
_symmetry_space_group_name_H-M    P1
_symmetry_Int_Tables_number       1
_space_group_crystal_system       triclinic
_cell_length_a                    22.383871
_cell_length_b                    7.094749
_cell_length_c                    19.449337
_cell_angle_alpha                 90.000747
_cell_angle_beta                  99.464861
_cell_angle_gamma                 90.000268
_cell_volume                      3046.6615509

loop_
_atom_site_label
_atom_site_type_symbol
_atom_type_description
_atom_site_fract_x
_atom_site_fract_y
_atom_site_fract_z
_atom_type_partial_charge
O1    O     O_R   0.443980 0.494320 0.557430 -0.534280
O2    O     O_R   0.556020 0.994320 0.442570 -0.534281
O3    O     O_R   0.441210 0.822520 0.414610 -0.536755
O4    O     O_R   0.558790 0.322520 0.585390 -0.536754
C1    C     C_R   0.426736 0.655179 0.388871 0.685713
C2    C     C_R   0.573264 0.155182 0.611128 0.685713
O5    O     O_R   0.436920 0.823940 0.555180 -0.537112
O6    O     O_R   0.563080 0.323940 0.444820 -0.537110
O7    O     O_R   0.551700 0.995760 0.584140 -0.533150
O8    O     O_R   0.448300 0.495760 0.415860 -0.533150
C3    C     C_R   0.421607 0.655410 0.574884 0.727643
C4    C     C_R   0.578393 0.155409 0.425115 0.727644
O9    O     O_3   0.537660 0.661290 0.509340 -0.371472
O10   O     O_3   0.462340 0.161290 0.490660 -0.371473
V1    V     V_3+5 0.493010 0.935560 0.498270 1.446278
V2    V     V_3+5 0.506990 0.435560 0.501730 1.446287
H1    H     H_    0.707802 0.817417 0.294064 0.117832
H2    H     H_    0.292200 0.317418 0.705936 0.117831
C5    C     C_R   0.769384 0.931770 0.230604 -0.147358
C6    C     C_R   0.230616 0.431770 0.769395 -0.147362
H3    H     H_    0.783677 0.793831 0.215769 0.115902
H4    H     H_    0.216324 0.293830 0.784230 0.115903
C7    C     C_R   0.793925 0.095091 0.205394 0.132473
C8    C     C_R   0.206074 0.595090 0.794604 0.132473
C9    C     C_R   0.774551 0.272056 0.225568 -0.147839
C10   C     C_R   0.225447 0.772055 0.774430 -0.147833
H5    H     H_    0.792894 0.399871 0.206785 0.117882
H6    H     H_    0.207103 0.899870 0.793213 0.117884
C11   C     C_R   0.731312 0.285524 0.270249 -0.144574
C12   C     C_R   0.268686 0.785524 0.729749 -0.144578
H7    H     H_    0.717020 0.423466 0.285083 0.116301
H8    H     H_    0.282976 0.923466 0.714916 0.116300
C13   C     C_R   0.706787 0.122202 0.295483 0.134620
C14   C     C_R   0.293212 0.622203 0.704516 0.134621
C15   C     C_R   0.726145 0.945236 0.275284 -0.140982
C16   C     C_R   0.273856 0.445236 0.724715 -0.140978
C17   C     C_1   0.838981 0.081437 0.159311 -0.052868
C18   C     C_1   0.161018 0.581435 0.840688 -0.052869
C19   C     C_1   0.661776 0.135855 0.341632 -0.036305
C20   C     C_1   0.338224 0.635857 0.658367 -0.036303
C21   C     C_1   0.623986 0.145901 0.379902 -0.161792
C22   C     C_1   0.376013 0.645903 0.620097 -0.161792
C23   C     C_1   0.876784 0.071407 0.121067 -0.162356
C24   C     C_1   0.123216 0.571405 0.878931 -0.162361
C25   C     C_R   0.628487 0.134904 0.805622 -0.130500
C26   C     C_R   0.371517 0.634742 0.194380 -0.130500
H9    H     H_    0.708383 0.127848 0.919769 0.117808
H10   H     H_    0.291624 0.627602 0.080231 0.117808
H11   H     H_    0.609612 0.141923 0.853471 0.141822
H12   H     H_    0.390393 0.641685 0.146531 0.141822
C27   C     C_R   0.613280 0.145310 0.679525 -0.145574
C28   C     C_R   0.386721 0.645292 0.320475 -0.145573
C29   C     C_R   0.908528 0.049376 0.761196 0.243601
C30   C     C_R   0.091468 0.549488 0.238806 0.243596
C31   C     C_R   0.870451 0.022355 0.697413 -0.180132
C32   C     C_R   0.129541 0.522511 0.302594 -0.180130
C33   C     C_R   0.807767 0.018043 0.692806 0.327836
C34   C     C_R   0.192225 0.518157 0.307203 0.327836
C35   C     C_R   0.780389 0.068614 0.751493 -0.067220
C36   C     C_R   0.219608 0.568634 0.248511 -0.067222
C37   C     C_R   0.818920 0.082557 0.818351 -0.068146
C38   C     C_R   0.181080 0.582523 0.181650 -0.068145
C39   C     C_R   0.716308 0.101322 0.746379 0.087143
C40   C     C_R   0.283691 0.601303 0.253623 0.087143
C41   C     C_R   0.691215 0.115473 0.808285 0.024717
C42   C     C_R   0.308787 0.615357 0.191717 0.024716
C43   C     C_R   0.728606 0.114653 0.873000 -0.241831
C44   C     C_R   0.271398 0.614482 0.127001 -0.241827
C45   C     C_R   0.791785 0.105482 0.878965 0.346535
C46   C     C_R   0.208219 0.605351 0.121034 0.346541
C47   C     C_R   0.676345 0.128734 0.682218 -0.263281
C48   C     C_R   0.323654 0.628767 0.317782 -0.263284
C49   C     C_R   0.589116 0.146420 0.742297 0.356654
C50   C     C_R   0.410887 0.646305 0.257704 0.356655
C51   C     C_R   0.883460 0.069922 0.822341 -0.125543
C52   C     C_R   0.116539 0.569938 0.177660 -0.125546
H13   H     H_    0.693192 0.142860 0.633586 0.169086
H14   H     H_    0.306806 0.642963 0.366411 0.169087
O11   O     O_R   0.051730 0.724670 0.084120 -0.532257
O12   O     O_R   0.948270 0.224670 0.915880 -0.532244
O13   O     O_R   0.063080 0.393540 0.944820 -0.536890
O14   O     O_R   0.936920 0.893540 0.055180 -0.536896
C53   C     C_R   0.077725 0.561971 0.924274 0.770796
C54   C     C_R   0.922275 0.061972 0.075725 0.770783
O15   O     O_R   0.058800 0.395030 0.085390 -0.542629
O16   O     O_R   0.941200 0.895030 0.914610 -0.542637
O17   O     O_R   0.943980 0.223310 0.057440 -0.529332
O18   O     O_R   0.056020 0.723310 0.942560 -0.529336
C55   C     C_R   0.073360 0.563597 0.110931 0.879523
C56   C     C_R   0.926639 0.063594 0.889069 0.879513
O19   O     O_3   0.962360 0.556290 0.990650 -0.380418
O20   O     O_3   0.037640 0.056290 0.009350 -0.380422
V3    V     V_3+5 0.006980 0.281990 0.001730 1.515617
V4    V     V_3+5 0.993020 0.781990 0.998270 1.515606
O21   O     O_3   0.775896 0.944627 0.632149 -0.646512
H15   H     H_    0.743847 0.861974 0.645260 0.292082
O22   O     O_3   0.224091 0.444791 0.367872 -0.646513
H16   H     H_    0.256135 0.362098 0.354774 0.292080
H17   H     H_    0.889834 0.991090 0.651184 0.144490
H18   H     H_    0.110154 0.491317 0.348827 0.144490
O23   O     O_3   0.827184 0.118231 0.944013 -0.668084
H19   H     H_    0.801122 0.136027 0.980099 0.275001
O24   O     O_3   0.172823 0.618040 0.055983 -0.668090
H20   H     H_    0.198887 0.635768 0.019896 0.274998
O25   O     O_3   0.527937 0.161898 0.744889 -0.642806
H21   H     H_    0.504481 0.171126 0.697289 0.279921
O26   O     O_3   0.472067 0.661728 0.255113 -0.642806
H22   H     H_    0.495522 0.671030 0.302712 0.279921
O27   O     O_3   0.970839 0.044998 0.765753 -0.651667
H23   H     H_    0.981189 0.029254 0.718423 0.292414
O28   O     O_3   0.029156 0.545158 0.234248 -0.651668
H24   H     H_    0.018804 0.529481 0.281579 0.292414

loop_
_geom_bond_atom_site_label_1
_geom_bond_atom_site_label_2
_ccdc_geom_bond_type
C42   C44   A    
C39   C41   A    
C17   C23   T    
O23   H19   S    
O14   V4    S    
O21   H15   S    
O1    C3    A    
C54   O17   A    
C26   C50   A    
C24   C53   S    
O2    C4    A    
C2    O7    A    
O22   H16   S    
C19   C21   T    
C37   C51   A    
O5    C3    A    
C13   C19   S    
C14   C20   S    
C36   C38   A    
C5    H3    S    
C8    C10   A    
C26   C42   A    
C28   C50   A    
C33   C35   A    
C34   C36   A    
C11   C13   A    
C38   C46   A    
C3    C22   S    
C25   C49   A    
C48   H14   S    
O16   V4    S    
C51   C56   S    
C50   O26   S    
O15   V3    S    
C6    C8    A    
C41   C43   A    
C8    C18   S    
O26   H22   S    
C1    C28   S    
C2    C27   S    
C52   C55   S    
O5    V1    S    
C53   O18   A    
O6    V2    S    
C23   C54   S    
C38   C52   A    
C29   C51   A    
C34   O22   S    
C27   C47   A    
H9    C43   S    
O13   C53   A    
O18   V4    S    
C29   C31   A    
C9    C11   A    
C30   C32   A    
C35   C37   A    
C12   C14   A    
O11   V4    S    
O4    C2    A    
O16   C56   A    
O15   C55   A    
C46   O24   S    
C7    C17   S    
C43   C45   A    
C40   C42   A    
O4    V2    S    
C5    C7    A    
C18   C24   T    
C4    C21   S    
C28   C48   A    
O19   V3    S    
O13   V3    S    
C49   O25   S    
C25   H11   S    
O6    C4    A    
O20   V4    S    
O1    V2    S    
H10   C44   S    
O2    V1    S    
C30   C52   A    
C39   C47   A    
C10   C12   A    
O14   C54   A    
C31   C33   A    
C25   C41   A    
C32   H18   S    
C47   H13   S    
O3    V1    S    
C29   O27   S    
O28   H24   S    
C10   H6    S    
C27   C49   A    
C6    H4    S    
O3    C1    A    
C45   O23   S    
C9    H5    S    
O25   H21   S    
C26   H12   S    
C35   C39   A    
C36   C40   A    
C37   C45   A    
O7    V1    S    
C1    O8    A    
C11   H7    S    
O8    V2    S    
O27   H23   S    
O19   V4    S    
C12   H8    S    
O17   V3    S    
C20   C22   T    
O20   V3    S    
C13   C15   A    
C32   C34   A    
C30   O28   S    
C14   C16   A    
C40   C48   A    
O12   C56   A    
O11   C55   A    
C6    C16   A    
C7    C9    A    
C44   C46   A    
C33   O21   S    
O9    V2    S    
C31   H17   S    
O24   H20   S    
O10   V1    S    
C5    C15   A    
H1    C15   S    
O12   V3    S    
H2    C16   S    
