data_mof_unit_21182.cif
_audit_creation_date              2012-12-11T14:54:28-0500
_audit_creation_method            fapswitch 2.2
_symmetry_space_group_name_H-M    P1
_symmetry_Int_Tables_number       1
_space_group_crystal_system       triclinic
_cell_length_a                    18.861804
_cell_length_b                    11.184486
_cell_length_c                    18.619216
_cell_angle_alpha                 90.854438
_cell_angle_beta                  89.607462
_cell_angle_gamma                 90.151372
_cell_volume                      3927.36044131

loop_
_atom_site_label
_atom_site_type_symbol
_atom_type_description
_atom_site_fract_x
_atom_site_fract_y
_atom_site_fract_z
_atom_type_partial_charge
C1    C     C_R   0.731434 0.377573 0.647521 0.555488
C2    C     C_R   0.265545 0.388373 0.347892 0.530150
C3    C     C_R   0.230901 0.875950 0.646945 0.558114
C4    C     C_R   0.766548 0.886146 0.349548 0.533669
C5    C     C_3   0.531688 0.364772 0.461211 -0.119677
C6    C     C_3   0.547176 0.360795 0.542169 -0.077128
C7    C     C_3   0.030895 0.853362 0.453477 -0.106095
C8    C     C_3   0.052135 0.853090 0.533100 -0.078104
C9    C     C_R   0.671203 0.968589 0.521503 -0.170628
C10   C     C_R   0.266175 0.862894 0.451979 -0.118890
C11   C     C_R   0.171404 0.461492 0.522258 -0.173412
C12   C     C_R   0.778326 0.371277 0.455050 -0.100636
C13   C     C_R   0.676825 0.942347 0.447416 -0.171438
C14   C     C_R   0.253686 0.829069 0.521952 -0.145945
C15   C     C_R   0.176169 0.436836 0.448074 -0.165604
C16   C     C_R   0.766971 0.336494 0.524840 -0.129241
C17   C     C_R   0.742343 0.954457 0.413525 -0.009039
C18   C     C_R   0.252429 0.913376 0.577408 0.061977
C19   C     C_R   0.240352 0.455933 0.412195 -0.012488
C20   C     C_R   0.754371 0.419817 0.579047 0.060931
C21   C     C_R   0.794045 0.022140 0.447691 -0.109782
C22   C     C_R   0.254105 0.033266 0.562934 -0.087814
C23   C     C_R   0.290602 0.527712 0.445552 -0.107119
C24   C     C_R   0.746376 0.538612 0.563009 -0.083401
C25   C     C_R   0.794145 0.037956 0.521440 -0.020312
C26   C     C_R   0.253427 0.068210 0.491949 -0.033462
C27   C     C_R   0.291441 0.543123 0.519547 -0.016415
C28   C     C_R   0.743650 0.571321 0.491415 -0.035321
C29   C     C_R   0.731698 0.005681 0.560608 -0.003840
C30   C     C_R   0.265676 0.983851 0.435843 0.052535
C31   C     C_R   0.231193 0.504467 0.560142 -0.008458
C32   C     C_R   0.766071 0.489477 0.436665 0.031037
C33   C     C_R   0.502075 0.058379 0.963717 -0.155017
C34   C     C_R   0.502072 0.058211 0.036657 -0.155983
C35   C     C_R   0.003285 0.558308 0.964121 -0.154867
C36   C     C_R   0.003245 0.558282 0.037067 -0.156161
C37   C     C_R   0.499613 0.165517 0.075670 0.021493
C38   C     C_R   0.503546 0.165953 0.926329 0.030716
C39   C     C_R   0.000160 0.665625 0.075967 0.020762
C40   C     C_R   0.004131 0.665819 0.926623 0.030310
C41   C     C_R   0.504494 0.276625 0.039844 0.020989
C42   C     C_R   0.496989 0.276748 0.964021 0.028728
C43   C     C_R   0.004781 0.776682 0.040081 0.021061
C44   C     C_R   0.997276 0.776617 0.964265 0.028231
C45   C     C_R   0.529064 0.154841 0.649471 0.551122
C46   C     C_R   0.458767 0.153608 0.358234 0.547598
C47   C     C_R   0.029717 0.655023 0.648857 0.553086
C48   C     C_R   0.939569 0.651331 0.361251 0.550694
C49   C     C_R   0.779268 0.060564 0.980748 -0.121302
C50   C     C_R   0.232466 0.076134 0.017375 -0.129061
C51   C     C_R   0.279273 0.560551 0.980750 -0.121072
C52   C     C_R   0.732475 0.576158 0.017371 -0.129386
C53   C     C_R   0.786550 0.035304 0.053019 0.155258
C54   C     C_R   0.223683 0.046884 0.944934 0.146456
C55   C     C_R   0.286550 0.535298 0.053023 0.155221
C56   C     C_R   0.723695 0.546910 0.944928 0.146508
C57   C     C_R   0.744772 0.943260 0.083948 0.036854
C58   C     C_R   0.258214 0.944857 0.915719 0.038896
C59   C     C_R   0.244779 0.443244 0.083949 0.037213
C60   C     C_R   0.758220 0.444873 0.915716 0.038994
C61   C     C_R   0.687065 0.897540 0.045122 -0.168693
C62   C     C_R   0.311705 0.890739 0.955746 -0.164748
C63   C     C_R   0.187101 0.397465 0.045111 -0.168712
C64   C     C_R   0.811715 0.390763 0.955742 -0.164362
C65   C     C_R   0.678149 0.928337 0.973404 -0.115444
C66   C     C_R   0.320739 0.921937 0.027742 -0.122374
C67   C     C_R   0.178211 0.428206 0.973384 -0.115672
C68   C     C_R   0.820757 0.421975 0.027736 -0.122149
C69   C     C_R   0.728043 0.002353 0.939393 -0.012084
C70   C     C_R   0.275862 0.006729 0.060571 -0.018860
C71   C     C_R   0.228070 0.502296 0.939388 -0.012017
C72   C     C_R   0.775871 0.506751 0.060568 -0.019470
C73   C     C_R   0.727421 0.021602 0.639752 0.553324
C74   C     C_R   0.272126 0.019002 0.360757 0.552292
C75   C     C_R   0.227484 0.520991 0.639540 0.549644
C76   C     C_R   0.772336 0.520662 0.360662 0.530391
C77   C     C_R   0.731678 0.383406 0.850602 0.575145
C78   C     C_R   0.268698 0.382666 0.149316 0.560001
C79   C     C_R   0.231678 0.883404 0.850602 0.574806
C80   C     C_R   0.768698 0.882667 0.149314 0.562286
C81   C     C_R   0.531667 0.157403 0.853205 0.531710
C82   C     C_R   0.469386 0.156905 0.147678 0.527037
C83   C     C_R   0.031796 0.657378 0.853305 0.532231
C84   C     C_R   0.969501 0.656924 0.147776 0.530415
C85   C     C_R   0.726394 0.023213 0.861761 0.568705
C86   C     C_R   0.274617 0.024638 0.138986 0.570391
C87   C     C_R   0.226401 0.523194 0.861764 0.568608
C88   C     C_R   0.774619 0.524644 0.138987 0.571280
C89   C     C_R   0.470657 0.157297 0.435807 -0.013751
C90   C     C_R   0.485953 0.164738 0.585556 -0.014270
C91   C     C_R   0.955674 0.656701 0.437924 -0.018318
C92   C     C_R   0.985903 0.665781 0.585418 -0.015801
C93   C     C_R   0.478075 0.266844 0.472069 -0.009515
C94   C     C_R   0.489344 0.269234 0.545546 -0.021752
C95   C     C_R   0.973035 0.765428 0.471528 -0.008830
C96   C     C_R   0.990303 0.769435 0.543883 -0.024799
C97   C     C_R   0.459732 0.060704 0.552335 0.163137
C98   C     C_R   0.462591 0.052173 0.477367 0.148233
C99   C     C_R   0.954532 0.562751 0.555300 0.166106
C100  C     C_R   0.950009 0.553205 0.480648 0.143794
Cr1   Cr    Cr6+3 0.771950 0.169480 0.750100 1.010182
Cr2   Cr    Cr6+3 0.228050 0.169480 0.249900 0.995160
Cr3   Cr    Cr6+3 0.271950 0.669480 0.750100 1.007594
Cr4   Cr    Cr6+3 0.728050 0.669480 0.249900 1.001781
Cr5   Cr    Cr6+3 0.614930 0.323340 0.749170 0.984566
Cr6   Cr    Cr6+3 0.385070 0.323340 0.250830 1.027900
Cr7   Cr    Cr6+3 0.114930 0.823340 0.749170 0.987187
Cr8   Cr    Cr6+3 0.885070 0.823340 0.250830 1.022179
Cr9   Cr    Cr6+3 0.616590 0.010620 0.750610 1.070271
Cr10  Cr    Cr6+3 0.383410 0.010620 0.249390 1.081543
Cr11  Cr    Cr6+3 0.116590 0.510620 0.750610 1.071947
Cr12  Cr    Cr6+3 0.883410 0.510620 0.249390 1.075521
H1    H     H_    0.815072 0.123922 0.956375 0.144046
H2    H     H_    0.202195 0.148638 0.040915 0.141504
H3    H     H_    0.315061 0.623936 0.956381 0.144056
H4    H     H_    0.702204 0.648666 0.040910 0.141279
H5    H     H_    0.651171 0.833322 0.068817 0.132767
H6    H     H_    0.343353 0.819005 0.932950 0.136792
H7    H     H_    0.151213 0.333233 0.068802 0.132359
H8    H     H_    0.843360 0.319022 0.932948 0.137049
H9    H     H_    0.634371 0.889631 0.943854 0.181318
H10   H     H_    0.360103 0.875128 0.058364 0.189183
H11   H     H_    0.134476 0.389411 0.943819 0.181095
H12   H     H_    0.860130 0.375179 0.058356 0.189354
H13   H     H_    0.006479 0.937770 0.435895 0.129295
H14   H     H_    0.103080 0.807763 0.543845 0.147735
H15   H     H_    0.504211 0.446976 0.444511 0.132156
H16   H     H_    0.599727 0.322089 0.554421 0.160822
H17   H     H_    0.621170 0.953211 0.548700 0.177389
H18   H     H_    0.269545 0.795315 0.409874 0.134063
H19   H     H_    0.122434 0.441328 0.550295 0.176890
H20   H     H_    0.789694 0.303809 0.414331 0.142918
H21   H     H_    0.632756 0.905200 0.417886 0.174071
H22   H     H_    0.238840 0.739240 0.532810 0.104390
H23   H     H_    0.131581 0.398512 0.419915 0.168743
H24   H     H_    0.761022 0.244564 0.535979 0.112120
H25   H     H_    0.838832 0.050856 0.416502 0.160916
H26   H     H_    0.245251 0.097556 0.606313 0.129960
H27   H     H_    0.333674 0.560640 0.413280 0.159314
H28   H     H_    0.731884 0.601784 0.605383 0.138349
H29   H     H_    0.504033 0.971833 0.936839 0.152296
H30   H     H_    0.500281 0.971823 0.062240 0.151918
H31   H     H_    0.005606 0.471718 0.937331 0.152329
H32   H     H_    0.001799 0.471959 0.062748 0.151584
O1    O     O_R   0.787510 0.042610 0.670410 -0.532696
O2    O     O_R   0.212490 0.042610 0.329590 -0.528910
O3    O     O_R   0.287510 0.542610 0.670410 -0.533059
O4    O     O_R   0.712490 0.542610 0.329590 -0.527068
O5    O     O_R   0.556450 0.252890 0.823790 -0.517118
O6    O     O_R   0.443550 0.252890 0.176210 -0.511114
O7    O     O_R   0.056450 0.752890 0.823790 -0.514986
O8    O     O_R   0.943550 0.752890 0.176210 -0.509928
O9    O     O_R   0.545750 0.051070 0.830560 -0.519078
O10   O     O_R   0.454250 0.051070 0.169440 -0.522129
O11   O     O_R   0.045750 0.551070 0.830560 -0.518422
O12   O     O_R   0.954250 0.551070 0.169440 -0.521152
O13   O     O_R   0.681210 0.959150 0.825320 -0.455971
O14   O     O_R   0.318790 0.959150 0.174680 -0.464000
O15   O     O_R   0.181210 0.459150 0.825320 -0.455982
O16   O     O_R   0.818790 0.459150 0.174680 -0.462935
O17   O     O_3   0.667820 0.167810 0.749960 -0.305281
O18   O     O_3   0.332180 0.167810 0.250040 -0.305271
O19   O     O_3   0.167820 0.667810 0.749960 -0.305344
O20   O     O_3   0.832180 0.667810 0.250040 -0.316312
O21   O     O_R   0.765670 0.292090 0.675090 -0.500964
O22   O     O_R   0.234330 0.292090 0.324910 -0.528119
O23   O     O_R   0.265670 0.792090 0.675090 -0.503060
O24   O     O_R   0.734330 0.792090 0.324910 -0.532665
O25   O     O_R   0.670220 0.409020 0.668560 -0.543834
O26   O     O_R   0.329780 0.409020 0.331440 -0.513904
O27   O     O_R   0.170220 0.909020 0.668560 -0.544219
O28   O     O_R   0.829780 0.909020 0.331440 -0.518588
O29   O     O_R   0.556580 0.251590 0.674980 -0.528515
O30   O     O_R   0.443420 0.251590 0.325020 -0.509206
O31   O     O_R   0.056580 0.751590 0.674980 -0.525842
O32   O     O_R   0.943420 0.751590 0.325020 -0.512432
O33   O     O_R   0.545890 0.049670 0.670030 -0.470199
O34   O     O_R   0.454110 0.049670 0.329970 -0.458631
O35   O     O_R   0.045890 0.549670 0.670030 -0.468465
O36   O     O_R   0.954110 0.549670 0.329970 -0.460693
O37   O     O_R   0.681340 0.957860 0.676500 -0.474433
O38   O     O_R   0.318660 0.957860 0.323500 -0.464136
O39   O     O_R   0.181340 0.457860 0.676500 -0.475132
O40   O     O_R   0.818660 0.457860 0.323500 -0.467228
O41   O     O_R   0.787380 0.044010 0.830940 -0.531280
O42   O     O_R   0.212620 0.044010 0.169060 -0.521387
O43   O     O_R   0.287380 0.544010 0.830940 -0.531664
O44   O     O_R   0.712620 0.544010 0.169060 -0.519125
O45   O     O_R   0.765540 0.293390 0.823910 -0.523662
O46   O     O_R   0.234460 0.293390 0.176090 -0.534461
O47   O     O_R   0.265540 0.793390 0.823910 -0.524009
O48   O     O_R   0.734460 0.793390 0.176090 -0.531769
O49   O     O_R   0.670090 0.410410 0.829090 -0.468696
O50   O     O_R   0.329910 0.410410 0.170910 -0.457219
O51   O     O_R   0.170090 0.910410 0.829090 -0.469098
O52   O     O_R   0.829910 0.910410 0.170910 -0.456438
Br1   Br    Br    0.428722 0.926363 0.608554 -0.523506
Br2   Br    Br    0.477655 0.894883 0.437302 -0.584626
Br3   Br    Br    0.927237 0.427997 0.613476 -0.513169
Br4   Br    Br    0.965543 0.396261 0.440612 -0.577763
Br5   Br    Br    0.855379 0.130505 0.104363 -0.563971
Br6   Br    Br    0.162008 0.147049 0.890396 -0.559137
Br7   Br    Br    0.355373 0.630505 0.104370 -0.564268
Br8   Br    Br    0.662024 0.647086 0.890389 -0.558969
C101  C     C_3   0.594413 0.339057 0.409399 -0.279823
C102  C     C_3   0.632160 0.218811 0.416378 -0.416769
H33   H     H_    0.647407 0.201540 0.472453 0.145641
H34   H     H_    0.599514 0.143914 0.395788 0.172866
H35   H     H_    0.680723 0.219139 0.382548 0.151002
H36   H     H_    0.575423 0.346501 0.353311 0.176682
H37   H     H_    0.633542 0.411423 0.417652 0.176611
C103  C     C_3   0.533889 0.478583 0.585174 -0.264604
C104  C     C_3   0.493628 0.473006 0.657090 -0.371047
H38   H     H_    0.450220 0.405924 0.656147 0.160098
H39   H     H_    0.530134 0.455399 0.702000 0.201131
H40   H     H_    0.470176 0.561991 0.669542 0.126075
H41   H     H_    0.585986 0.518232 0.597321 0.171720
H42   H     H_    0.507348 0.542405 0.551269 0.128966
C105  C     C_3   0.088958 0.816164 0.398496 -0.277617
C106  C     C_3   0.120830 0.691859 0.406274 -0.416155
H43   H     H_    0.138083 0.676695 0.461878 0.148602
H44   H     H_    0.083173 0.620950 0.389804 0.194373
H45   H     H_    0.167661 0.683461 0.370187 0.145958
H46   H     H_    0.067850 0.823778 0.343310 0.185393
H47   H     H_    0.132187 0.882637 0.402507 0.164748
C107  C     C_3   0.049329 0.978273 0.570372 -0.256726
C108  C     C_3   0.011961 0.987931 0.643874 -0.364837
H48   H     H_    0.967695 0.923388 0.649373 0.154638
H49   H     H_    0.049284 0.974388 0.688448 0.209072
H50   H     H_    0.990622 0.079707 0.651595 0.127009
H51   H     H_    0.104165 0.011881 0.576472 0.169960
H52   H     H_    0.026339 0.043470 0.534649 0.123460
C109  C     C_3   0.861566 0.087831 0.555912 -0.281155
C110  C     C_3   0.912596 0.151151 0.505937 -0.435676
H53   H     H_    0.938299 0.088846 0.467506 0.136000
H54   H     H_    0.882640 0.216172 0.474882 0.216128
H55   H     H_    0.953687 0.198869 0.537685 0.214923
H56   H     H_    0.849240 0.158294 0.596322 0.220914
H57   H     H_    0.888714 0.012724 0.581366 0.177788
C111  C     C_3   0.221685 0.185541 0.478381 -0.269260
C112  C     C_3   0.143952 0.169577 0.454514 -0.400107
H58   H     H_    0.126468 0.075041 0.455029 0.142891
H59   H     H_    0.107896 0.220389 0.491072 0.154195
H60   H     H_    0.136427 0.200391 0.398913 0.194303
H61   H     H_    0.223398 0.243034 0.527458 0.155381
H62   H     H_    0.256326 0.227893 0.439364 0.169085
C113  C     C_3   0.356673 0.600403 0.553282 -0.280667
C114  C     C_3   0.407386 0.663353 0.502503 -0.430312
H63   H     H_    0.433594 0.600414 0.464654 0.137751
H64   H     H_    0.378180 0.729925 0.471446 0.223323
H65   H     H_    0.449038 0.709231 0.534202 0.220259
H66   H     H_    0.341238 0.670907 0.592389 0.223574
H67   H     H_    0.385226 0.528929 0.580631 0.178519
C115  C     C_3   0.706582 0.685161 0.477488 -0.300524
C116  C     C_3   0.629921 0.681784 0.504133 -0.444588
H68   H     H_    0.605134 0.597465 0.485208 0.152362
H69   H     H_    0.627606 0.693112 0.563349 0.160566
H70   H     H_    0.597809 0.753564 0.481322 0.190548
H71   H     H_    0.737111 0.758320 0.503498 0.169729
H72   H     H_    0.702454 0.697325 0.420698 0.210235
C117  C     C_3   0.521327 0.391536 0.081764 -0.265043
C118  C     C_3   0.588990 0.451242 0.055377 -0.433154
H73   H     H_    0.599436 0.531472 0.089460 0.175040
H74   H     H_    0.634237 0.388347 0.059478 0.180323
H75   H     H_    0.584853 0.481311 0.999376 0.177759
H76   H     H_    0.532572 0.374235 0.138929 0.178787
H77   H     H_    0.476042 0.454389 0.080287 0.196293
C119  C     C_3   0.479499 0.391744 0.924619 -0.278506
C120  C     C_3   0.414397 0.377997 0.876899 -0.398716
H78   H     H_    0.366595 0.360001 0.910246 0.181817
H79   H     H_    0.407120 0.462316 0.847404 0.174771
H80   H     H_    0.420602 0.305045 0.836460 0.163682
H81   H     H_    0.466936 0.466246 0.962322 0.156608
H82   H     H_    0.525453 0.422778 0.892467 0.198702
C121  C     C_3   0.021308 0.891755 0.081962 -0.265205
C122  C     C_3   0.088812 0.951923 0.055541 -0.433249
H83   H     H_    0.099097 0.032248 0.089599 0.174462
H84   H     H_    0.134199 0.889319 0.059644 0.180456
H85   H     H_    0.084580 0.981897 0.999524 0.177984
H86   H     H_    0.032592 0.874550 0.139136 0.178130
H87   H     H_    0.975858 0.954266 0.080467 0.196367
C123  C     C_3   0.979351 0.891370 0.924841 -0.278585
C124  C     C_3   0.914033 0.877005 0.877494 -0.396867
H88   H     H_    0.866413 0.859128 0.911133 0.180805
H89   H     H_    0.906519 0.961051 0.847803 0.176419
H90   H     H_    0.920125 0.803742 0.837242 0.165160
H91   H     H_    0.966806 0.965935 0.962502 0.156385
H92   H     H_    0.025084 0.922592 0.892438 0.199197

loop_
_geom_bond_atom_site_label_1
_geom_bond_atom_site_label_2
_ccdc_geom_bond_type
C58   C62   A    
C117  H76   S    
C49   H1    S    
C116  H69   S    
C15   C19   A    
C123  H92   S    
C93   C94   A    
Cr6   O6    S    
C55   C59   A    
C124  H89   S    
C34   C37   A    
Cr6   O26   S    
C41   C42   A    
C14   C18   A    
C95   C96   A    
C8    C96   S    
C21   H25   S    
C43   C44   A    
C75   O39   A    
C68   H12   S    
C118  H75   S    
C106  H44   S    
C97   C98   A    
Cr10  O18   S    
C81   O9    A    
C7    C8    S    
Cr12  O40   S    
C46   C89   S    
Cr7   O27   S    
C113  H66   S    
C24   H28   S    
C43   C121  S    
Cr5   O49   S    
Cr8   O20   S    
Cr1   O1    S    
C123  C124  S    
C50   C54   A    
Cr5   O25   S    
C66   C70   A    
C37   C41   A    
Cr10  O10   S    
C64   C68   A    
C23   H27   S    
C28   C115  S    
C39   C84   S    
C38   C42   A    
Cr1   O45   S    
C5    C6    S    
C30   C74   S    
C81   O5    A    
C83   O11   A    
C103  H41   S    
C101  H37   S    
C107  H51   S    
Cr4   O48   S    
C12   H20   S    
C92   C96   A    
C79   O51   A    
C79   O47   A    
C3    C18   S    
C112  H58   S    
C78   O50   A    
C57   C61   A    
C46   O34   A    
Cr3   O19   S    
C9    C13   A    
C105  H46   S    
Cr8   O8    S    
C11   C15   A    
C35   C36   A    
C15   H23   S    
C87   O15   A    
C6    C94   S    
C48   C91   S    
C78   O46   A    
C119  H81   S    
C76   O40   A    
C47   O35   A    
C46   O30   A    
C44   C123  S    
C23   C27   A    
C91   C100  A    
Cr8   O52   S    
Cr9   O9    S    
C109  C110  S    
C2    O22   A    
C90   C97   A    
Cr1   O17   S    
Cr10  O14   S    
C114  H65   S    
C9    C29   A    
Cr12  O36   S    
Cr7   O7    S    
C122  H83   S    
C25   C109  S    
C48   O32   A    
C52   H4    S    
C116  H70   S    
C55   Br7   S    
C123  H91   S    
Cr2   O22   S    
C49   C69   A    
C120  H78   S    
C12   C32   A    
C124  H90   S    
C111  H62   S    
C80   O48   A    
C57   C80   S    
C40   C83   S    
C88   O44   A    
C110  H54   S    
C47   C92   S    
Cr1   O41   S    
C114  H63   S    
C59   C78   S    
Cr7   O51   S    
C106  H43   S    
C72   C88   S    
C114  H64   S    
Cr9   O13   S    
C90   C94   A    
C83   O7    A    
Cr5   O5    S    
C104  H39   S    
C25   C29   A    
Cr12  O20   S    
Cr4   O44   S    
C60   C77   S    
C98   Br2   S    
C4    O28   A    
C27   C31   A    
C63   H7    S    
C12   C16   A    
C27   C113  S    
C28   C32   A    
Cr3   O43   S    
Cr11  O35   S    
C54   Br6   S    
Cr6   O50   S    
C21   C25   A    
C10   C14   A    
C105  C106  S    
C62   C66   A    
C102  H33   S    
C118  H74   S    
C14   H22   S    
C51   C55   A    
C75   O3    A    
C104  H38   S    
C61   H5    S    
C36   C39   A    
C51   H3    S    
C4    O24   A    
C6    C103  S    
C73   O1    A    
C68   C72   A    
C112  H59   S    
C110  H55   S    
C26   C111  S    
C19   C23   A    
C109  H56   S    
C10   H18   S    
C63   C67   A    
C32   C76   S    
C115  C116  S    
C52   C72   A    
C45   O29   A    
C41   C117  S    
Cr4   O24   S    
C86   O42   A    
C73   O37   A    
C10   C30   A    
C5    C93   S    
C108  H48   S    
C122  H85   S    
C115  H72   S    
C16   C20   A    
C77   O49   A    
C5    H15   S    
C66   H10   S    
C33   C34   A    
Cr6   O30   S    
Cr11  O19   S    
C11   C31   A    
Cr2   O42   S    
Cr3   O23   S    
C7    H13   S    
C88   O16   A    
Cr1   O21   S    
C45   C90   S    
C86   O14   A    
C76   O4    A    
C82   O6    A    
C58   C79   S    
C2    O26   A    
C71   C87   S    
C4    C17   S    
C113  H67   S    
C8    H14   S    
C108  H49   S    
C121  C122  S    
C122  H84   S    
C26   C30   A    
C124  H88   S    
C65   H9    S    
C120  H79   S    
C38   C81   S    
Cr12  O12   S    
C111  H61   S    
Cr5   O17   S    
C37   C82   S    
C120  H80   S    
Cr3   O47   S    
C110  H53   S    
Cr11  O39   S    
C17   C21   A    
C42   C119  S    
C116  H68   S    
C70   C86   S    
C84   O8    A    
C31   C75   S    
C48   O36   A    
C69   C85   S    
Cr2   O18   S    
C54   C58   A    
C104  H40   S    
Cr9   O37   S    
C65   C69   A    
C101  C102  S    
C34   H30   S    
C1    C20   S    
C8    C107  S    
Cr12  O16   S    
C85   O41   A    
C2    C19   S    
C18   C22   A    
C6    H16   S    
C13   H21   S    
C74   O2    A    
C1    O21   A    
C24   C28   A    
Cr7   O19   S    
C67   H11   S    
Cr4   O20   S    
C87   O43   A    
C113  C114  S    
C51   C71   A    
C117  H77   S    
C118  H73   S    
C74   O38   A    
C9    H17   S    
C105  H47   S    
C7    C95   S    
C22   H26   S    
C59   C63   A    
C33   C38   A    
C64   H8    S    
C99   C100  A    
C13   C17   A    
C89   C98   A    
C60   C64   A    
C80   O52   A    
C77   O45   A    
C112  H60   S    
C119  C120  S    
Cr8   O28   S    
C121  H86   S    
C109  H57   S    
C11   H19   S    
Cr4   O4    S    
Cr9   O17   S    
Cr2   O2    S    
C45   O33   A    
C84   O12   A    
C102  H35   S    
C3    O27   A    
C103  H42   S    
C117  C118  S    
Cr7   O31   S    
C101  H36   S    
C99   Br3   S    
C107  H52   S    
Cr8   O32   S    
C1    O25   A    
C111  C112  S    
Cr2   O46   S    
C53   C57   A    
C35   C40   A    
C67   C71   A    
Cr6   O18   S    
C61   C65   A    
C89   C93   A    
C121  H87   S    
C53   Br5   S    
C50   C70   A    
C62   H6    S    
C49   C53   A    
C56   Br8   S    
C5    C101  S    
C33   H29   S    
C82   O10   A    
C56   C60   A    
C3    O23   A    
C40   C44   A    
C108  H50   S    
C29   C73   S    
C103  C104  S    
Cr10  O38   S    
C91   C95   A    
C107  C108  S    
C22   C26   A    
C39   C43   A    
C119  H82   S    
C7    C105  S    
C85   O13   A    
Cr9   O33   S    
Cr10  O34   S    
C100  Br4   S    
Cr5   O29   S    
C50   H2    S    
C115  H71   S    
C36   H32   S    
C102  H34   S    
Cr11  O11   S    
C20   C24   A    
C106  H45   S    
C47   O31   A    
C52   C56   A    
C92   C99   A    
C35   H31   S    
Cr3   O3    S    
C97   Br1   S    
Cr11  O15   S    
C16   H24   S    
