data_mof_unit_35137.cif
_audit_creation_date              2012-12-10T20:34:54-0500
_audit_creation_method            fapswitch 2.2
_symmetry_space_group_name_H-M    P1
_symmetry_Int_Tables_number       1
_space_group_crystal_system       triclinic
_cell_length_a                    10.632224
_cell_length_b                    10.677088
_cell_length_c                    9.856631
_cell_angle_alpha                 90.085093
_cell_angle_beta                  90.096804
_cell_angle_gamma                 89.958137
_cell_volume                      1118.93336549

loop_
_atom_site_label
_atom_site_type_symbol
_atom_type_description
_atom_site_fract_x
_atom_site_fract_y
_atom_site_fract_z
_atom_type_partial_charge
C1    C     C_R   0.496404 0.259986 0.499983 0.875343
C2    C     C_3   0.878746 0.499144 0.499022 0.162123
C3    C     C_3   0.927917 0.619712 0.568671 -0.411856
C4    C     C_3   0.928308 0.494784 0.350842 -0.381762
C5    C     C_R   0.476783 0.063822 0.623086 0.031943
C6    C     C_R   0.477198 0.128639 0.500484 -0.122201
C7    C     C_R   0.453141 0.064675 0.378779 -0.220440
C8    C     C_R   0.452560 0.935148 0.378833 -0.235626
C9    C     C_R   0.475421 0.871300 0.500726 -0.093067
C10   C     C_R   0.474315 0.936207 0.623259 0.120919
C11   C     C_3   0.558310 0.926891 0.744830 -0.575529
C12   C     C_R   0.257606 0.499198 0.499688 0.826928
C13   C     C_3   0.561133 0.069425 0.745273 -0.170412
C14   C     C_R   0.448392 0.402312 0.070924 0.231133
C15   C     C_R   0.561531 0.590161 0.072272 -0.139784
C16   C     C_R   0.561640 0.590096 0.928222 -0.128878
C17   C     C_R   0.448551 0.402264 0.928311 0.263060
C18   C     C_3   0.315231 0.359988 0.921715 -0.534312
C19   C     C_3   0.314729 0.360628 0.075717 -0.532287
C20   C     C_R   0.495865 0.740026 0.500082 0.873539
C21   C     C_R   0.742375 0.499569 0.499832 0.835120
C22   C     C_3   0.072307 0.382614 0.576644 -0.414639
C23   C     C_3   0.927906 0.382686 0.576427 -0.367770
C24   C     C_3   0.072295 0.619757 0.567997 -0.396708
C25   C     C_3   0.071049 0.493366 0.350860 -0.400893
C26   C     C_3   0.121205 0.498778 0.498846 0.183936
H1    H     H_    0.106747 0.383530 0.683278 0.180646
H2    H     H_    0.894700 0.577986 0.293059 0.177202
H3    H     H_    0.107132 0.703725 0.512771 0.157881
H4    H     H_    0.892279 0.704045 0.514481 0.153911
H5    H     H_    0.443577 0.113498 0.283042 0.167361
H6    H     H_    0.443054 0.886117 0.283058 0.168856
H7    H     H_    0.508161 0.887325 0.833851 0.202014
H8    H     H_    0.649767 0.880915 0.721382 0.188283
H9    H     H_    0.513512 0.111447 0.834933 0.171138
H10   H     H_    0.609232 0.664213 0.126832 0.145914
H11   H     H_    0.107643 0.295152 0.528219 0.159051
H12   H     H_    0.609668 0.663891 0.874078 0.143201
H13   H     H_    0.251845 0.431714 0.876843 0.214894
H14   H     H_    0.306376 0.264625 0.877324 0.198817
H15   H     H_    0.251595 0.433287 0.118918 0.215297
H16   H     H_    0.304746 0.265734 0.120613 0.196612
H17   H     H_    0.892556 0.295412 0.527602 0.156899
H18   H     H_    0.893616 0.383570 0.683048 0.220311
H19   H     H_    0.107456 0.625935 0.674266 0.177062
H20   H     H_    0.893822 0.625099 0.675272 0.178412
H21   H     H_    0.106033 0.574768 0.291280 0.176431
H22   H     H_    0.104175 0.406119 0.300231 0.173859
H23   H     H_    0.893043 0.409450 0.297890 0.182994
N1    N     N_R   0.499150 0.499140 0.142800 -0.108553
N2    N     N_R   0.499150 0.499180 0.857150 -0.103122
O1    O     O_R   0.500020 0.316790 0.614690 -0.600843
O2    O     O_R   0.500000 0.316760 0.385350 -0.621290
O3    O     O_R   0.314800 0.500000 0.614670 -0.631722
O4    O     O_R   0.314790 0.499960 0.385330 -0.629762
O5    O     O_R   0.500000 0.683240 0.614650 -0.618618
O6    O     O_R   0.499980 0.683210 0.385310 -0.629132
O7    O     O_R   0.685210 0.500040 0.614670 -0.607081
O8    O     O_R   0.685200 0.500000 0.385330 -0.627029
Zn1   Zn    Zn3+2 0.500010 0.500020 0.653130 0.959037
Zn2   Zn    Zn3+2 0.499990 0.499980 0.346870 0.935044
C27   C     C_2   0.689617 0.122221 0.716932 0.452877
H24   H     H_    0.743287 0.090076 0.629902 0.038949
O9    O     O_2   0.734090 0.201939 0.791706 -0.593679

loop_
_geom_bond_atom_site_label_1
_geom_bond_atom_site_label_2
_ccdc_geom_bond_type
C3    H4    S    
C2    C4    S    
C18   H13   S    
C16   N2    A    
O6    Zn2   S    
C27   H24   S    
O1    Zn1   S    
C9    C10   A    
C25   H21   S    
C9    C20   S    
C5    C13   S    
C25   H22   S    
C19   H16   S    
C4    H23   S    
C20   O5    A    
C21   O7    A    
C17   N2    A    
C2    C21   S    
C17   C18   S    
C20   O6    A    
C5    C10   A    
C21   O8    A    
O3    Zn1   S    
C1    O2    A    
C11   C13   S    
C14   C17   A    
C3    C24   S    
C6    C7    A    
C24   H19   S    
O4    Zn2   S    
C4    H2    S    
C24   C26   S    
C4    C25   S    
C2    C3    S    
C22   H1    S    
C11   H8    S    
C5    C6    A    
C1    O1    A    
O8    Zn2   S    
C12   O4    A    
C7    H5    S    
C10   C11   S    
C14   N1    A    
O7    Zn1   S    
C15   C16   A    
C8    H6    S    
C19   H15   S    
C15   H10   S    
C11   H7    S    
C23   H17   S    
C7    C8    A    
C22   C26   S    
C15   N1    A    
C16   H12   S    
C2    C23   S    
N1    Zn2   S    
C18   H14   S    
C22   C23   S    
C18   C19   S    
C27   O9    D    
N2    Zn1   S    
C3    H20   S    
C25   C26   S    
C24   H3    S    
C22   H11   S    
O2    Zn2   S    
C14   C19   S    
C13   H9    S    
C12   O3    A    
C13   C27   S    
O5    Zn1   S    
C12   C26   S    
C8    C9    A    
C23   H18   S    
C1    C6    S    
