data_mof_unit_36296.cif
_audit_creation_date              2012-12-11T14:24:46-0500
_audit_creation_method            fapswitch 2.2
_symmetry_space_group_name_H-M    P1
_symmetry_Int_Tables_number       1
_space_group_crystal_system       triclinic
_cell_length_a                    18.903514
_cell_length_b                    11.023008
_cell_length_c                    18.555951
_cell_angle_alpha                 89.781033
_cell_angle_beta                  91.417167
_cell_angle_gamma                 89.663939
_cell_volume                      3865.2904437

loop_
_atom_site_label
_atom_site_type_symbol
_atom_type_description
_atom_site_fract_x
_atom_site_fract_y
_atom_site_fract_z
_atom_type_partial_charge
C1    C     C_R   0.729123 0.373197 0.144584 0.546092
C2    C     C_R   0.269224 0.376038 0.853697 0.528454
C3    C     C_R   0.229122 0.873192 0.144579 0.534171
C4    C     C_R   0.769221 0.876053 0.853688 0.540308
C5    C     C_3   0.474973 0.048925 0.032558 -0.101870
C6    C     C_3   0.521041 0.086652 0.969240 -0.097723
C7    C     C_3   0.974947 0.548927 0.032579 -0.102061
C8    C     C_3   0.021012 0.586670 0.969263 -0.096681
C9    C     C_R   0.751296 0.908445 0.927504 -0.006801
C10   C     C_R   0.241761 0.895214 0.067973 -0.001009
C11   C     C_R   0.251300 0.408392 0.927520 -0.003393
C12   C     C_R   0.741764 0.395236 0.067983 -0.004291
C13   C     C_R   0.698032 0.847307 0.966708 0.021365
C14   C     C_R   0.301700 0.848514 0.032027 0.019982
C15   C     C_R   0.198055 0.347215 0.966738 0.021890
C16   C     C_R   0.801710 0.348556 0.032048 0.019888
C17   C     C_R   0.703564 0.844722 0.043007 0.025677
C18   C     C_R   0.299355 0.842984 0.955754 0.022632
C19   C     C_R   0.203591 0.344656 0.043039 0.024701
C20   C     C_R   0.799374 0.343027 0.955776 0.024062
C21   C     C_R   0.805510 0.977101 0.038240 -0.155959
C22   C     C_R   0.183409 0.937183 0.953052 -0.154965
C23   C     C_R   0.305507 0.477098 0.038243 -0.157568
C24   C     C_R   0.683414 0.437187 0.953055 -0.154271
C25   C     C_R   0.803331 0.973828 0.964837 -0.152376
C26   C     C_R   0.182443 0.933841 0.026820 -0.156185
C27   C     C_R   0.303324 0.473809 0.964841 -0.151116
C28   C     C_R   0.682445 0.433854 0.026822 -0.156759
C29   C     C_R   0.640672 0.786013 0.933152 -0.083769
C30   C     C_R   0.363247 0.805087 0.068734 -0.102236
C31   C     C_R   0.140699 0.285882 0.933201 -0.083646
C32   C     C_R   0.863253 0.305136 0.068770 -0.102503
C33   C     C_R   0.097627 0.210296 0.972942 -0.128102
C34   C     C_R   0.915309 0.242628 0.031939 -0.149611
C35   C     C_R   0.597605 0.710389 0.972868 -0.128122
C36   C     C_R   0.415301 0.742593 0.031887 -0.148881
C37   C     C_R   0.607164 0.700342 0.047050 -0.129821
C38   C     C_R   0.408701 0.726667 0.957828 -0.133873
C39   C     C_R   0.107190 0.200288 0.047126 -0.130790
C40   C     C_R   0.908722 0.226708 0.957879 -0.133235
C41   C     C_R   0.659405 0.767136 0.082138 -0.081212
C42   C     C_R   0.351776 0.777220 0.919799 -0.082648
C43   C     C_R   0.159443 0.267077 0.082193 -0.082051
C44   C     C_R   0.851807 0.277275 0.919837 -0.081851
C45   C     C_R   0.530482 0.155715 0.145492 0.551217
C46   C     C_R   0.436277 0.151149 0.862204 0.573488
C47   C     C_R   0.030462 0.655717 0.145506 0.544480
C48   C     C_R   0.936265 0.651148 0.862206 0.577705
C49   C     C_R   0.753936 0.918897 0.078080 -0.008297
C50   C     C_R   0.244153 0.903068 0.917409 -0.008352
C51   C     C_R   0.253947 0.418876 0.078094 -0.011777
C52   C     C_R   0.744164 0.403085 0.917421 -0.006311
C53   C     C_R   0.499706 0.171186 0.578581 0.000988
C54   C     C_R   0.516484 0.150651 0.430671 0.004409
C55   C     C_R   0.962813 0.650942 0.564374 0.001177
C56   C     C_R   0.995855 0.669470 0.419294 0.001666
C57   C     C_R   0.541895 0.076857 0.553006 0.020708
C58   C     C_R   0.541606 0.055480 0.478421 0.032108
C59   C     C_R   0.942578 0.556868 0.515613 0.011650
C60   C     C_R   0.950803 0.576603 0.441363 0.019453
C61   C     C_R   0.477734 0.246774 0.457567 -0.159758
C62   C     C_R   0.466986 0.254263 0.530709 -0.133404
C63   C     C_R   0.026064 0.748805 0.469886 -0.137177
C64   C     C_R   0.008445 0.741235 0.541530 -0.142814
C65   C     C_R   0.574851 0.992749 0.601078 -0.077362
C66   C     C_R   0.559589 0.935567 0.456642 -0.097993
C67   C     C_R   0.923829 0.438154 0.537404 -0.115040
C68   C     C_R   0.924367 0.490689 0.391576 -0.075558
C69   C     C_R   0.918184 0.345336 0.487003 -0.158715
C70   C     C_R   0.914854 0.372417 0.413897 -0.105324
C71   C     C_R   0.588663 0.875555 0.578474 -0.101450
C72   C     C_R   0.576500 0.846065 0.506849 -0.156101
C73   C     C_R   0.793356 0.833291 0.557680 0.032743
C74   C     C_R   0.261142 0.968912 0.408116 0.017521
C75   C     C_R   0.236927 0.470280 0.592395 0.014057
C76   C     C_R   0.707113 0.331956 0.443271 0.025683
C77   C     C_R   0.847912 0.894598 0.518993 -0.002465
C78   C     C_R   0.216224 0.058813 0.435796 0.010898
C79   C     C_R   0.281402 0.559707 0.564504 0.011572
C80   C     C_R   0.652155 0.393787 0.481704 -0.001496
C81   C     C_R   0.840557 0.903000 0.442874 0.035142
C82   C     C_R   0.214181 0.075404 0.511266 0.008962
C83   C     C_R   0.284788 0.574270 0.488936 0.009109
C84   C     C_R   0.659250 0.403280 0.557891 0.029109
C85   C     C_R   0.728805 0.801168 0.444400 -0.133690
C86   C     C_R   0.327992 0.969858 0.520209 -0.122001
C87   C     C_R   0.170893 0.471330 0.479688 -0.120514
C88   C     C_R   0.771018 0.300566 0.557769 -0.132791
C89   C     C_R   0.742889 0.966971 0.149901 0.530719
C90   C     C_R   0.256805 0.963972 0.848949 0.546605
C91   C     C_R   0.242892 0.466963 0.149911 0.547130
C92   C     C_R   0.756811 0.463989 0.848962 0.529462
C93   C     C_R   0.743666 0.768063 0.516029 0.064199
C94   C     C_R   0.323780 0.943941 0.445901 0.076587
C95   C     C_R   0.174216 0.446228 0.554267 0.076202
C96   C     C_R   0.757726 0.267585 0.485828 0.071732
C97   C     C_R   0.908767 0.950295 0.551145 -0.123246
C98   C     C_R   0.171225 0.127918 0.389330 -0.069586
C99   C     C_R   0.325432 0.628893 0.611002 -0.066836
C100  C     C_R   0.590431 0.446907 0.449066 -0.107130
C101  C     C_R   0.959783 0.005885 0.509620 -0.164616
C102  C     C_R   0.115035 0.192770 0.416348 -0.123157
C103  C     C_R   0.382473 0.691012 0.584361 -0.121019
C104  C     C_R   0.538875 0.502827 0.489850 -0.163087
C105  C     C_R   0.955589 0.999650 0.435120 -0.128577
C106  C     C_R   0.105493 0.194790 0.489916 -0.134857
C107  C     C_R   0.393742 0.689938 0.511086 -0.135142
C108  C     C_R   0.543286 0.498956 0.564429 -0.130738
C109  C     C_R   0.897889 0.944131 0.401952 -0.075961
C110  C     C_R   0.156132 0.143644 0.537261 -0.077726
C111  C     C_R   0.343857 0.639374 0.463297 -0.077106
C112  C     C_R   0.601657 0.445227 0.598318 -0.070538
C113  C     C_R   0.773214 0.881491 0.410438 -0.009638
C114  C     C_R   0.269769 0.021696 0.555468 -0.031008
C115  C     C_R   0.229623 0.521280 0.444530 -0.032260
C116  C     C_R   0.726283 0.380701 0.591062 -0.024115
C117  C     C_R   0.708783 0.327324 0.362067 0.592288
C118  C     C_R   0.265213 0.390908 0.651656 0.542158
C119  C     C_R   0.234397 0.890735 0.348430 0.546211
C120  C     C_R   0.791403 0.827835 0.638390 0.586619
C121  C     C_R   0.536395 0.154327 0.355370 0.539798
C122  C     C_R   0.468717 0.158499 0.648492 0.530133
C123  C     C_R   0.031002 0.658285 0.351316 0.520489
C124  C     C_R   0.939393 0.652127 0.638635 0.545284
C125  C     C_R   0.747318 0.959219 0.349966 0.557360
C126  C     C_R   0.271931 0.027746 0.635917 0.572598
C127  C     C_R   0.227953 0.527209 0.363964 0.570097
C128  C     C_R   0.752256 0.457745 0.651397 0.546301
C129  C     C_3   0.482203 0.274340 0.978297 -0.113931
C130  C     C_3   0.436287 0.236383 0.042656 -0.137395
C131  C     C_3   0.982155 0.774346 0.978322 -0.113467
C132  C     C_3   0.936243 0.736371 0.042682 -0.138745
C133  C     C_3   0.545398 0.200705 0.010195 -0.121348
C134  C     C_3   0.411517 0.122019 0.000799 -0.133826
C135  C     C_3   0.045356 0.700727 0.010219 -0.119146
C136  C     C_3   0.911484 0.622003 0.000819 -0.134769
C137  C     C_3   0.499166 0.162891 0.073064 0.043977
C138  C     C_3   0.458114 0.159507 0.938074 0.056163
C139  C     C_3   0.999130 0.662895 0.073087 0.044678
C140  C     C_3   0.958079 0.659507 0.938092 0.053932
Cr1   Cr    Cr6+3 0.772820 0.169820 0.252640 0.985609
Cr2   Cr    Cr6+3 0.227180 0.169820 0.747360 0.993817
Cr3   Cr    Cr6+3 0.272820 0.669820 0.252640 0.997871
Cr4   Cr    Cr6+3 0.727180 0.669820 0.747360 0.986163
Cr5   Cr    Cr6+3 0.615040 0.323610 0.249150 0.989017
Cr6   Cr    Cr6+3 0.384960 0.323610 0.750850 0.981942
Cr7   Cr    Cr6+3 0.115040 0.823610 0.249150 0.984520
Cr8   Cr    Cr6+3 0.884960 0.823610 0.750850 0.985979
Cr9   Cr    Cr6+3 0.616720 0.011130 0.250660 0.992012
Cr10  Cr    Cr6+3 0.383280 0.011130 0.749340 0.985139
Cr11  Cr    Cr6+3 0.116720 0.511130 0.250660 0.988913
Cr12  Cr    Cr6+3 0.883280 0.511130 0.749340 0.981766
H1    H     H_    0.601111 0.230580 0.015607 0.125849
H2    H     H_    0.356050 0.090407 0.995036 0.121239
H3    H     H_    0.101066 0.730620 0.015632 0.126545
H4    H     H_    0.856019 0.590382 0.995056 0.122071
H5    H     H_    0.454596 0.314800 0.421697 0.124973
H6    H     H_    0.431100 0.323580 0.549624 0.155267
H7    H     H_    0.065217 0.814863 0.454434 0.151285
H8    H     H_    0.031444 0.805281 0.579407 0.140768
H9    H     H_    0.582419 0.013089 0.657806 0.128206
H10   H     H_    0.551555 0.899577 0.403491 0.158963
H11   H     H_    0.921103 0.409050 0.592382 0.169592
H12   H     H_    0.921217 0.509670 0.334265 0.125943
H13   H     H_    0.914889 0.252582 0.505306 0.109978
H14   H     H_    0.907999 0.302034 0.373980 0.113739
H15   H     H_    0.604813 0.806450 0.617075 0.145043
H16   H     H_    0.579219 0.753421 0.488872 0.099699
H17   H     H_    0.684060 0.762680 0.415208 0.120287
H18   H     H_    0.375568 0.945576 0.550717 0.150356
H19   H     H_    0.123497 0.448071 0.448985 0.153257
H20   H     H_    0.816272 0.263903 0.587627 0.113621
H21   H     H_    0.922494 0.949007 0.607386 0.173277
H22   H     H_    0.177894 0.127844 0.331503 0.125847
H23   H     H_    0.317771 0.629595 0.668686 0.126517
H24   H     H_    0.576556 0.443248 0.392940 0.173590
H25   H     H_    0.005528 0.045426 0.536079 0.116188
H26   H     H_    0.078044 0.239392 0.380221 0.112558
H27   H     H_    0.419050 0.737087 0.620618 0.112808
H28   H     H_    0.492520 0.540361 0.462817 0.111836
H29   H     H_    0.997671 0.035373 0.402997 0.122337
H30   H     H_    0.059407 0.239956 0.510395 0.129588
H31   H     H_    0.440869 0.731549 0.491123 0.119903
H32   H     H_    0.500816 0.534877 0.596101 0.122782
H33   H     H_    0.897101 0.937045 0.343747 0.123783
H34   H     H_    0.147261 0.161529 0.592960 0.192204
H35   H     H_    0.354479 0.654591 0.407636 0.189730
H36   H     H_    0.602537 0.439642 0.656608 0.127683
H37   H     H_    0.485066 0.366903 0.954758 0.114047
H38   H     H_    0.402731 0.296370 0.075478 0.117491
H39   H     H_    0.985009 0.866915 0.954792 0.114765
H40   H     H_    0.902687 0.796340 0.075514 0.114774
H41   H     H_    0.474603 0.957472 0.057069 0.144432
H42   H     H_    0.555871 0.025230 0.938536 0.133948
H43   H     H_    0.974593 0.457478 0.057095 0.144258
H44   H     H_    0.055852 0.525252 0.938567 0.135105
H45   H     H_    0.847069 0.030018 0.063689 0.155440
H46   H     H_    0.137650 0.973929 0.924062 0.141223
H47   H     H_    0.347056 0.530048 0.063682 0.155623
H48   H     H_    0.637654 0.473919 0.924059 0.139235
H49   H     H_    0.627335 0.796011 0.876587 0.137098
H50   H     H_    0.373179 0.820165 0.125468 0.135455
H51   H     H_    0.127360 0.295835 0.876636 0.140119
H52   H     H_    0.873182 0.320231 0.125505 0.133181
H53   H     H_    0.845847 0.017781 0.937382 0.149704
H54   H     H_    0.133136 0.958254 0.051284 0.146035
H55   H     H_    0.345828 0.517782 0.937377 0.149736
H56   H     H_    0.633135 0.458264 0.051282 0.145366
H57   H     H_    0.058506 0.155799 0.945498 0.093396
H58   H     H_    0.960060 0.204846 0.061493 0.105757
H59   H     H_    0.558492 0.655901 0.945406 0.091914
H60   H     H_    0.460055 0.704810 0.061432 0.107079
H61   H     H_    0.074722 0.139366 0.077711 0.095921
H62   H     H_    0.946226 0.172363 0.929354 0.096382
H63   H     H_    0.574702 0.639389 0.077617 0.097549
H64   H     H_    0.446199 0.672320 0.929295 0.094614
H65   H     H_    0.666732 0.753600 0.139612 0.125492
H66   H     H_    0.347384 0.759245 0.862581 0.125656
H67   H     H_    0.166777 0.253558 0.139670 0.123658
H68   H     H_    0.847428 0.259307 0.862620 0.127966
O1    O     O_R   0.788190 0.043000 0.172520 -0.533475
O2    O     O_R   0.211810 0.043000 0.827480 -0.514428
O3    O     O_R   0.288190 0.543000 0.172520 -0.521146
O4    O     O_R   0.711810 0.543000 0.827480 -0.526716
O5    O     O_R   0.556550 0.253260 0.323480 -0.532071
O6    O     O_R   0.443450 0.253260 0.676520 -0.502322
O7    O     O_R   0.056550 0.753260 0.323480 -0.507179
O8    O     O_R   0.943450 0.753260 0.676520 -0.524044
O9    O     O_R   0.545830 0.051610 0.330160 -0.542661
O10   O     O_R   0.454170 0.051610 0.669840 -0.535717
O11   O     O_R   0.045830 0.551610 0.330160 -0.540665
O12   O     O_R   0.954170 0.551610 0.669840 -0.529635
O13   O     O_R   0.681920 0.959720 0.327070 -0.504478
O14   O     O_R   0.318080 0.959720 0.672930 -0.503344
O15   O     O_R   0.181920 0.459720 0.327070 -0.503616
O16   O     O_R   0.818080 0.459720 0.672930 -0.527103
O17   O     O_3   0.668190 0.168190 0.250820 -0.256679
O18   O     O_3   0.331810 0.168190 0.749180 -0.279385
O19   O     O_3   0.168190 0.668190 0.250820 -0.258822
O20   O     O_3   0.831810 0.668190 0.749180 -0.292504
O21   O     O_R   0.766240 0.292300 0.176860 -0.505358
O22   O     O_R   0.233760 0.292300 0.823140 -0.514067
O23   O     O_R   0.266240 0.792300 0.176860 -0.510320
O24   O     O_R   0.733760 0.792300 0.823140 -0.509802
O25   O     O_R   0.670310 0.409160 0.168720 -0.524272
O26   O     O_R   0.329690 0.409160 0.831280 -0.538424
O27   O     O_R   0.170310 0.909160 0.168720 -0.533374
O28   O     O_R   0.829690 0.909160 0.831280 -0.529944
O29   O     O_R   0.556160 0.251900 0.173380 -0.503049
O30   O     O_R   0.443840 0.251900 0.826620 -0.505165
O31   O     O_R   0.056160 0.751900 0.173380 -0.504225
O32   O     O_R   0.943840 0.751900 0.826620 -0.497023
O33   O     O_R   0.545410 0.050140 0.168240 -0.520092
O34   O     O_R   0.454590 0.050140 0.831760 -0.522655
O35   O     O_R   0.045410 0.550140 0.168240 -0.524568
O36   O     O_R   0.954590 0.550140 0.831760 -0.511947
O37   O     O_R   0.681530 0.958350 0.176970 -0.504706
O38   O     O_R   0.318470 0.958350 0.823030 -0.519214
O39   O     O_R   0.181530 0.458350 0.176970 -0.499071
O40   O     O_R   0.818470 0.458350 0.823030 -0.523471
O41   O     O_R   0.788610 0.044480 0.334450 -0.527386
O42   O     O_R   0.211390 0.044480 0.665550 -0.534164
O43   O     O_R   0.288610 0.544480 0.334450 -0.538273
O44   O     O_R   0.711390 0.544480 0.665550 -0.506806
O45   O     O_R   0.766630 0.293670 0.326970 -0.498728
O46   O     O_R   0.233370 0.293670 0.673030 -0.500969
O47   O     O_R   0.266630 0.793670 0.326970 -0.496901
O48   O     O_R   0.733370 0.793670 0.673030 -0.477941
O49   O     O_R   0.670730 0.410640 0.330640 -0.549878
O50   O     O_R   0.329270 0.410640 0.669360 -0.534137
O51   O     O_R   0.170730 0.910640 0.330640 -0.536195
O52   O     O_R   0.829270 0.910640 0.669360 -0.553440
N1    N     N_3   0.717869 0.656701 0.542405 -0.589200
H69   H     H_    0.737259 0.589431 0.508525 0.231323
H70   H     H_    0.663118 0.655763 0.538758 0.243114
N2    N     N_3   0.383047 0.898150 0.407721 -0.637748
H71   H     H_    0.427963 0.910416 0.439957 0.219907
H72   H     H_    0.390501 0.954704 0.363191 0.231368
N3    N     N_3   0.113774 0.403633 0.591958 -0.637519
H73   H     H_    0.068278 0.426206 0.561746 0.229907
H74   H     H_    0.109516 0.454531 0.639127 0.243320
N4    N     N_3   0.790391 0.161302 0.458964 -0.589979
H75   H     H_    0.815594 0.116489 0.501801 0.232216
H76   H     H_    0.829829 0.186245 0.424272 0.261311

loop_
_geom_bond_atom_site_label_1
_geom_bond_atom_site_label_2
_ccdc_geom_bond_type
C128  O16   A    
C99   C103  A    
C133  C137  S    
C55   C59   A    
Cr8   O52   S    
C73   C93   A    
C136  C140  S    
C75   C95   A    
C135  C139  S    
N4    H75   S    
C84   C112  A    
C79   C99   A    
C5    C6    S    
Cr10  O34   S    
C123  O7    A    
C100  C104  A    
C121  O5    A    
C9    C13   A    
C46   O30   A    
C131  C140  S    
C92   O40   A    
C11   C15   A    
C50   C90   S    
C66   C72   A    
C12   C16   A    
Cr9   O17   S    
C87   C115  A    
C59   C60   A    
C8    C135  S    
C26   H54   S    
C68   H12   S    
C30   H50   S    
Cr8   O32   S    
C97   H21   S    
C108  H32   S    
C56   C123  S    
Cr3   O19   S    
C92   O4    A    
Cr12  O36   S    
C48   C140  S    
C109  H33   S    
C98   C102  A    
Cr5   O5    S    
C85   H17   S    
C32   C34   A    
C48   O32   A    
C78   C82   A    
C11   C27   A    
C16   C20   A    
C87   H19   S    
C124  O12   A    
C36   H60   S    
C129  C133  S    
C28   H56   S    
C90   O38   A    
C6    H42   S    
Cr8   O20   S    
Cr1   O41   S    
C21   H45   S    
C42   H66   S    
Cr10  O10   S    
C117  O49   A    
C5    C137  S    
Cr12  O16   S    
C54   C61   A    
C30   C36   A    
C119  O51   A    
C29   C35   A    
C127  O15   A    
C120  O52   A    
Cr5   O25   S    
C8    C140  S    
C1    O25   A    
C76   C96   A    
Cr4   O24   S    
N3    H74   S    
C69   C70   A    
C24   H48   S    
C27   H55   S    
C65   H9    S    
C73   C77   A    
C103  C107  A    
C75   C79   A    
C130  H38   S    
Cr1   O1    S    
C88   C116  A    
Cr8   O8    S    
C63   H7    S    
C21   C49   A    
Cr11  O39   S    
C7    C8    S    
C132  C139  S    
Cr5   O29   S    
C53   C122  S    
C18   C42   A    
C89   O1    A    
C114  C126  S    
Cr9   O33   S    
Cr4   O20   S    
C34   H58   S    
C59   C67   A    
C85   C93   A    
Cr11  O11   S    
Cr6   O18   S    
C129  H37   S    
Cr7   O51   S    
C77   C97   A    
C132  H40   S    
C47   O31   A    
C84   C116  A    
C71   H15   S    
C72   H16   S    
C1    C12   S    
C2    C11   S    
C20   C44   A    
C121  O9    A    
C39   H61   S    
C83   C115  A    
C10   C14   A    
C17   C49   A    
Cr7   O7    S    
Cr2   O22   S    
Cr9   O13   S    
C87   C95   A    
C93   N1    S    
C132  C136  S    
Cr11  O15   S    
C54   C58   A    
C2    O22   A    
Cr9   O37   S    
C54   C121  S    
C74   C78   A    
C102  H26   S    
Cr3   O23   S    
C47   C139  S    
C129  C130  S    
C105  C109  A    
C110  H34   S    
C40   H62   S    
C86   H18   S    
C107  C111  A    
Cr2   O46   S    
C41   H65   S    
C15   C31   A    
Cr7   O19   S    
C16   C32   A    
N4    H76   S    
C13   C17   A    
Cr9   O9    S    
C85   C113  A    
C7    C136  S    
C57   C58   A    
N1    H70   S    
C46   O34   A    
C37   C41   A    
C61   C62   A    
C126  O14   A    
C69   H13   S    
C91   O39   A    
C63   C64   A    
C67   H11   S    
C40   C44   A    
C99   H23   S    
N2    H71   S    
C125  O41   A    
C105  H29   S    
C4    C9    S    
C4    O24   A    
C117  O45   A    
C118  O50   A    
C24   C52   A    
C88   C96   A    
C120  O48   A    
C74   C94   A    
C80   C84   A    
C9    C25   A    
C130  C134  S    
C15   C19   A    
Cr7   O31   S    
C12   C28   A    
C13   C29   A    
C6    C133  S    
C94   N2    S    
C122  O6    A    
C66   H10   S    
C21   C25   A    
C51   C91   S    
C44   H68   S    
C100  H24   S    
N3    H73   S    
C62   H6    S    
C22   C50   A    
C73   C120  S    
Cr4   O48   S    
C75   C118  S    
C3    O27   A    
C25   H53   S    
C19   C43   A    
C29   H49   S    
C24   C28   A    
C49   C89   S    
C53   C57   A    
Cr6   O6    S    
Cr1   O21   S    
C108  C112  A    
C32   H52   S    
C47   O35   A    
C61   H5    S    
Cr6   O50   S    
C64   H8    S    
C81   C109  A    
C83   C111  A    
C52   C92   S    
Cr3   O43   S    
C7    H43   S    
C131  C132  S    
Cr4   O44   S    
C104  C108  A    
C18   C50   A    
C5    H41   S    
Cr2   O18   S    
C55   C124  S    
C22   H46   S    
C43   H67   S    
C57   C65   A    
C38   C42   A    
Cr11  O19   S    
Cr6   O26   S    
C111  H35   S    
C76   C117  S    
C36   C38   A    
C2    O26   A    
Cr10  O14   S    
C79   C83   A    
C134  H2    S    
C136  H4    S    
C127  O43   A    
C8    H44   S    
C103  H27   S    
C128  O44   A    
C101  H25   S    
C56   C60   A    
C71   C72   A    
C123  O11   A    
C60   C68   A    
C77   C81   A    
C22   C26   A    
C81   C113  A    
Cr2   O42   S    
C130  C137  S    
C37   H63   S    
C88   H20   S    
C14   C18   A    
C135  H3    S    
C74   C119  S    
C33   C39   A    
Cr6   O30   S    
C133  H1    S    
C82   C110  A    
C35   C37   A    
C90   O2    A    
C131  C135  S    
C70   H14   S    
Cr3   O3    S    
C98   H22   S    
C113  C125  S    
C23   H47   S    
Cr8   O28   S    
C115  C127  S    
C126  O42   A    
Cr5   O49   S    
C35   H59   S    
C4    O28   A    
C86   C94   A    
C118  O46   A    
C33   H57   S    
C58   C66   A    
C106  H30   S    
C129  C138  S    
Cr10  O18   S    
Cr5   O17   S    
C78   C98   A    
C31   C33   A    
C23   C27   A    
C48   O36   A    
C31   H51   S    
C46   C138  S    
C45   O29   A    
C10   C26   A    
C134  C138  S    
Cr7   O27   S    
C80   C100  A    
C14   C30   A    
C124  O8    A    
C101  C105  A    
C5    C134  S    
C122  O10   A    
C95   N3    S    
C89   O37   A    
C82   C114  A    
C39   C43   A    
C65   C71   A    
C96   N4    S    
C107  H31   S    
C67   C69   A    
Cr1   O45   S    
C6    C138  S    
C53   C62   A    
Cr12  O40   S    
C23   C51   A    
Cr12  O20   S    
C119  O47   A    
C55   C64   A    
C45   C137  S    
N1    H69   S    
C56   C63   A    
C3    O23   A    
C1    O21   A    
N2    H72   S    
C76   C80   A    
Cr11  O35   S    
C106  C110  A    
Cr1   O17   S    
C38   H64   S    
C112  H36   S    
C131  H39   S    
C86   C114  A    
C20   C52   A    
C3    C10   S    
Cr10  O38   S    
C7    C139  S    
C104  H28   S    
C102  C106  A    
Cr3   O47   S    
C17   C41   A    
Cr4   O4    S    
C125  O13   A    
C19   C51   A    
C68   C70   A    
C116  C128  S    
C34   C40   A    
Cr12  O12   S    
C91   O3    A    
Cr2   O2    S    
C97   C101  A    
C45   O33   A    
