data_mof_unit_65754.cif
_audit_creation_date              2012-12-10T18:09:11-0500
_audit_creation_method            fapswitch 2.2
_symmetry_space_group_name_H-M    P1
_symmetry_Int_Tables_number       1
_space_group_crystal_system       triclinic
_cell_length_a                    21.681361
_cell_length_b                    21.681361
_cell_length_c                    18.252697
_cell_angle_alpha                 89.999988
_cell_angle_beta                  89.999988
_cell_angle_gamma                 89.999739
_cell_volume                      8580.25362981

loop_
_atom_site_label
_atom_site_type_symbol
_atom_type_description
_atom_site_fract_x
_atom_site_fract_y
_atom_site_fract_z
_atom_type_partial_charge
C1    C     C_R   0.000000 0.379982 0.500000 0.995942
C2    C     C_R   0.500000 0.000000 0.359021 0.925510
C3    C     C_R   1.000000 0.500000 0.640979 0.925510
C4    C     C_R   0.500000 1.000000 0.640979 0.925509
C5    C     C_R   0.500000 0.000000 0.859021 0.925509
C6    C     C_R   0.000000 0.500000 0.859021 0.925510
C7    C     C_R   0.500000 1.000000 0.140979 0.925510
C8    C     C_R   1.000000 0.500000 0.140979 0.925509
C9    C     C_1   0.000000 0.500000 0.282434 -0.124877
C10   C     C_1   0.500000 0.000000 0.282434 -0.124877
C11   C     C_1   1.000000 0.500000 0.717566 -0.124877
C12   C     C_R   0.379982 0.000000 0.500000 0.995942
C13   C     C_1   0.500000 1.000000 0.717566 -0.124877
C14   C     C_1   0.500000 1.000000 0.782434 -0.124877
C15   C     C_1   1.000000 0.500000 0.782434 -0.124877
C16   C     C_1   0.500000 1.000000 0.217566 -0.124877
C17   C     C_1   1.000000 0.500000 0.217566 -0.124877
C18   C     C_R   0.041294 0.282793 0.545170 0.480667
C19   C     C_R   0.282793 0.958707 0.545171 0.480678
C20   C     C_R   0.958705 0.717206 0.545170 0.480668
C21   C     C_R   0.717206 0.041293 0.545171 0.480678
C22   C     C_R   0.041292 0.717206 0.454828 0.480678
C23   C     C_R   1.000000 0.620018 0.500000 0.995942
C24   C     C_R   0.282793 0.041294 0.454830 0.480668
C25   C     C_R   0.958707 0.282793 0.454829 0.480678
C26   C     C_R   0.717206 0.958705 0.454830 0.480668
C27   C     C_R   0.541295 0.782793 0.045170 0.480668
C28   C     C_R   0.782793 0.458707 0.045171 0.480678
C29   C     C_R   0.458706 0.217206 0.045170 0.480668
C30   C     C_R   0.217206 0.541293 0.045171 0.480678
C31   C     C_R   0.541292 0.217206 0.954828 0.480678
C32   C     C_R   0.782793 0.541294 0.954830 0.480668
C33   C     C_R   0.458707 0.782793 0.954829 0.480678
C34   C     C_R   0.620018 1.000000 0.500000 0.995941
C35   C     C_R   0.217207 0.458705 0.954830 0.480667
C36   C     C_R   0.042722 0.218868 0.544974 -0.155398
C37   C     C_R   0.218869 0.957281 0.544975 -0.155409
C38   C     C_R   0.957278 0.781131 0.544974 -0.155399
C39   C     C_R   0.781131 0.042719 0.544975 -0.155409
C40   C     C_R   0.042719 0.781131 0.455025 -0.155409
C41   C     C_R   0.218869 0.042722 0.455026 -0.155399
C42   C     C_R   0.957281 0.218869 0.455025 -0.155409
C43   C     C_R   0.781131 0.957278 0.455026 -0.155399
C44   C     C_R   0.542722 0.718868 0.044974 -0.155399
C45   C     C_R   0.500000 0.879982 1.000000 0.995942
C46   C     C_R   0.718869 0.457281 0.044975 -0.155409
C47   C     C_R   0.457278 0.281131 0.044974 -0.155399
C48   C     C_R   0.281131 0.542719 0.044975 -0.155409
C49   C     C_R   0.542719 0.281131 0.955025 -0.155409
C50   C     C_R   0.718869 0.542722 0.955026 -0.155399
C51   C     C_R   0.457281 0.718869 0.955025 -0.155409
C52   C     C_R   0.281131 0.457278 0.955026 -0.155398
C53   C     C_R   0.000001 0.186722 0.500000 -0.204608
C54   C     C_R   0.186722 0.000001 0.500000 -0.204608
C55   C     C_R   0.999999 0.813278 0.500000 -0.204608
C56   C     C_R   0.879982 0.500000 0.000000 0.995942
C57   C     C_R   0.813278 0.999999 0.500000 -0.204608
C58   C     C_R   0.500001 0.686722 1.000000 -0.204608
C59   C     C_R   0.686722 0.500001 0.000000 -0.204608
C60   C     C_R   0.499999 0.313278 1.000000 -0.204608
C61   C     C_R   0.313278 0.499999 0.000000 -0.204608
C62   C     C_R   0.879529 1.000000 0.500000 1.125198
C63   C     C_R   0.000000 0.120471 0.500000 1.125198
C64   C     C_R   0.120471 0.000000 0.500000 1.125197
C65   C     C_R   1.000000 0.879528 0.500000 1.125197
C66   C     C_R   0.379529 0.500000 0.000000 1.125198
C67   C     C_R   0.500000 0.120018 1.000000 0.995942
C68   C     C_R   0.500000 0.620471 1.000000 1.125198
C69   C     C_R   0.620471 0.500000 0.000000 1.125197
C70   C     C_R   0.500000 0.379528 0.000000 1.125197
C71   C     C_R   0.000000 0.314052 0.500000 -0.265696
C72   C     C_R   0.314053 0.000000 0.500000 -0.265696
C73   C     C_R   0.999999 0.685947 0.500000 -0.265696
C74   C     C_R   0.685947 0.999999 0.500000 -0.265696
C75   C     C_R   0.500000 0.814052 1.000000 -0.265696
C76   C     C_R   0.814052 0.500000 0.000000 -0.265696
C77   C     C_R   0.499999 0.185947 1.000000 -0.265696
C78   C     C_R   0.120018 0.500000 0.000000 0.995941
C79   C     C_R   0.185947 0.499999 0.000000 -0.265696
C80   C     C_2   0.090458 0.188570 0.591427 0.526334
C81   C     C_2   0.188570 0.909547 0.591430 0.526361
C82   C     C_2   0.909542 0.811430 0.591427 0.526333
C83   C     C_2   0.811430 0.090453 0.591430 0.526361
C84   C     C_2   0.090453 0.811430 0.408569 0.526361
C85   C     C_2   0.188570 0.090457 0.408573 0.526334
C86   C     C_2   0.909547 0.188570 0.408570 0.526360
C87   C     C_2   0.811430 0.909542 0.408573 0.526334
C88   C     C_2   0.590458 0.688570 0.091427 0.526334
C89   C     C_R   0.000000 0.500000 0.359021 0.925509
C90   C     C_2   0.688570 0.409547 0.091430 0.526361
C91   C     C_2   0.409542 0.311430 0.091427 0.526333
C92   C     C_2   0.311430 0.590453 0.091430 0.526360
C93   C     C_2   0.590453 0.311430 0.908570 0.526361
C94   C     C_2   0.688570 0.590457 0.908573 0.526334
C95   C     C_2   0.409547 0.688570 0.908570 0.526360
C96   C     C_2   0.311430 0.409542 0.908573 0.526334
F1    F     F_    0.080590 0.314952 0.589059 -0.653159
F2    F     F_    0.814952 0.419412 0.089061 -0.653154
F3    F     F_    0.419410 0.185047 0.089059 -0.653159
F4    F     F_    0.185047 0.580588 0.089060 -0.653154
F5    F     F_    0.580588 0.185047 0.910939 -0.653154
F6    F     F_    0.814953 0.580590 0.910941 -0.653159
F7    F     F_    0.419412 0.814952 0.910940 -0.653154
F8    F     F_    0.185047 0.419410 0.910941 -0.653159
F9    F     F_    0.314953 0.919412 0.589060 -0.653154
F10   F     F_    0.919410 0.685047 0.589059 -0.653159
F11   F     F_    0.685047 0.080588 0.589060 -0.653154
F12   F     F_    0.080588 0.685047 0.410939 -0.653154
F13   F     F_    0.314953 0.080590 0.410941 -0.653159
F14   F     F_    0.919412 0.314952 0.410940 -0.653154
F15   F     F_    0.685047 0.919410 0.410941 -0.653159
F16   F     F_    0.580590 0.814952 0.089058 -0.653159
H1    H     H_    0.107762 0.212027 0.639774 0.121179
H2    H     H_    0.712022 0.392252 0.139785 0.121164
H3    H     H_    0.392239 0.287973 0.139774 0.121179
H4    H     H_    0.287978 0.607748 0.139784 0.121165
H5    H     H_    0.607748 0.287978 0.860215 0.121164
H6    H     H_    0.712027 0.607761 0.860225 0.121179
H7    H     H_    0.392251 0.712022 0.860216 0.121165
H8    H     H_    0.287973 0.392238 0.860226 0.121179
H9    H     H_    0.212022 0.892252 0.639785 0.121164
H10   H     H_    0.892239 0.787973 0.639775 0.121179
H11   H     H_    0.787978 0.107748 0.639784 0.121165
H12   H     H_    0.107748 0.787978 0.360215 0.121164
H13   H     H_    0.212027 0.107761 0.360225 0.121179
H14   H     H_    0.892252 0.212022 0.360216 0.121165
H15   H     H_    0.787973 0.892238 0.360226 0.121179
H16   H     H_    0.607762 0.712027 0.139774 0.121179
O1    O     O_R   0.948270 0.408400 0.500040 -0.582829
O2    O     O_R   0.908400 0.551730 0.000040 -0.582831
O3    O     O_R   0.551730 0.091600 0.000040 -0.582830
O4    O     O_R   0.091600 0.448270 0.000040 -0.582831
O5    O     O_R   0.448270 0.091600 0.999960 -0.582831
O6    O     O_R   0.908400 0.448270 0.999960 -0.582829
O7    O     O_R   0.551730 0.908400 0.999960 -0.582831
O8    O     O_R   0.091600 0.551730 0.999960 -0.582830
O9    O     O_R   0.948270 0.500020 0.392700 -0.610314
O10   O     O_R   0.500020 0.051730 0.392700 -0.610314
O11   O     O_R   0.051730 0.499980 0.392700 -0.610314
O12   O     O_R   0.408400 0.051730 0.500040 -0.582831
O13   O     O_R   0.499980 0.948270 0.392700 -0.610313
O14   O     O_R   0.948270 0.499980 0.607300 -0.610313
O15   O     O_R   0.500020 0.948270 0.607300 -0.610314
O16   O     O_R   0.051730 0.500020 0.607300 -0.610314
O17   O     O_R   0.499980 0.051730 0.607300 -0.610314
O18   O     O_R   0.448270 0.000020 0.892700 -0.610314
O19   O     O_R   0.000020 0.551730 0.892700 -0.610314
O20   O     O_R   0.551730 0.999980 0.892700 -0.610314
O21   O     O_R   0.999980 0.448270 0.892700 -0.610313
O22   O     O_R   0.448270 0.999980 0.107300 -0.610313
O23   O     O_R   0.051730 0.591600 0.500040 -0.582830
O24   O     O_R   0.000020 0.448270 0.107300 -0.610314
O25   O     O_R   0.551730 0.000020 0.107300 -0.610314
O26   O     O_R   0.999980 0.551730 0.107300 -0.610314
O27   O     O_R   0.908270 0.000020 0.560600 -0.605023
O28   O     O_R   0.000020 0.091730 0.560600 -0.605014
O29   O     O_R   0.091730 0.999980 0.560600 -0.605024
O30   O     O_R   0.999980 0.908270 0.560600 -0.605015
O31   O     O_R   0.908270 0.999980 0.439400 -0.605014
O32   O     O_R   0.000020 0.908270 0.439400 -0.605023
O33   O     O_R   0.091730 0.000020 0.439400 -0.605014
O34   O     O_R   0.591600 0.948270 0.500040 -0.582831
O35   O     O_R   0.999980 0.091730 0.439400 -0.605023
O36   O     O_R   0.408270 0.500020 0.060600 -0.605023
O37   O     O_R   0.500020 0.591730 0.060600 -0.605014
O38   O     O_R   0.591730 0.499980 0.060600 -0.605024
O39   O     O_R   0.499980 0.408270 0.060600 -0.605015
O40   O     O_R   0.408270 0.499980 0.939400 -0.605014
O41   O     O_R   0.500020 0.408270 0.939400 -0.605023
O42   O     O_R   0.591730 0.500020 0.939400 -0.605014
O43   O     O_R   0.499980 0.591730 0.939400 -0.605023
O44   O     O_2   0.113186 0.139008 0.574998 -0.560791
O45   O     O_R   0.948270 0.591600 0.499960 -0.582831
O46   O     O_2   0.139014 0.886811 0.574996 -0.560780
O47   O     O_2   0.886814 0.860992 0.574999 -0.560790
O48   O     O_2   0.860986 0.113189 0.574996 -0.560781
O49   O     O_2   0.113189 0.860986 0.425003 -0.560780
O50   O     O_2   0.139008 0.113186 0.425001 -0.560791
O51   O     O_2   0.886811 0.139014 0.425004 -0.560781
O52   O     O_2   0.860992 0.886814 0.425002 -0.560791
O53   O     O_2   0.613186 0.639008 0.074998 -0.560791
O54   O     O_2   0.639014 0.386811 0.074996 -0.560780
O55   O     O_2   0.386814 0.360991 0.074999 -0.560791
O56   O     O_R   0.408400 0.948270 0.499960 -0.582830
O57   O     O_2   0.360986 0.613189 0.074996 -0.560781
O58   O     O_2   0.613189 0.360986 0.925004 -0.560780
O59   O     O_2   0.639008 0.613186 0.925001 -0.560791
O60   O     O_2   0.386811 0.639014 0.925004 -0.560781
O61   O     O_2   0.360992 0.386814 0.925002 -0.560791
O62   O     O_R   0.051730 0.408400 0.499960 -0.582831
O63   O     O_R   0.591600 0.051730 0.499960 -0.582830
O64   O     O_R   0.448270 0.908400 0.000040 -0.582829
Zn1   Zn    Zn3+2 0.930920 0.500000 0.500000 1.085850
Zn2   Zn    Zn3+2 0.000000 0.000000 0.419070 1.082629
Zn3   Zn    Zn3+2 0.500000 0.500000 0.080930 1.082629
Zn4   Zn    Zn3+2 0.500000 0.500000 0.919070 1.082629
Zn5   Zn    Zn3+2 0.500000 0.069080 0.500000 1.085850
Zn6   Zn    Zn3+2 0.069080 0.500000 0.500000 1.085850
Zn7   Zn    Zn3+2 0.500000 0.930920 0.500000 1.085850
Zn8   Zn    Zn3+2 0.430920 0.000000 0.000000 1.085850
Zn9   Zn    Zn3+2 0.000000 0.569080 0.000000 1.085850
Zn10  Zn    Zn3+2 0.569080 0.000000 0.000000 1.085850
Zn11  Zn    Zn3+2 1.000000 0.430920 0.000000 1.085850
Zn12  Zn    Zn3+2 1.000000 1.000000 0.580930 1.082629

loop_
_geom_bond_atom_site_label_1
_geom_bond_atom_site_label_2
_ccdc_geom_bond_type
O31   Zn2   S    
C30   C79   A    
C56   C76   S    
C91   O55   D    
C46   C59   A    
C86   H14   S    
C29   C77   A    
O30   Zn12  S    
C40   C84   S    
C85   H13   S    
C20   C73   A    
C67   C77   S    
C4    O15   A    
C87   H15   S    
C48   C61   A    
O36   Zn3   S    
O20   Zn10  S    
C57   C62   S    
C63   O35   A    
C28   C46   A    
C49   C93   S    
C1    C71   S    
C49   C60   A    
C29   C47   A    
C50   C59   A    
C31   F5    S    
C30   C48   A    
C34   O63   A    
C67   O5    A    
C70   O41   A    
C23   C73   S    
C63   O28   A    
C1    O1    A    
C52   C61   A    
C42   C53   A    
C68   O43   A    
C39   C57   A    
C30   F4    S    
C62   O27   A    
C4    C13   S    
O3    Zn10  S    
C78   O4    A    
C69   O38   A    
C53   C63   S    
C36   C53   A    
C19   C37   A    
C87   O52   D    
C6    O21   A    
C11   C15   T    
C27   C44   A    
C33   C75   A    
C2    C10   S    
C38   C55   A    
C90   O54   D    
C44   C58   A    
C85   O50   D    
C89   O11   A    
C7    O25   A    
C64   O29   A    
C95   O60   D    
C12   O12   A    
O24   Zn11  S    
C25   C71   A    
C18   F1    S    
C60   C70   S    
O41   Zn4   S    
C8    O26   A    
O21   Zn11  S    
O40   Zn4   S    
C68   O37   A    
O56   Zn7   S    
C90   H2    S    
C12   C72   S    
C5    O20   A    
C33   F7    S    
C13   C14   T    
C38   C82   S    
C24   C41   A    
O23   Zn6   S    
C37   C81   S    
C19   C72   A    
C3    O14   A    
C93   H5    S    
C31   C49   A    
C65   O32   A    
C27   C75   A    
C61   C66   S    
O22   Zn8   S    
O8    Zn9   S    
C55   C65   S    
C78   O8    A    
C26   C43   A    
C31   C77   A    
O7    Zn10  S    
C20   F10   S    
C46   C90   S    
C24   C72   A    
O9    Zn1   S    
O11   Zn6   S    
C45   O7    A    
C29   F3    S    
C2    O10   A    
O6    Zn11  S    
O38   Zn3   S    
C35   F8    S    
C36   C80   S    
C9    C89   S    
C51   C58   A    
C78   C79   S    
C64   O33   A    
O35   Zn2   S    
C95   H7    S    
C21   C74   A    
C81   H9    S    
C96   O61   D    
O37   Zn3   S    
O12   Zn5   S    
O17   Zn5   S    
C47   C91   S    
C93   O58   D    
C7    O22   A    
C20   C38   A    
C45   O64   A    
O1    Zn1   S    
C21   C39   A    
O19   Zn9   S    
C6    C15   S    
C40   C55   A    
C22   C40   A    
C66   O36   A    
O43   Zn4   S    
O29   Zn12  S    
C94   O59   D    
C92   H4    S    
C32   C50   A    
C5    C14   S    
C21   F11   S    
O2    Zn9   S    
C67   O3    A    
C25   F14   S    
C59   C69   S    
C42   C86   S    
C37   C54   A    
C19   F9    S    
C9    C17   T    
C7    C16   S    
C34   C74   S    
C27   F16   S    
C24   F13   S    
O5    Zn8   S    
C89   O9    A    
O45   Zn1   S    
C32   F6    S    
C33   C51   A    
C80   O44   D    
O27   Zn12  S    
C28   C76   A    
C47   C60   A    
O26   Zn9   S    
C41   C85   S    
O62   Zn6   S    
O32   Zn2   S    
O25   Zn10  S    
C28   F2    S    
C18   C71   A    
C23   O23   A    
O4    Zn11  S    
C5    O18   A    
C8    O24   A    
C92   O57   D    
O39   Zn3   S    
C96   H8    S    
C50   C94   S    
C3    O16   A    
O63   Zn5   S    
C65   O30   A    
C34   O34   A    
C25   C42   A    
C32   C76   A    
C56   O6    A    
C23   O45   A    
C84   H12   S    
O15   Zn7   S    
C8    C17   S    
C66   O40   A    
C45   C75   S    
C43   C87   S    
C81   O46   D    
C39   C83   S    
C88   H16   S    
C10   C16   T    
C70   O39   A    
C1    O62   A    
O42   Zn4   S    
C6    O19   A    
C94   H6    S    
C58   C68   S    
C88   O53   D    
C12   O56   A    
C54   C64   S    
C22   F12   S    
C4    O17   A    
O34   Zn7   S    
C35   C79   A    
C86   O51   D    
C26   C74   A    
O14   Zn1   S    
C91   H3    S    
O33   Zn2   S    
C52   C96   S    
C44   C88   S    
C69   O42   A    
O64   Zn8   S    
O18   Zn8   S    
C84   O49   D    
C41   C54   A    
C3    C11   S    
C43   C57   A    
O10   Zn5   S    
O16   Zn6   S    
C80   H1    S    
C48   C92   S    
C35   C52   A    
C2    O13   A    
C62   O31   A    
C82   O47   D    
O13   Zn7   S    
C22   C73   A    
C83   H11   S    
C83   O48   D    
C18   C36   A    
C26   F15   S    
C82   H10   S    
C56   O2    A    
C51   C95   S    
O28   Zn12  S    
