data_mof_unit_49484.cif
_audit_creation_date              2012-12-10T20:36:37-0500
_audit_creation_method            fapswitch 2.2
_symmetry_space_group_name_H-M    P1
_symmetry_Int_Tables_number       1
_space_group_crystal_system       triclinic
_cell_length_a                    10.510245
_cell_length_b                    10.673265
_cell_length_c                    9.885057
_cell_angle_alpha                 90.013975
_cell_angle_beta                  89.938969
_cell_angle_gamma                 89.972945
_cell_volume                      1108.89136688

loop_
_atom_site_label
_atom_site_type_symbol
_atom_type_description
_atom_site_fract_x
_atom_site_fract_y
_atom_site_fract_z
_atom_type_partial_charge
C1    C     C_R   0.504492 0.260131 0.500055 0.886615
C2    C     C_3   0.961321 0.559471 0.386517 0.171318
C3    C     C_3   0.039837 0.437804 0.391853 -0.169975
C4    C     C_3   0.122502 0.498839 0.500495 -0.057032
C5    C     C_R   0.528402 0.064091 0.622628 0.069116
C6    C     C_R   0.525246 0.128897 0.500503 -0.082581
C7    C     C_R   0.545779 0.064729 0.378559 -0.183431
C8    C     C_R   0.544239 0.935223 0.378580 -0.179862
C9    C     C_R   0.521286 0.871531 0.500363 -0.083564
C10   C     C_R   0.524026 0.936683 0.622452 0.084206
C11   C     C_3   0.441835 0.932231 0.746579 0.001711
C12   C     C_R   0.257418 0.497365 0.500107 0.923239
C13   C     C_3   0.447675 0.074605 0.746726 -0.462049
C14   C     C_R   0.392543 0.528926 0.070953 0.171778
C15   C     C_R   0.608207 0.475085 0.071653 -0.075356
C16   C     C_R   0.608139 0.474716 0.928039 -0.088900
C17   C     C_R   0.393468 0.532681 0.928597 0.203861
C18   C     C_3   0.267331 0.470280 0.918896 -0.507838
C19   C     C_3   0.268637 0.459568 0.071930 -0.052598
C20   C     C_R   0.503098 0.739968 0.500010 0.909022
C21   C     C_R   0.742419 0.505533 0.499945 0.900271
C22   C     C_3   0.039527 0.447267 0.614839 -0.173134
C23   C     C_3   0.954086 0.386410 0.506056 -0.226540
C24   C     C_3   0.877391 0.508144 0.499878 -0.083404
C25   C     C_3   0.960837 0.568907 0.607955 0.198516
C26   C     C_3   0.046675 0.620745 0.494484 -0.213630
H1    H     H_    0.492210 0.889576 0.834048 0.162129
H2    H     H_    0.355087 0.121549 0.726827 0.228146
H3    H     H_    0.694796 0.452126 0.874354 0.174135
H4    H     H_    0.272163 0.379245 0.864431 0.225642
H5    H     H_    0.191286 0.514039 0.121198 0.176704
H6    H     H_    0.088331 0.716118 0.488842 0.190596
H7    H     H_    0.073798 0.383401 0.303567 0.187883
H8    H     H_    0.554111 0.113497 0.282853 0.190169
H9    H     H_    0.552417 0.886265 0.282940 0.186307
N1    N     N_R   0.499140 0.499140 0.142800 -0.104053
N2    N     N_R   0.499140 0.499180 0.857150 -0.109001
O1    O     O_R   0.500020 0.316790 0.614690 -0.624584
O2    O     O_R   0.500000 0.316760 0.385350 -0.600967
O3    O     O_R   0.313960 0.499990 0.614650 -0.619140
O4    O     O_R   0.313940 0.499950 0.385310 -0.611077
O5    O     O_R   0.500000 0.683240 0.614650 -0.598542
O6    O     O_R   0.499980 0.683210 0.385310 -0.620490
O7    O     O_R   0.686060 0.500050 0.614690 -0.618487
O8    O     O_R   0.686040 0.500010 0.385350 -0.616825
Zn1   Zn    Zn3+2 0.500010 0.500020 0.653130 0.975039
Zn2   Zn    Zn3+2 0.499990 0.499980 0.346870 0.987764
H10   H     H_    0.912257 0.290983 0.510691 0.166656
H11   H     H_    0.501665 0.113275 0.833909 0.203243
H12   H     H_    0.694843 0.452665 0.125152 0.174912
H13   H     H_    0.193002 0.535515 0.880960 0.222263
I1    I     I_    0.285555 0.267292 0.135196 -0.362606
H14   H     H_    0.074552 0.400201 0.707655 0.162478
I2    I     I_    0.899520 0.677040 0.777927 -0.317521
I3    I     I_    0.905582 0.655490 0.206489 -0.351139
I4    I     I_    0.252060 0.863632 0.714412 -0.339393

loop_
_geom_bond_atom_site_label_1
_geom_bond_atom_site_label_2
_ccdc_geom_bond_type
C12   O3    A    
C4    C26   S    
C23   C24   S    
C13   H2    S    
C26   H6    S    
C6    C7    A    
C18   H4    S    
C4    C12   S    
C21   O7    A    
C4    C22   S    
C9    C10   A    
C9    C20   S    
C20   O5    A    
N2    Zn1   S    
C11   H1    S    
C16   N2    A    
C19   H5    S    
C17   C18   S    
C16   H3    S    
C7    C8    A    
C2    C26   S    
C17   N2    A    
C3    C4    S    
C24   C25   S    
O3    Zn1   S    
C11   C13   S    
C14   C17   A    
C12   O4    A    
C1    O1    A    
C15   H12   S    
C13   H11   S    
C23   H10   S    
O7    Zn1   S    
C18   H13   S    
C2    C3    S    
C22   H14   S    
C21   O8    A    
C2    I3    S    
O8    Zn2   S    
O4    Zn2   S    
C5    C6    A    
C7    H8    S    
O1    Zn1   S    
C10   C11   S    
C3    H7    S    
C15   C16   A    
C5    C13   S    
C15   N1    A    
C5    C10   A    
C20   O6    A    
C25   I2    S    
N1    Zn2   S    
O2    Zn2   S    
C18   C19   S    
O5    Zn1   S    
C21   C24   S    
C3    C23   S    
C1    O2    A    
C22   C23   S    
C14   C19   S    
C14   N1    A    
C2    C24   S    
C25   C26   S    
O6    Zn2   S    
C19   I1    S    
C22   C25   S    
C11   I4    S    
C1    C6    S    
C8    C9    A    
C8    H9    S    
