data_mof_unit_17271.cif
_audit_creation_date              2012-10-26T19:04:36-0400
_audit_creation_method            fapswitch 2.2
_symmetry_space_group_name_H-M    P1
_symmetry_Int_Tables_number       1
_space_group_crystal_system       triclinic
_cell_length_a                    9.710785
_cell_length_b                    10.906701
_cell_length_c                    13.510402
_cell_angle_alpha                 94.503934
_cell_angle_beta                  74.321601
_cell_angle_gamma                 90.359147
_cell_volume                      1373.26182668

loop_
_atom_site_label
_atom_site_type_symbol
_atom_type_description
_atom_site_fract_x
_atom_site_fract_y
_atom_site_fract_z
_atom_type_partial_charge
C1    C     C_R   0.503755 0.735449 0.489519 0.573755
C2    C     C_R   0.387021 0.461547 0.808267 -0.031821
C3    C     C_R   0.286332 0.877314 0.419636 -0.135677
C4    C     C_R   0.425123 0.488342 0.697911 0.578125
C5    C     C_R   0.167455 0.943629 0.413677 -0.153406
C6    C     C_R   0.137055 0.060080 0.466696 0.317507
C7    C     C_R   0.229644 0.110261 0.521314 0.346214
C8    C     C_R   0.369237 0.058181 0.501488 -0.105669
C9    C     C_R   0.386459 0.932430 0.467352 -0.078724
C10   C     C_R   0.507662 0.868135 0.475932 0.014737
C11   C     C_R   0.629652 0.933688 0.481161 0.237221
C12   C     C_R   0.444916 0.474100 0.973971 -0.016355
C13   C     C_R   0.619881 0.061641 0.503388 0.225003
C14   C     C_R   0.492462 0.126233 0.508512 0.006538
C15   C     C_R   0.902018 0.345182 0.356631 -0.083926
C16   C     C_R   0.497173 0.262298 0.504751 0.594380
C17   C     C_R   0.993406 0.279252 0.275184 -0.225498
C18   C     C_R   0.137714 0.277026 0.266846 0.200539
C19   C     C_R   0.190143 0.338523 0.345008 0.375160
C20   C     C_R   0.099718 0.422202 0.425701 0.175502
C21   C     C_R   0.949555 0.422979 0.428417 0.112541
C22   C     C_R   0.905882 0.577338 0.567134 0.350246
C23   C     C_R   0.490604 0.458808 0.865409 -0.060159
C24   C     C_R   0.051879 0.573290 0.567087 0.035977
C25   C     C_R   0.575328 0.509509 0.302189 0.526664
C26   C     C_R   0.798234 0.527588 0.030374 -0.091951
C27   C     C_R   0.615228 0.525366 0.191053 0.000773
C28   C     C_R   0.244595 0.436849 0.858295 -0.071224
C29   C     C_R   0.204153 0.418868 0.963083 0.217020
C30   C     C_R   0.301625 0.444650 0.021795 -0.046022
C31   C     C_R   0.548185 0.502511 0.029560 0.038905
C32   C     C_R   0.696125 0.502991 0.975189 -0.015443
C33   C     C_R   0.739132 0.464917 0.869089 0.303160
C34   C     C_R   0.635486 0.426278 0.820087 0.290876
C35   C     C_R   0.509794 0.532285 0.137083 0.255154
C36   C     C_R   0.759231 0.530295 0.136979 -0.158318
Cu1   Cu    Cu3+1 0.359340 0.500010 0.500010 1.034117
Cu2   Cu    Cu3+1 0.640660 0.499990 0.499990 1.133474
H1    H     H_    0.842287 0.535397 0.176877 0.149054
H2    H     H_    0.982556 0.092148 0.408008 0.312476
H3    H     H_    0.238241 0.206440 0.646113 0.326258
H4    H     H_    0.775242 0.070378 0.566228 0.409187
H5    H     H_    0.973083 0.841872 0.626914 0.341365
H6    H     H_    0.177658 0.173476 0.137021 0.340957
H7    H     H_    0.358239 0.228277 0.306025 0.345741
H8    H     H_    0.936801 0.514409 0.832761 0.325868
H9    H     H_    0.381595 0.641489 0.240080 0.325043
H10   H     H_    0.055560 0.370761 0.080608 0.317782
H11   H     H_    0.479745 0.191579 0.778125 0.343941
H12   H     H_    0.304260 0.786703 0.379897 0.145860
H13   H     H_    0.837110 0.929270 0.432510 0.324289
H14   H     H_    0.096620 0.902343 0.371345 0.122731
H15   H     H_    0.793719 0.331699 0.358514 0.202007
H16   H     H_    0.950097 0.225865 0.219773 0.127982
H17   H     H_    0.090395 0.633925 0.620794 0.143018
H18   H     H_    0.910058 0.536907 0.992699 0.178887
H19   H     H_    0.166057 0.425219 0.814943 0.189056
H20   H     H_    0.266707 0.430902 0.102776 0.201479
N1    N     N_R   0.852480 0.498790 0.499000 -0.245288
N2    N     N_R   0.148360 0.498710 0.498970 -0.257457
O1    O     O_R   0.381190 0.680360 0.500010 -0.552174
O2    O     O_3   0.176401 0.202237 0.598296 -0.575561
O3    O     O_3   0.732368 0.123592 0.525748 -0.595146
O4    O     O_2   0.653256 0.708086 0.675838 -0.203732
O5    O     O_2   0.844326 0.692448 0.757150 -0.340775
O6    O     O_3   0.880443 0.833295 0.609670 -0.478924
O7    O     O_3   0.231000 0.210237 0.184848 -0.715559
O8    O     O_3   0.327683 0.310243 0.342285 -0.623062
O9    O     O_3   0.880768 0.443890 0.815704 -0.613121
O10   O     O_3   0.373915 0.577155 0.186005 -0.714056
O11   O     O_3   0.070050 0.373977 0.005472 -0.696704
O12   O     O_R   0.618760 0.680340 0.500000 -0.391276
O13   O     O_2   0.786065 0.318480 0.640566 -0.143325
O14   O     O_2   0.745851 0.198755 0.789865 -0.214997
O15   O     O_3   0.531883 0.227191 0.713511 -0.554893
O16   O     O_3   0.759222 0.871642 0.458328 -0.632662
O17   O     O_R   0.323240 0.499990 0.650990 -0.516910
O18   O     O_R   0.560820 0.499960 0.650980 -0.429441
O19   O     O_R   0.381240 0.319660 0.500000 -0.444030
O20   O     O_R   0.618810 0.319640 0.499990 -0.435664
O21   O     O_R   0.439180 0.500040 0.349020 -0.443177
O22   O     O_R   0.676760 0.500010 0.349010 -0.570944
O23   O     O_3   0.019119 0.127791 0.465513 -0.623511
S1    S     S_3+6 0.812219 0.700291 0.655137 0.066119
S2    S     S_3+6 0.678678 0.289905 0.738307 0.103897

loop_
_geom_bond_atom_site_label_1
_geom_bond_atom_site_label_2
_ccdc_geom_bond_type
C26   C32   A    
C19   C20   A    
C7    C8    A    
H9    O10   S    
C28   H19   S    
C24   H17   S    
Cu1   O19   S    
C12   C23   A    
C29   C30   A    
C15   H15   S    
C22   C24   A    
C28   C29   A    
C21   N1    A    
C11   O16   S    
C5    C6    A    
C18   C19   A    
O4    S1    D    
H8    O9    S    
O15   S2    S    
C35   O10   S    
C8    C9    A    
H11   O15   S    
C5    H14   S    
C20   N2    A    
C9    C10   A    
C33   O9    S    
C13   C14   A    
Cu2   O22   S    
C25   O21   A    
H2    O23   S    
Cu1   O21   S    
H3    O2    S    
C3    H12   S    
C33   C34   A    
Cu2   O12   S    
C1    O12   A    
H13   O16   S    
C22   N1    A    
O5    S1    D    
Cu2   O18   S    
C27   C35   A    
C18   O7    S    
Cu1   O17   S    
C26   H18   S    
C16   O20   A    
C34   S2    S    
C22   S1    S    
C2    C4    S    
C7    O2    S    
C4    O18   A    
Cu1   Cu2   S    
C3    C9    A    
C31   C32   A    
C13   O3    S    
C24   N2    A    
C23   C34   A    
H7    O8    S    
C17   C18   A    
C19   O8    S    
C17   H16   S    
O13   S2    D    
C26   C36   A    
C12   C31   A    
C25   O22   A    
C31   C35   A    
H10   O11   S    
C15   C17   A    
C8    C14   A    
C6    O23   S    
C12   C30   A    
C36   H1    S    
C1    C10   S    
C3    C5    A    
C1    O1    A    
Cu1   O1    S    
C6    C7    A    
C27   C36   A    
C25   C27   S    
C16   O19   A    
C32   C33   A    
C4    O17   A    
C11   C13   A    
Cu2   O20   S    
H5    O6    S    
C30   H20   S    
C14   C16   S    
O14   S2    D    
Cu1   N2    S    
C10   C11   A    
O6    S1    S    
Cu2   N1    S    
C15   C21   A    
C20   C21   A    
C2    C23   A    
H6    O7    S    
C2    C28   A    
H4    O3    S    
C29   O11   S    
