data_mof_unit_28395.cif
_audit_creation_date              2012-12-10T17:32:08-0500
_audit_creation_method            fapswitch 2.2
_symmetry_space_group_name_H-M    P1
_symmetry_Int_Tables_number       1
_space_group_crystal_system       triclinic
_cell_length_a                    30.089939
_cell_length_b                    30.089945
_cell_length_c                    30.089969
_cell_angle_alpha                 90.0
_cell_angle_beta                  90.000047
_cell_angle_gamma                 89.999921
_cell_volume                      27243.5966342

loop_
_atom_site_label
_atom_site_type_symbol
_atom_type_description
_atom_site_fract_x
_atom_site_fract_y
_atom_site_fract_z
_atom_type_partial_charge
C1    C     C_R   1.000000 0.413236 0.500000 0.883047
C2    C     C_R   0.586764 1.000000 0.500000 0.883038
C3    C     C_R   0.973521 0.203667 0.468609 0.081774
C4    C     C_R   0.026486 0.468615 0.203667 0.081778
C5    C     C_R   0.026481 0.203667 0.531390 0.081775
C6    C     C_R   0.026486 0.531385 0.796333 0.081776
C7    C     C_R   0.026484 0.796333 0.468613 0.081777
C8    C     C_R   0.531377 0.796334 0.026496 0.081781
C9    C     C_R   0.796333 0.468604 0.026474 0.081773
C10   C     C_R   0.468618 0.203666 0.026490 0.081780
C11   C     C_R   0.203667 0.531392 0.026479 0.081775
C12   C     C_R   0.468623 0.796334 0.973504 0.081777
C13   C     C_R   0.500000 0.000000 0.413235 0.883048
C14   C     C_R   0.203667 0.468609 0.973521 0.081775
C15   C     C_R   0.531383 0.203666 0.973510 0.081777
C16   C     C_R   0.796333 0.531396 0.973526 0.081774
C17   C     C_R   0.796333 0.973520 0.468610 0.081776
C18   C     C_R   0.468612 0.973517 0.203667 0.081776
C19   C     C_R   0.203666 0.973503 0.531376 0.081779
C20   C     C_R   0.531420 0.973554 0.796331 0.081766
C21   C     C_R   0.796333 0.026480 0.531391 0.081775
C22   C     C_R   0.468580 0.026445 0.796331 0.081765
C23   C     C_R   0.203666 0.026498 0.468624 0.081779
C24   C     C_R   0.413235 1.000000 0.500000 0.883044
C25   C     C_R   0.531389 0.026482 0.203667 0.081777
C26   C     C_R   0.473477 0.031355 0.703664 0.081781
C27   C     C_R   0.473522 0.296333 0.031392 0.081776
C28   C     C_R   0.473514 0.968615 0.296333 0.081777
C29   C     C_R   0.473527 0.703667 0.968604 0.081773
C30   C     C_R   0.526523 0.968645 0.703664 0.081782
C31   C     C_R   0.526472 0.703667 0.031397 0.081774
C32   C     C_R   0.526487 0.031384 0.296333 0.081778
C33   C     C_R   0.526480 0.296333 0.968609 0.081775
C34   C     C_R   0.031384 0.296333 0.526488 0.081777
C35   C     C_R   0.500000 0.913236 0.000000 0.883052
C36   C     C_R   0.296332 0.968603 0.526472 0.081773
C37   C     C_R   0.968613 0.703667 0.526485 0.081777
C38   C     C_R   0.703666 0.031383 0.526489 0.081777
C39   C     C_R   0.968617 0.296334 0.473511 0.081776
C40   C     C_R   0.703666 0.968616 0.473512 0.081778
C41   C     C_R   0.031387 0.703667 0.473516 0.081777
C42   C     C_R   0.296332 0.031398 0.473529 0.081774
C43   C     C_R   0.296334 0.473511 0.968617 0.081778
C44   C     C_R   0.968610 0.473519 0.703667 0.081775
C45   C     C_R   0.703666 0.473505 0.031378 0.081779
C46   C     C_R   0.500000 1.000000 0.913235 0.883053
C47   C     C_R   0.031388 0.473517 0.296333 0.081777
C48   C     C_R   0.296334 0.526490 0.031382 0.081776
C49   C     C_R   0.968611 0.526482 0.296333 0.081778
C50   C     C_R   0.703666 0.526495 0.968622 0.081778
C51   C     C_R   0.031388 0.526482 0.703667 0.081775
C52   C     C_R   1.000000 0.500000 0.226850 -0.013831
C53   C     C_R   0.000000 0.773150 0.500000 -0.013830
C54   C     C_R   0.999999 0.500000 0.773150 -0.013830
C55   C     C_R   0.000001 0.226850 0.499999 -0.013829
C56   C     C_R   0.500000 0.773151 0.000000 -0.013832
C57   C     C_R   0.500000 0.086764 0.000000 0.883055
C58   C     C_R   0.773150 0.500000 0.000000 -0.013828
C59   C     C_R   0.500001 0.226849 0.000000 -0.013832
C60   C     C_R   0.226850 0.500000 1.000000 -0.013828
C61   C     C_R   0.773150 1.000000 0.500000 -0.013830
C62   C     C_R   0.500000 1.000000 0.226850 -0.013830
C63   C     C_R   0.226849 0.000001 0.500001 -0.013833
C64   C     C_R   0.500000 1.000000 0.773148 -0.013820
C65   C     C_R   0.500000 1.000000 0.726847 -0.013837
C66   C     C_R   0.500001 0.273150 0.000000 -0.013829
C67   C     C_R   0.500000 1.000000 0.273150 -0.013831
C68   C     C_R   0.500000 1.000000 0.086765 0.883044
C69   C     C_R   0.500000 0.726850 0.000000 -0.013827
C70   C     C_R   0.000001 0.273151 0.499999 -0.013830
C71   C     C_R   0.273149 0.000001 0.500001 -0.013827
C72   C     C_R   1.000000 0.726850 0.500000 -0.013830
C73   C     C_R   0.726849 1.000000 0.500000 -0.013831
C74   C     C_R   0.273151 0.500000 1.000000 -0.013831
C75   C     C_R   0.999999 0.500000 0.726850 -0.013829
C76   C     C_R   0.726849 0.500000 0.000000 -0.013832
C77   C     C_R   1.000000 0.500000 0.273150 -0.013830
C78   C     C_R   0.946321 0.561943 0.227196 0.055600
C79   C     C_R   0.913235 1.000000 0.500000 0.883050
C80   C     C_R   0.946326 0.772804 0.561947 0.055600
C81   C     C_R   0.946319 0.438058 0.772804 0.055602
C82   C     C_R   0.946335 0.227196 0.438045 0.055600
C83   C     C_R   0.053678 0.438056 0.227196 0.055600
C84   C     C_R   0.053667 0.227196 0.561954 0.055600
C85   C     C_R   0.053679 0.561943 0.772804 0.055601
C86   C     C_R   0.053674 0.772804 0.438053 0.055600
C87   C     C_R   0.561926 0.772805 0.053698 0.055601
C88   C     C_R   0.772803 0.438035 0.053654 0.055600
C89   C     C_R   0.438063 0.227195 0.053686 0.055601
C90   C     C_R   0.000000 0.086764 0.500000 0.883046
C91   C     C_R   0.227196 0.561956 0.053664 0.055600
C92   C     C_R   0.438073 0.772805 0.946302 0.055604
C93   C     C_R   0.227196 0.438045 0.946335 0.055600
C94   C     C_R   0.561938 0.227195 0.946315 0.055603
C95   C     C_R   0.772803 0.561966 0.946347 0.055600
C96   C     C_R   0.772804 0.946333 0.438046 0.055600
C97   C     C_R   0.438050 0.946329 0.227196 0.055600
C98   C     C_R   0.227195 0.946300 0.561925 0.055602
C99   C     C_R   0.562015 0.946403 0.772802 0.055597
C100  C     C_R   0.772804 0.053666 0.561955 0.055601
C101  C     C_R   0.086764 1.000000 0.500000 0.883045
C102  C     C_R   0.437985 0.053597 0.772802 0.055598
C103  C     C_R   0.227195 0.053701 0.438076 0.055603
C104  C     C_R   0.561951 0.053670 0.227196 0.055600
C105  C     C_R   0.446247 0.061880 0.727193 0.055607
C106  C     C_R   0.446337 0.272804 0.061957 0.055599
C107  C     C_R   0.446321 0.938056 0.272804 0.055601
C108  C     C_R   0.446348 0.727197 0.938033 0.055600
C109  C     C_R   0.553753 0.938119 0.727193 0.055606
C110  C     C_R   0.553651 0.727197 0.061967 0.055598
C111  C     C_R   0.553680 0.061942 0.272804 0.055600
C112  C     C_R   1.000000 0.500000 0.413235 0.883047
C113  C     C_R   1.000000 0.913236 0.500000 0.883046
C114  C     C_R   0.553665 0.272804 0.938044 0.055600
C115  C     C_R   0.061940 0.272804 0.553683 0.055601
C116  C     C_R   0.272803 0.938032 0.553650 0.055598
C117  C     C_R   0.938054 0.727196 0.553675 0.055601
C118  C     C_R   0.727195 0.061939 0.553684 0.055600
C119  C     C_R   0.938061 0.272804 0.446315 0.055601
C120  C     C_R   0.727195 0.938060 0.446317 0.055600
C121  C     C_R   0.061946 0.727196 0.446325 0.055600
C122  C     C_R   0.272803 0.061970 0.446352 0.055599
C123  C     C_R   0.272804 0.446315 0.938062 0.055601
C124  C     C_R   0.000000 0.500000 0.086764 0.883049
C125  C     C_R   0.938047 0.446332 0.727196 0.055600
C126  C     C_R   0.727195 0.446304 0.061929 0.055602
C127  C     C_R   0.061950 0.446329 0.272804 0.055599
C128  C     C_R   0.272805 0.553686 0.061937 0.055602
C129  C     C_R   0.938050 0.553671 0.272804 0.055599
C130  C     C_R   0.727195 0.553696 0.938072 0.055602
C131  C     C_R   0.061951 0.553670 0.727196 0.055601
C132  C     C_3   0.929500 0.604342 0.204569 -0.436804
C133  C     C_3   0.968269 0.634152 0.189487 -0.331267
C134  C     C_3   0.951359 0.675925 0.166190 -0.896453
C135  C     C_R   0.086764 0.500000 0.000000 0.883048
C136  C     C_3   0.929508 0.795431 0.604348 -0.436804
C137  C     C_3   0.968279 0.810513 0.634155 -0.331268
C138  C     C_3   0.951372 0.833810 0.675929 -0.896454
C139  C     C_3   0.929496 0.395659 0.795431 -0.436804
C140  C     C_3   0.968263 0.365848 0.810512 -0.331268
C141  C     C_3   0.951352 0.324076 0.833812 -0.896451
C142  C     C_3   0.929523 0.204570 0.395641 -0.436804
C143  C     C_3   0.968298 0.189487 0.365840 -0.331267
C144  C     C_3   0.951398 0.166189 0.324064 -0.896450
C145  C     C_3   0.070499 0.395657 0.204569 -0.436803
C146  C     C_R   1.000000 0.500000 0.913236 0.883050
C147  C     C_3   0.031731 0.365848 0.189487 -0.331267
C148  C     C_3   0.048640 0.324075 0.166190 -0.896452
C149  C     C_3   0.070479 0.204570 0.604357 -0.436803
C150  C     C_3   0.031705 0.189488 0.634159 -0.331267
C151  C     C_3   0.048606 0.166189 0.675935 -0.896452
C152  C     C_3   0.070500 0.604342 0.795431 -0.436802
C153  C     C_3   0.031733 0.634153 0.810513 -0.331268
C154  C     C_3   0.048643 0.675925 0.833813 -0.896449
C155  C     C_3   0.070492 0.795430 0.395652 -0.436805
C156  C     C_3   0.031721 0.810512 0.365845 -0.331266
C157  C     C_R   0.913235 0.500000 0.000000 0.883050
C158  C     C_3   0.048627 0.833808 0.324070 -0.896451
C159  C     C_3   0.604321 0.795431 0.070533 -0.436804
C160  C     C_3   0.634143 0.810513 0.031775 -0.331265
C161  C     C_3   0.675911 0.833809 0.048698 -0.896453
C162  C     C_3   0.795430 0.395628 0.070457 -0.436804
C163  C     C_3   0.810512 0.365835 0.031676 -0.331269
C164  C     C_3   0.833810 0.324055 0.048568 -0.896453
C165  C     C_3   0.395666 0.204569 0.070512 -0.436803
C166  C     C_3   0.365852 0.189488 0.031748 -0.331267
C167  C     C_3   0.324081 0.166189 0.048663 -0.896453
C168  C     C_R   0.025903 0.469292 0.157257 -0.261542
C169  C     C_3   0.204570 0.604360 0.070474 -0.436805
C170  C     C_3   0.189487 0.634160 0.031699 -0.331267
C171  C     C_3   0.166190 0.675937 0.048598 -0.896453
C172  C     C_3   0.395679 0.795432 0.929467 -0.436803
C173  C     C_3   0.365857 0.810514 0.968225 -0.331267
C174  C     C_3   0.324091 0.833815 0.951301 -0.896451
C175  C     C_3   0.204570 0.395641 0.929524 -0.436804
C176  C     C_3   0.189488 0.365841 0.968300 -0.331268
C177  C     C_3   0.166190 0.324064 0.951400 -0.896452
C178  C     C_3   0.604335 0.204568 0.929488 -0.436803
C179  C     C_R   0.025901 0.842743 0.469291 -0.261544
C180  C     C_3   0.634149 0.189486 0.968253 -0.331269
C181  C     C_3   0.675918 0.166185 0.951338 -0.896454
C182  C     C_3   0.795430 0.604372 0.929544 -0.436804
C183  C     C_3   0.810512 0.634165 0.968325 -0.331267
C184  C     C_3   0.833810 0.675946 0.951434 -0.896452
C185  C     C_3   0.795430 0.929522 0.395643 -0.436804
C186  C     C_3   0.810512 0.968296 0.365842 -0.331267
C187  C     C_3   0.833809 0.951396 0.324065 -0.896452
C188  C     C_3   0.395649 0.929514 0.204570 -0.436804
C189  C     C_3   0.365844 0.968286 0.189488 -0.331267
C190  C     C_R   0.025903 0.530707 0.842743 -0.261540
C191  C     C_3   0.324070 0.951382 0.166189 -0.896451
C192  C     C_3   0.204569 0.929464 0.604318 -0.436803
C193  C     C_3   0.189486 0.968221 0.634142 -0.331269
C194  C     C_3   0.166187 0.951297 0.675908 -0.896449
C195  C     C_3   0.604438 0.929641 0.795427 -0.436803
C196  C     C_3   0.634195 0.968450 0.810510 -0.331269
C197  C     C_3   0.675994 0.951598 0.833804 -0.896451
C198  C     C_3   0.795430 0.070477 0.604358 -0.436805
C199  C     C_3   0.810513 0.031703 0.634159 -0.331270
C200  C     C_3   0.833810 0.048603 0.675935 -0.896449
C201  C     C_R   0.025898 0.157257 0.530712 -0.261543
C202  C     C_3   0.395561 0.070359 0.795427 -0.436804
C203  C     C_3   0.365805 0.031550 0.810511 -0.331268
C204  C     C_3   0.324006 0.048401 0.833805 -0.896451
C205  C     C_3   0.204568 0.070538 0.395683 -0.436803
C206  C     C_3   0.189487 0.031781 0.365859 -0.331267
C207  C     C_3   0.166187 0.048707 0.324093 -0.896451
C208  C     C_3   0.604353 0.070484 0.204569 -0.436803
C209  C     C_3   0.634156 0.031712 0.189487 -0.331268
C210  C     C_3   0.675932 0.048615 0.166189 -0.896451
C211  C     C_3   0.429372 0.104259 0.704567 -0.436806
C212  C     C_R   0.974097 0.530707 0.157257 -0.261541
C213  C     C_3   0.468103 0.134119 0.689486 -0.331264
C214  C     C_3   0.451141 0.175870 0.666186 -0.896447
C215  C     C_3   0.429528 0.295430 0.104361 -0.436804
C216  C     C_3   0.468304 0.310512 0.134160 -0.331269
C217  C     C_3   0.451405 0.333808 0.175938 -0.896452
C218  C     C_3   0.429501 0.895657 0.295431 -0.436804
C219  C     C_3   0.468269 0.865848 0.310513 -0.331270
C220  C     C_3   0.451359 0.824075 0.333812 -0.896451
C221  C     C_3   0.429546 0.704570 0.895626 -0.436803
C222  C     C_3   0.468328 0.689487 0.865834 -0.331267
C223  C     C_R   1.000000 0.586764 0.500000 0.883049
C224  C     C_R   0.974103 0.157257 0.469287 -0.261539
C225  C     C_3   0.451437 0.666188 0.824054 -0.896450
C226  C     C_3   0.570626 0.895741 0.704567 -0.436805
C227  C     C_3   0.531896 0.865881 0.689486 -0.331265
C228  C     C_3   0.548857 0.824129 0.666188 -0.896450
C229  C     C_3   0.570452 0.704570 0.104375 -0.436803
C230  C     C_3   0.531670 0.689488 0.134166 -0.331268
C231  C     C_3   0.548560 0.666191 0.175948 -0.896450
C232  C     C_3   0.570501 0.104341 0.295431 -0.436802
C233  C     C_3   0.531733 0.134152 0.310512 -0.331267
C234  C     C_3   0.548643 0.175924 0.333811 -0.896451
C235  C     C_R   0.974096 0.469293 0.842743 -0.261540
C236  C     C_3   0.570475 0.295430 0.895641 -0.436805
C237  C     C_3   0.531700 0.310513 0.865841 -0.331266
C238  C     C_3   0.548599 0.333812 0.824065 -0.896452
C239  C     C_3   0.104338 0.295431 0.570507 -0.436804
C240  C     C_3   0.134151 0.310513 0.531741 -0.331268
C241  C     C_3   0.175923 0.333811 0.548653 -0.896448
C242  C     C_3   0.295429 0.895624 0.570449 -0.436803
C243  C     C_3   0.310511 0.865833 0.531666 -0.331268
C244  C     C_3   0.333808 0.824052 0.548554 -0.896452
C245  C     C_3   0.895653 0.704569 0.570494 -0.436803
C246  C     C_R   0.974099 0.842743 0.530709 -0.261541
C247  C     C_3   0.865846 0.689487 0.531724 -0.331268
C248  C     C_3   0.824072 0.666189 0.548631 -0.896450
C249  C     C_3   0.704569 0.104337 0.570508 -0.436803
C250  C     C_3   0.689488 0.134150 0.531742 -0.331266
C251  C     C_3   0.666190 0.175922 0.548654 -0.896450
C252  C     C_3   0.895664 0.295431 0.429490 -0.436803
C253  C     C_3   0.865850 0.310513 0.468256 -0.331266
C254  C     C_3   0.824079 0.333811 0.451342 -0.896450
C255  C     C_3   0.704569 0.895662 0.429493 -0.436803
C256  C     C_3   0.689487 0.865850 0.468259 -0.331268
C257  C     C_R   0.469300 0.842744 0.974088 -0.261536
C258  C     C_3   0.666191 0.824077 0.451347 -0.896449
C259  C     C_3   0.104347 0.704570 0.429507 -0.436805
C260  C     C_3   0.134154 0.689487 0.468277 -0.331268
C261  C     C_3   0.175928 0.666190 0.451370 -0.896452
C262  C     C_3   0.295429 0.104378 0.429553 -0.436805
C263  C     C_3   0.310512 0.134167 0.468336 -0.331269
C264  C     C_3   0.333808 0.175950 0.451448 -0.896451
C265  C     C_3   0.295431 0.429490 0.895664 -0.436803
C266  C     C_3   0.310513 0.468255 0.865850 -0.331267
C267  C     C_3   0.333811 0.451341 0.824079 -0.896450
C268  C     C_R   0.842742 0.530718 0.974109 -0.261541
C269  C     C_3   0.895645 0.429518 0.704570 -0.436805
C270  C     C_3   0.865842 0.468291 0.689488 -0.331267
C271  C     C_3   0.824064 0.451389 0.666192 -0.896452
C272  C     C_3   0.704569 0.429471 0.104323 -0.436804
C273  C     C_3   0.689487 0.468230 0.134144 -0.331267
C274  C     C_3   0.666189 0.451309 0.175913 -0.896452
C275  C     C_3   0.104351 0.429514 0.295430 -0.436803
C276  C     C_3   0.134156 0.468286 0.310513 -0.331267
C277  C     C_3   0.175931 0.451382 0.333810 -0.896453
C278  C     C_3   0.295431 0.570512 0.104335 -0.436803
C279  C     C_R   0.530705 0.157256 0.974093 -0.261536
C280  C     C_3   0.310513 0.531747 0.134149 -0.331269
C281  C     C_3   0.333813 0.548662 0.175919 -0.896451
C282  C     C_3   0.895648 0.570486 0.295430 -0.436803
C283  C     C_3   0.865844 0.531713 0.310513 -0.331267
C284  C     C_3   0.824068 0.548617 0.333810 -0.896451
C285  C     C_3   0.704569 0.570530 0.895677 -0.436805
C286  C     C_3   0.689487 0.531770 0.865856 -0.331269
C287  C     C_3   0.666190 0.548692 0.824087 -0.896450
C288  C     C_3   0.104353 0.570485 0.704570 -0.436805
C289  C     C_3   0.134157 0.531713 0.689488 -0.331267
C290  C     C_R   0.157257 0.469287 0.974103 -0.261541
C291  C     C_3   0.175933 0.548616 0.666190 -0.896452
C292  C     C_R   0.530700 0.842744 0.025913 -0.261545
C293  C     C_R   0.157257 0.530713 0.025896 -0.261541
C294  C     C_R   0.469295 0.157257 0.025907 -0.261544
C295  C     C_R   0.000000 0.500000 0.586765 0.883046
C296  C     C_R   0.842742 0.469282 0.025892 -0.261541
C297  C     C_R   0.842743 0.025897 0.530713 -0.261540
C298  C     C_R   0.530711 0.025899 0.157257 -0.261542
C299  C     C_R   0.157256 0.025914 0.469301 -0.261544
C300  C     C_R   0.469259 0.025865 0.842740 -0.261534
C301  C     C_R   0.842743 0.974102 0.469287 -0.261542
C302  C     C_R   0.530740 0.974135 0.842740 -0.261535
C303  C     C_R   0.157256 0.974087 0.530699 -0.261544
C304  C     C_R   0.469289 0.974100 0.157257 -0.261544
C305  C     C_R   0.525938 0.969321 0.657255 -0.261545
C306  C     C_R   0.413236 0.500000 0.000000 0.883050
C307  C     C_R   0.525897 0.342743 0.969287 -0.261543
C308  C     C_R   0.525904 0.030707 0.342743 -0.261544
C309  C     C_R   0.525890 0.657258 0.030719 -0.261541
C310  C     C_R   0.474062 0.030679 0.657255 -0.261542
C311  C     C_R   0.474109 0.657258 0.969282 -0.261540
C312  C     C_R   0.474097 0.969292 0.342743 -0.261540
C313  C     C_R   0.474104 0.342743 0.030714 -0.261542
C314  C     C_R   0.969295 0.342743 0.474094 -0.261542
C315  C     C_R   0.342742 0.030720 0.474111 -0.261540
C316  C     C_R   0.030709 0.657257 0.474098 -0.261541
C317  C     C_R   0.500000 0.586765 0.000000 0.883047
C318  C     C_R   0.657257 0.969294 0.474095 -0.261542
C319  C     C_R   0.030706 0.342743 0.525905 -0.261541
C320  C     C_R   0.657257 0.030706 0.525906 -0.261549
C321  C     C_R   0.969291 0.657257 0.525902 -0.261543
C322  C     C_R   0.342742 0.969281 0.525890 -0.261546
C323  C     C_R   0.342743 0.525907 0.030705 -0.261541
C324  C     C_R   0.030711 0.525899 0.657257 -0.261541
C325  C     C_R   0.657256 0.525912 0.969299 -0.261541
C326  C     C_R   0.969289 0.525900 0.342743 -0.261543
C327  C     C_R   0.342743 0.474094 0.969295 -0.261541
C328  C     C_R   0.586764 0.500000 0.000000 0.883047
C329  C     C_R   0.030710 0.474100 0.342743 -0.261542
C330  C     C_R   0.657256 0.474088 0.030701 -0.261543
C331  C     C_R   0.969288 0.474101 0.657257 -0.261541
C332  C     C_R   1.000000 0.500000 0.134625 -0.069543
C333  C     C_R   0.000000 0.865375 0.500000 -0.069545
C334  C     C_R   1.000000 0.500000 0.865375 -0.069542
C335  C     C_R   0.000000 0.134625 0.500000 -0.069551
C336  C     C_R   0.500000 0.865375 0.000000 -0.069530
C337  C     C_R   0.865374 0.500000 0.000000 -0.069559
C338  C     C_R   0.500000 0.134625 0.000000 -0.069538
C339  C     C_R   0.500000 0.413235 0.000000 0.883046
C340  C     C_R   0.134625 0.500000 0.000000 -0.069552
C341  C     C_R   0.865375 1.000000 0.500000 -0.069551
C342  C     C_R   0.500000 1.000000 0.134625 -0.069548
C343  C     C_R   0.134624 0.000000 0.500000 -0.069528
C344  C     C_R   0.500000 1.000000 0.865373 -0.069596
C345  C     C_R   0.500000 1.000000 0.634624 -0.069495
C346  C     C_R   0.500000 0.365375 0.000000 -0.069551
C347  C     C_R   0.500000 1.000000 0.365375 -0.069542
C348  C     C_R   0.500000 0.634626 0.000000 -0.069560
C349  C     C_R   0.000000 0.365375 0.500000 -0.069539
C350  C     C_R   0.500000 1.000000 0.586764 0.883037
C351  C     C_R   0.365374 0.000000 0.500000 -0.069561
C352  C     C_R   0.000000 0.634625 0.500000 -0.069545
C353  C     C_R   0.634625 1.000000 0.500000 -0.069539
C354  C     C_R   0.365375 0.500000 1.000000 -0.069538
C355  C     C_R   1.000000 0.500000 0.634625 -0.069549
C356  C     C_R   0.634625 0.500000 1.000000 -0.069531
C357  C     C_R   1.000000 0.500000 0.365375 -0.069548
C358  C     C_R   0.973513 0.531385 0.203666 0.081778
C359  C     C_R   0.973516 0.796333 0.531387 0.081776
C360  C     C_R   0.973512 0.468616 0.796333 0.081776
H1    H     H_    0.046584 0.447110 0.137975 0.158320
H2    H     H_    0.862023 0.552908 0.953437 0.158334
H3    H     H_    0.019979 0.844167 0.303240 0.249921
H4    H     H_    0.011861 0.780992 0.355843 0.220988
H5    H     H_    0.009210 0.833675 0.383569 0.231943
H6    H     H_    0.092582 0.823728 0.404183 0.195922
H7    H     H_    0.090194 0.772956 0.374416 0.200059
H8    H     H_    0.666793 0.863842 0.068138 0.263127
H9    H     H_    0.695658 0.811009 0.069985 0.259363
H10   H     H_    0.696753 0.844168 0.020058 0.249920
H11   H     H_    0.644154 0.780992 0.011919 0.220988
H12   H     H_    0.616429 0.833675 0.009257 0.231944
H13   H     H_    0.552885 0.137975 0.953411 0.158318
H14   H     H_    0.595781 0.823729 0.092620 0.195923
H15   H     H_    0.625549 0.772957 0.090244 0.200058
H16   H     H_    0.863844 0.333160 0.068013 0.263126
H17   H     H_    0.811012 0.304292 0.069842 0.259365
H18   H     H_    0.844168 0.303234 0.019913 0.249922
H19   H     H_    0.780991 0.355838 0.011813 0.220988
H20   H     H_    0.833673 0.383567 0.009171 0.231943
H21   H     H_    0.823727 0.404152 0.092551 0.195923
H22   H     H_    0.772956 0.374385 0.090152 0.200057
H23   H     H_    0.333198 0.136156 0.068103 0.263127
H24   H     H_    0.137976 0.447100 0.953428 0.158328
H25   H     H_    0.304331 0.188987 0.069948 0.259365
H26   H     H_    0.303245 0.155831 0.020019 0.249921
H27   H     H_    0.355843 0.219009 0.011891 0.220987
H28   H     H_    0.383571 0.166327 0.009233 0.231944
H29   H     H_    0.404202 0.176271 0.092601 0.195923
H30   H     H_    0.374434 0.227043 0.090219 0.200056
H31   H     H_    0.136157 0.666829 0.068042 0.263127
H32   H     H_    0.188989 0.695696 0.069875 0.259364
H33   H     H_    0.155831 0.696763 0.019946 0.249922
H34   H     H_    0.219008 0.644160 0.011837 0.220988
H35   H     H_    0.552876 0.862025 0.046600 0.158309
H36   H     H_    0.166325 0.616432 0.009191 0.231943
H37   H     H_    0.176272 0.595833 0.092567 0.195923
H38   H     H_    0.227044 0.625600 0.090173 0.200058
H39   H     H_    0.333213 0.863849 0.931864 0.263127
H40   H     H_    0.304344 0.811018 0.930010 0.259363
H41   H     H_    0.303248 0.844172 0.979940 0.249921
H42   H     H_    0.355842 0.780993 0.988078 0.220986
H43   H     H_    0.383572 0.833673 0.990745 0.231944
H44   H     H_    0.404220 0.823730 0.907380 0.195925
H45   H     H_    0.374451 0.772958 0.909755 0.200055
H46   H     H_    0.137976 0.552900 0.046572 0.158327
H47   H     H_    0.136156 0.333173 0.931957 0.263127
H48   H     H_    0.188988 0.304305 0.930122 0.259364
H49   H     H_    0.155832 0.303238 0.980051 0.249921
H50   H     H_    0.219009 0.355839 0.988160 0.220987
H51   H     H_    0.166327 0.383568 0.990809 0.231943
H52   H     H_    0.176272 0.404169 0.907432 0.195923
H53   H     H_    0.227044 0.374402 0.909825 0.200057
H54   H     H_    0.666800 0.136152 0.931899 0.263127
H55   H     H_    0.695669 0.188982 0.930052 0.259364
H56   H     H_    0.696755 0.155827 0.979981 0.249923
H57   H     H_    0.447115 0.137975 0.046590 0.158316
H58   H     H_    0.644159 0.219007 0.988109 0.220986
H59   H     H_    0.616429 0.166326 0.990769 0.231944
H60   H     H_    0.595798 0.176271 0.907399 0.195924
H61   H     H_    0.625567 0.227042 0.909782 0.200055
H62   H     H_    0.863843 0.666841 0.931988 0.263126
H63   H     H_    0.811011 0.695708 0.930160 0.259364
H64   H     H_    0.844168 0.696766 0.980089 0.249921
H65   H     H_    0.780992 0.644162 0.988188 0.220988
H66   H     H_    0.833674 0.616433 0.990830 0.231942
H67   H     H_    0.823727 0.595849 0.907450 0.195923
H68   H     H_    0.862023 0.447092 0.046564 0.158334
H69   H     H_    0.772956 0.625615 0.909849 0.200057
H70   H     H_    0.863842 0.931952 0.333174 0.263127
H71   H     H_    0.811010 0.930118 0.304307 0.259365
H72   H     H_    0.844167 0.980046 0.303238 0.249921
H73   H     H_    0.780991 0.988157 0.355841 0.220987
H74   H     H_    0.833673 0.990805 0.383568 0.231943
H75   H     H_    0.823728 0.907430 0.404171 0.195923
H76   H     H_    0.772956 0.909822 0.374404 0.200057
H77   H     H_    0.333182 0.931940 0.136155 0.263127
H78   H     H_    0.304313 0.930101 0.188987 0.259364
H79   H     H_    0.862024 0.046573 0.552899 0.158327
H80   H     H_    0.303241 0.980031 0.155831 0.249922
H81   H     H_    0.355840 0.988145 0.219009 0.220988
H82   H     H_    0.383570 0.990797 0.166327 0.231943
H83   H     H_    0.404179 0.907423 0.176272 0.195924
H84   H     H_    0.374411 0.909812 0.227043 0.200057
H85   H     H_    0.136153 0.931859 0.666786 0.263127
H86   H     H_    0.188985 0.930006 0.695654 0.259364
H87   H     H_    0.155829 0.979935 0.696751 0.249922
H88   H     H_    0.219007 0.988075 0.644156 0.220986
H89   H     H_    0.166326 0.990741 0.616428 0.231945
H90   H     H_    0.552896 0.046577 0.137976 0.158325
H91   H     H_    0.176271 0.907377 0.595777 0.195924
H92   H     H_    0.227042 0.909752 0.625546 0.200056
H93   H     H_    0.666911 0.932141 0.863836 0.263124
H94   H     H_    0.695777 0.930347 0.811003 0.259364
H95   H     H_    0.696786 0.980273 0.844164 0.249917
H96   H     H_    0.644170 0.988325 0.780991 0.220988
H97   H     H_    0.616442 0.990935 0.833675 0.231939
H98   H     H_    0.595937 0.907538 0.823725 0.195920
H99   H     H_    0.625700 0.909966 0.772953 0.200060
H100  H     H_    0.863844 0.068047 0.666826 0.263126
H101  H     H_    0.137974 0.046601 0.447126 0.158310
H102  H     H_    0.811012 0.069882 0.695693 0.259365
H103  H     H_    0.844169 0.019953 0.696762 0.249920
H104  H     H_    0.780992 0.011842 0.644161 0.220986
H105  H     H_    0.833674 0.009194 0.616432 0.231943
H106  H     H_    0.823728 0.092569 0.595830 0.195924
H107  H     H_    0.772956 0.090177 0.625597 0.200058
H108  H     H_    0.333090 0.067858 0.863838 0.263123
H109  H     H_    0.304223 0.069654 0.811005 0.259365
H110  H     H_    0.303214 0.019726 0.844165 0.249917
H111  H     H_    0.355828 0.011676 0.780991 0.220989
H112  H     H_    0.046580 0.862024 0.447107 0.158322
H113  H     H_    0.447051 0.046518 0.862020 0.158362
H114  H     H_    0.383558 0.009064 0.833674 0.231940
H115  H     H_    0.404062 0.092462 0.823725 0.195921
H116  H     H_    0.374299 0.090033 0.772953 0.200059
H117  H     H_    0.136153 0.068143 0.333216 0.263127
H118  H     H_    0.188984 0.069998 0.304348 0.259364
H119  H     H_    0.155830 0.020069 0.303249 0.249922
H120  H     H_    0.219008 0.011928 0.355844 0.220987
H121  H     H_    0.166327 0.009261 0.383573 0.231944
H122  H     H_    0.176270 0.092625 0.404225 0.195924
H123  H     H_    0.227042 0.090251 0.374456 0.200056
H124  H     H_    0.862024 0.953426 0.447101 0.158327
H125  H     H_    0.666820 0.068058 0.136156 0.263127
H126  H     H_    0.695688 0.069895 0.188988 0.259364
H127  H     H_    0.696760 0.019966 0.155831 0.249922
H128  H     H_    0.644159 0.011852 0.219008 0.220987
H129  H     H_    0.616431 0.009202 0.166326 0.231943
H130  H     H_    0.595823 0.092576 0.176272 0.195923
H131  H     H_    0.625590 0.090185 0.227043 0.200057
H132  H     H_    0.431713 0.166731 0.636151 0.263127
H133  H     H_    0.429832 0.195597 0.688982 0.259360
H134  H     H_    0.479760 0.196739 0.655829 0.249920
H135  H     H_    0.552948 0.953482 0.862020 0.158361
H136  H     H_    0.487947 0.144151 0.719007 0.220988
H137  H     H_    0.490640 0.116425 0.666327 0.231946
H138  H     H_    0.407294 0.095699 0.676268 0.195926
H139  H     H_    0.409640 0.125469 0.727040 0.200055
H140  H     H_    0.431960 0.363841 0.166831 0.263128
H141  H     H_    0.430130 0.311008 0.195697 0.259364
H142  H     H_    0.480057 0.344167 0.196763 0.249922
H143  H     H_    0.488167 0.280992 0.144159 0.220988
H144  H     H_    0.490810 0.333675 0.116432 0.231943
H145  H     H_    0.407435 0.323728 0.095834 0.195922
H146  H     H_    0.137974 0.953399 0.552875 0.158310
H147  H     H_    0.409830 0.272956 0.125601 0.200059
H148  H     H_    0.431918 0.833190 0.363845 0.263126
H149  H     H_    0.430077 0.804322 0.311013 0.259365
H150  H     H_    0.480005 0.803243 0.344170 0.249922
H151  H     H_    0.488127 0.855842 0.280992 0.220987
H152  H     H_    0.490782 0.883570 0.333674 0.231944
H153  H     H_    0.407411 0.904191 0.323729 0.195924
H154  H     H_    0.409797 0.874422 0.272957 0.200057
H155  H     H_    0.431992 0.636155 0.833160 0.263126
H156  H     H_    0.430163 0.688986 0.804291 0.259364
H157  H     H_    0.447105 0.953423 0.137976 0.158326
H158  H     H_    0.480093 0.655830 0.803234 0.249921
H159  H     H_    0.488191 0.719008 0.855836 0.220989
H160  H     H_    0.490833 0.666327 0.883567 0.231943
H161  H     H_    0.407452 0.676273 0.904149 0.195923
H162  H     H_    0.409852 0.727044 0.874382 0.200056
H163  H     H_    0.568286 0.833267 0.636153 0.263128
H164  H     H_    0.570165 0.804402 0.688985 0.259361
H165  H     H_    0.520237 0.803260 0.655830 0.249921
H166  H     H_    0.512051 0.855850 0.719007 0.220988
H167  H     H_    0.509360 0.883575 0.666326 0.231947
H168  H     H_    0.546643 0.947162 0.637973 0.158283
H169  H     H_    0.592705 0.904300 0.676269 0.195926
H170  H     H_    0.590358 0.874531 0.727041 0.200056
H171  H     H_    0.568006 0.636158 0.166844 0.263126
H172  H     H_    0.569832 0.688990 0.195711 0.259365
H173  H     H_    0.519904 0.655833 0.196767 0.249921
H174  H     H_    0.511806 0.719009 0.144162 0.220987
H175  H     H_    0.509166 0.666326 0.116434 0.231942
H176  H     H_    0.592546 0.676273 0.095852 0.195922
H177  H     H_    0.590146 0.727045 0.125619 0.200057
H178  H     H_    0.568083 0.166809 0.363845 0.263127
H179  H     H_    0.546572 0.362024 0.947100 0.158329
H180  H     H_    0.569927 0.195677 0.311014 0.259365
H181  H     H_    0.519997 0.196757 0.344169 0.249922
H182  H     H_    0.511875 0.144158 0.280991 0.220987
H183  H     H_    0.509219 0.116429 0.333673 0.231944
H184  H     H_    0.592591 0.095808 0.323729 0.195923
H185  H     H_    0.590206 0.125576 0.272957 0.200056
H186  H     H_    0.568042 0.363845 0.833174 0.263127
H187  H     H_    0.569877 0.311014 0.804306 0.259364
H188  H     H_    0.519948 0.344170 0.803239 0.249923
H189  H     H_    0.511839 0.280992 0.855839 0.220989
H190  H     H_    0.546584 0.052889 0.362025 0.158321
H191  H     H_    0.509191 0.333673 0.883569 0.231944
H192  H     H_    0.592567 0.323728 0.904169 0.195924
H193  H     H_    0.590174 0.272956 0.874401 0.200056
H194  H     H_    0.166808 0.363844 0.568094 0.263126
H195  H     H_    0.195675 0.311012 0.569937 0.259364
H196  H     H_    0.196758 0.344169 0.520008 0.249921
H197  H     H_    0.144158 0.280992 0.511883 0.220987
H198  H     H_    0.116430 0.333674 0.509227 0.231944
H199  H     H_    0.095804 0.323729 0.592596 0.195923
H200  H     H_    0.125572 0.272957 0.590212 0.200057
H201  H     H_    0.546562 0.637977 0.052910 0.158334
H202  H     H_    0.363842 0.833155 0.568001 0.263127
H203  H     H_    0.311009 0.804288 0.569827 0.259365
H204  H     H_    0.344166 0.803233 0.519898 0.249922
H205  H     H_    0.280990 0.855838 0.511802 0.220987
H206  H     H_    0.333673 0.883567 0.509162 0.231942
H207  H     H_    0.323727 0.904145 0.592544 0.195922
H208  H     H_    0.272955 0.874379 0.590143 0.200057
H209  H     H_    0.833186 0.636155 0.568073 0.263126
H210  H     H_    0.804318 0.688987 0.569913 0.259365
H211  H     H_    0.803241 0.655831 0.519984 0.249922
H212  H     H_    0.453357 0.052837 0.637972 0.158283
H213  H     H_    0.855841 0.719008 0.511865 0.220987
H214  H     H_    0.883569 0.666327 0.509212 0.231944
H215  H     H_    0.904185 0.676272 0.592584 0.195923
H216  H     H_    0.874418 0.727043 0.590197 0.200056
H217  H     H_    0.636156 0.166806 0.568094 0.263128
H218  H     H_    0.688988 0.195673 0.569939 0.259364
H219  H     H_    0.655833 0.196757 0.520010 0.249922
H220  H     H_    0.719009 0.144157 0.511885 0.220987
H221  H     H_    0.666327 0.116430 0.509227 0.231944
H222  H     H_    0.676271 0.095803 0.592597 0.195923
H223  H     H_    0.046584 0.552889 0.862025 0.158321
H224  H     H_    0.453438 0.637977 0.947091 0.158335
H225  H     H_    0.727043 0.125570 0.590214 0.200057
H226  H     H_    0.833195 0.363845 0.431903 0.263126
H227  H     H_    0.804328 0.311014 0.430057 0.259364
H228  H     H_    0.803244 0.344169 0.479986 0.249921
H229  H     H_    0.855842 0.280992 0.488113 0.220987
H230  H     H_    0.883570 0.333673 0.490771 0.231944
H231  H     H_    0.904199 0.323729 0.407402 0.195924
H232  H     H_    0.874431 0.272957 0.409784 0.200056
H233  H     H_    0.636158 0.833191 0.431905 0.263127
H234  H     H_    0.688990 0.804325 0.430064 0.259363
H235  H     H_    0.453416 0.947110 0.362025 0.158321
H236  H     H_    0.655832 0.803243 0.479992 0.249922
H237  H     H_    0.719008 0.855843 0.488118 0.220988
H238  H     H_    0.666325 0.883570 0.490773 0.231943
H239  H     H_    0.676271 0.904196 0.407404 0.195922
H240  H     H_    0.727043 0.874429 0.409788 0.200058
H241  H     H_    0.166816 0.636156 0.431928 0.263127
H242  H     H_    0.195683 0.688988 0.430089 0.259365
H243  H     H_    0.196759 0.655832 0.480017 0.249922
H244  H     H_    0.144158 0.719008 0.488136 0.220987
H245  H     H_    0.116431 0.666326 0.490788 0.231944
H246  H     H_    0.453428 0.362024 0.052901 0.158327
H247  H     H_    0.095815 0.676272 0.407416 0.195924
H248  H     H_    0.125583 0.727043 0.409804 0.200058
H249  H     H_    0.363842 0.166847 0.432001 0.263126
H250  H     H_    0.311009 0.195714 0.430177 0.259365
H251  H     H_    0.344168 0.196767 0.480105 0.249922
H252  H     H_    0.280992 0.144162 0.488201 0.220988
H253  H     H_    0.333674 0.116434 0.490839 0.231942
H254  H     H_    0.323727 0.095856 0.407458 0.195923
H255  H     H_    0.272955 0.125623 0.409860 0.200059
H256  H     H_    0.363845 0.431901 0.833195 0.263126
H257  H     H_    0.947114 0.362025 0.453412 0.158319
H258  H     H_    0.311013 0.430056 0.804328 0.259364
H259  H     H_    0.344169 0.479985 0.803244 0.249921
H260  H     H_    0.280992 0.488112 0.855842 0.220988
H261  H     H_    0.333674 0.490770 0.883570 0.231944
H262  H     H_    0.323729 0.407401 0.904200 0.195923
H263  H     H_    0.272957 0.409783 0.874432 0.200057
H264  H     H_    0.833173 0.431945 0.636159 0.263127
H265  H     H_    0.804307 0.430112 0.688992 0.259363
H266  H     H_    0.803237 0.480039 0.655833 0.249921
H267  H     H_    0.855841 0.488153 0.719008 0.220989
H268  H     H_    0.362023 0.052911 0.453440 0.158336
H269  H     H_    0.883567 0.490800 0.666325 0.231943
H270  H     H_    0.904173 0.407426 0.676272 0.195922
H271  H     H_    0.874407 0.409818 0.727044 0.200059
H272  H     H_    0.636156 0.431869 0.166794 0.263127
H273  H     H_    0.688988 0.430021 0.195660 0.259363
H274  H     H_    0.655831 0.479949 0.196753 0.249922
H275  H     H_    0.719007 0.488086 0.144156 0.220988
H276  H     H_    0.666325 0.490748 0.116429 0.231944
H277  H     H_    0.676271 0.407383 0.095784 0.195923
H278  H     H_    0.727043 0.409760 0.125552 0.200057
H279  H     H_    0.052892 0.637976 0.453419 0.158323
H280  H     H_    0.166821 0.431938 0.363843 0.263127
H281  H     H_    0.195687 0.430103 0.311010 0.259365
H282  H     H_    0.196760 0.480031 0.344168 0.249922
H283  H     H_    0.144158 0.488146 0.280992 0.220987
H284  H     H_    0.116431 0.490796 0.333674 0.231944
H285  H     H_    0.095821 0.407422 0.323728 0.195922
H286  H     H_    0.125589 0.409812 0.272956 0.200057
H287  H     H_    0.363847 0.568100 0.166801 0.263127
H288  H     H_    0.311016 0.569948 0.195670 0.259364
H289  H     H_    0.344170 0.520018 0.196755 0.249921
H290  H     H_    0.637975 0.947113 0.453413 0.158318
H291  H     H_    0.280992 0.511891 0.144159 0.220987
H292  H     H_    0.333672 0.509231 0.116429 0.231945
H293  H     H_    0.323729 0.592600 0.095799 0.195924
H294  H     H_    0.272957 0.590219 0.125567 0.200056
H295  H     H_    0.833179 0.568061 0.363843 0.263127
H296  H     H_    0.804312 0.569896 0.311010 0.259364
H297  H     H_    0.803240 0.519968 0.344168 0.249922
H298  H     H_    0.855842 0.511853 0.280992 0.220988
H299  H     H_    0.883569 0.509204 0.333675 0.231943
H300  H     H_    0.904178 0.592577 0.323728 0.195922
H301  H     H_    0.052887 0.362025 0.546587 0.158318
H302  H     H_    0.874411 0.590187 0.272956 0.200057
H303  H     H_    0.636157 0.568131 0.833206 0.263127
H304  H     H_    0.688989 0.569980 0.804340 0.259364
H305  H     H_    0.655832 0.520052 0.803246 0.249922
H306  H     H_    0.719008 0.511915 0.855845 0.220989
H307  H     H_    0.666326 0.509252 0.883571 0.231944
H308  H     H_    0.676271 0.592617 0.904216 0.195924
H309  H     H_    0.727043 0.590240 0.874448 0.200058
H310  H     H_    0.166822 0.568059 0.636157 0.263126
H311  H     H_    0.195689 0.569896 0.688989 0.259364
H312  H     H_    0.637975 0.052887 0.546588 0.158319
H313  H     H_    0.196761 0.519967 0.655832 0.249922
H314  H     H_    0.144160 0.511853 0.719009 0.220987
H315  H     H_    0.116432 0.509202 0.666327 0.231943
H316  H     H_    0.095823 0.592576 0.676272 0.195924
H317  H     H_    0.125590 0.590186 0.727044 0.200057
H318  H     H_    0.947108 0.637976 0.546581 0.158323
H319  H     H_    0.046574 0.137976 0.552899 0.158327
H320  H     H_    0.362023 0.947089 0.546560 0.158336
H321  H     H_    0.362025 0.546589 0.052885 0.158318
H322  H     H_    0.052896 0.546576 0.637976 0.158325
H323  H     H_    0.637975 0.546598 0.947122 0.158311
H324  H     H_    0.947105 0.546578 0.362024 0.158324
H325  H     H_    0.362025 0.453411 0.947115 0.158317
H326  H     H_    0.052895 0.453422 0.362024 0.158324
H327  H     H_    0.637975 0.453402 0.052877 0.158311
H328  H     H_    0.947103 0.453424 0.637976 0.158324
H329  H     H_    0.931917 0.666812 0.136157 0.263127
H330  H     H_    0.953416 0.552890 0.137975 0.158320
H331  H     H_    0.930077 0.695678 0.188989 0.259365
H332  H     H_    0.980005 0.696757 0.155831 0.249922
H333  H     H_    0.988128 0.644157 0.219008 0.220987
H334  H     H_    0.990781 0.616430 0.166326 0.231943
H335  H     H_    0.907410 0.595809 0.176272 0.195923
H336  H     H_    0.909796 0.625577 0.227043 0.200057
H337  H     H_    0.931930 0.863843 0.666817 0.263127
H338  H     H_    0.930092 0.811011 0.695684 0.259364
H339  H     H_    0.980020 0.844169 0.696759 0.249923
H340  H     H_    0.988138 0.780992 0.644159 0.220988
H341  H     H_    0.953427 0.137976 0.447101 0.158328
H342  H     H_    0.990790 0.833674 0.616431 0.231943
H343  H     H_    0.907417 0.823728 0.595817 0.195923
H344  H     H_    0.909806 0.772957 0.625584 0.200057
H345  H     H_    0.931913 0.333192 0.863846 0.263126
H346  H     H_    0.930068 0.304324 0.811015 0.259364
H347  H     H_    0.979997 0.303242 0.844169 0.249921
H348  H     H_    0.988120 0.355840 0.780991 0.220987
H349  H     H_    0.990778 0.383569 0.833672 0.231944
H350  H     H_    0.907407 0.404193 0.823728 0.195924
H351  H     H_    0.909791 0.374426 0.772957 0.200056
H352  H     H_    0.953415 0.447111 0.862025 0.158321
H353  H     H_    0.931955 0.136155 0.333174 0.263126
H354  H     H_    0.930120 0.188987 0.304306 0.259364
H355  H     H_    0.980049 0.155830 0.303238 0.249921
H356  H     H_    0.988159 0.219008 0.355839 0.220987
H357  H     H_    0.990807 0.166326 0.383568 0.231943
H358  H     H_    0.907431 0.176272 0.404169 0.195923
H359  H     H_    0.909824 0.227044 0.374402 0.200057
H360  H     H_    0.068082 0.333188 0.136157 0.263127
H361  H     H_    0.069922 0.304321 0.188989 0.259365
H362  H     H_    0.019994 0.303242 0.155831 0.249921
H363  H     H_    0.953420 0.862024 0.552893 0.158323
H364  H     H_    0.011872 0.355843 0.219008 0.220987
H365  H     H_    0.009218 0.383570 0.166325 0.231944
H366  H     H_    0.092589 0.404190 0.176272 0.195922
H367  H     H_    0.090203 0.374422 0.227043 0.200057
H368  H     H_    0.068048 0.136155 0.666825 0.263126
H369  H     H_    0.069885 0.188987 0.695693 0.259364
H370  H     H_    0.019955 0.155832 0.696762 0.249921
H371  H     H_    0.011845 0.219009 0.644161 0.220987
H372  H     H_    0.009195 0.166327 0.616432 0.231943
H373  H     H_    0.092571 0.176272 0.595828 0.195923
H374  H     H_    0.447124 0.862026 0.953401 0.158311
H375  H     H_    0.090179 0.227044 0.625595 0.200056
H376  H     H_    0.068082 0.666809 0.863847 0.263126
H377  H     H_    0.069927 0.695678 0.811016 0.259364
H378  H     H_    0.019997 0.696758 0.844170 0.249920
H379  H     H_    0.011875 0.644160 0.780992 0.220987
H380  H     H_    0.009219 0.616430 0.833673 0.231944
H381  H     H_    0.092590 0.595809 0.823729 0.195924
H382  H     H_    0.090205 0.625577 0.772957 0.200055
H383  H     H_    0.068071 0.863841 0.333181 0.263127
H384  H     H_    0.069906 0.811008 0.304315 0.259364
O1    O     O_R   0.962670 0.433890 0.500010 -0.625986
O2    O     O_R   0.499990 0.566110 0.037330 -0.625992
O3    O     O_R   0.566110 0.500010 0.037330 -0.625985
O4    O     O_R   0.500010 0.433890 0.037330 -0.625990
O5    O     O_R   0.566110 0.499990 0.962670 -0.625984
O6    O     O_R   0.500010 0.566110 0.962670 -0.625991
O7    O     O_R   0.433890 0.500010 0.962670 -0.625986
O8    O     O_R   0.499990 0.433890 0.962670 -0.625989
O9    O     O_R   0.499990 0.962670 0.566110 -0.625976
O10   O     O_R   0.566110 0.962670 0.500010 -0.625987
O11   O     O_R   0.500010 0.962670 0.433890 -0.625987
O12   O     O_R   0.962670 0.499990 0.433890 -0.625988
O13   O     O_R   0.433890 0.962670 0.499990 -0.625992
O14   O     O_R   0.499990 0.037330 0.433890 -0.625987
O15   O     O_R   0.566110 0.037330 0.499990 -0.625987
O16   O     O_R   0.500010 0.037330 0.566110 -0.625976
O17   O     O_R   0.433890 0.037330 0.500010 -0.625992
O18   O     O_R   0.462670 0.933890 0.000010 -0.625984
O19   O     O_R   0.462670 0.999990 0.933890 -0.625999
O20   O     O_R   0.462670 0.066110 0.999990 -0.625986
O21   O     O_R   0.462670 0.000010 0.066110 -0.625988
O22   O     O_R   0.537330 0.066110 0.000010 -0.625986
O23   O     O_R   0.962670 0.566110 0.499990 -0.625988
O24   O     O_R   0.537330 0.000010 0.933890 -0.625999
O25   O     O_R   0.537330 0.933890 0.999990 -0.625984
O26   O     O_R   0.537330 0.999990 0.066110 -0.625989
O27   O     O_R   0.933890 0.999990 0.537330 -0.625989
O28   O     O_R   0.999990 0.066110 0.537330 -0.625989
O29   O     O_R   0.066110 0.000010 0.537330 -0.625985
O30   O     O_R   0.000010 0.933890 0.537330 -0.625988
O31   O     O_R   0.066110 0.999990 0.462670 -0.625984
O32   O     O_R   0.000010 0.066110 0.462670 -0.625989
O33   O     O_R   0.933890 0.000010 0.462670 -0.625989
O34   O     O_R   0.962670 0.500010 0.566110 -0.625988
O35   O     O_R   0.999990 0.933890 0.462670 -0.625988
O36   O     O_R   0.999990 0.462670 0.066110 -0.625987
O37   O     O_R   0.066110 0.462670 0.000010 -0.625989
O38   O     O_R   0.000010 0.462670 0.933890 -0.625986
O39   O     O_R   0.933890 0.462670 0.999990 -0.625991
O40   O     O_R   0.999990 0.537330 0.933890 -0.625987
O41   O     O_R   0.066110 0.537330 0.999990 -0.625990
O42   O     O_R   0.000010 0.537330 0.066110 -0.625988
O43   O     O_R   0.933890 0.537330 0.000010 -0.625991
O44   O     O_R   0.037330 0.566110 0.500010 -0.625988
O45   O     O_R   0.037330 0.500010 0.433890 -0.625988
O46   O     O_R   0.037330 0.433890 0.499990 -0.625987
O47   O     O_R   0.037330 0.499990 0.566110 -0.625989
O48   O     O_R   0.433890 0.499990 0.037330 -0.625986
Zn1   Zn    Zn3+2 0.950160 0.500000 0.500000 0.940772
Zn2   Zn    Zn3+2 0.000000 0.000000 0.450160 0.940772
Zn3   Zn    Zn3+2 0.000000 0.450160 0.000000 0.940770
Zn4   Zn    Zn3+2 0.000000 0.549840 0.000000 0.940770
Zn5   Zn    Zn3+2 0.049840 0.500000 0.500000 0.940772
Zn6   Zn    Zn3+2 0.500000 0.500000 0.049840 0.940771
Zn7   Zn    Zn3+2 0.500000 0.500000 0.950160 0.940772
Zn8   Zn    Zn3+2 0.500000 0.950160 0.500000 0.940776
Zn9   Zn    Zn3+2 0.500000 0.049840 0.500000 0.940776
Zn10  Zn    Zn3+2 0.450160 0.000000 0.000000 0.940769
Zn11  Zn    Zn3+2 0.549840 0.000000 0.000000 0.940769
Zn12  Zn    Zn3+2 0.000000 1.000000 0.549840 0.940771

loop_
_geom_bond_atom_site_label_1
_geom_bond_atom_site_label_2
_ccdc_geom_bond_type
C202  H115  S    
C281  H289  S    
C264  H249  S    
O14   Zn9   S    
C3    C224  A    
C101  O29   A    
C287  H303  S    
C153  H380  S    
C248  H209  S    
C278  H294  S    
C206  H121  S    
C191  H78   S    
C208  H131  S    
C282  C283  S    
C6    C85   A    
C156  H4    S    
C126  C272  S    
C245  H216  S    
C78   C129  A    
C162  C163  S    
C200  H103  S    
C59   C66   A    
C139  H351  S    
C143  C144  S    
C99   C195  S    
C94   C178  S    
C46   O24   A    
C339  O8    A    
C199  H104  S    
O7    Zn7   S    
C167  H25   S    
C17   C61   A    
C83   C145  S    
C124  O42   A    
C68   O21   A    
C19   C98   A    
C23   C103  A    
C233  H182  S    
C41   C316  A    
C19   C63   A    
C168  H1    S    
C25   C298  A    
C14   C290  A    
C238  H187  S    
C29   C108  A    
C241  H194  S    
C158  H3    S    
C33   C307  A    
C228  H164  S    
C229  H176  S    
C36   C71   A    
C213  H137  S    
C137  C138  S    
C272  C273  S    
C199  C200  S    
C250  H221  S    
C252  H232  S    
C8    C56   A    
C161  H10   S    
C233  H183  S    
C204  H110  S    
C6    C54   A    
C281  H287  S    
C296  C337  A    
C26   C105  A    
C253  H229  S    
O33   Zn2   S    
C205  H123  S    
C188  H83   S    
C29   C69   A    
C327  C354  A    
C165  H29   S    
C277  H282  S    
C202  C203  S    
C30   C109  A    
C260  H245  S    
C48   C74   A    
C263  C264  S    
C140  C141  S    
C310  C345  A    
C175  H53   S    
C305  C345  A    
C51   C131  A    
C206  C207  S    
C196  C197  S    
C181  H56   S    
C274  H273  S    
C196  H97   S    
C182  H67   S    
C20   C302  A    
C4    C168  A    
C29   C311  A    
C309  H201  S    
C215  C216  S    
C174  H39   S    
C148  H362  S    
C68   C342  S    
C178  C180  S    
C175  C176  S    
C146  O38   A    
C166  H27   S    
O15   Zn9   S    
C86   C121  A    
C33   C114  A    
C151  H370  S    
C155  H7    S    
C169  H38   S    
C17   C96   A    
C16   C58   A    
C323  H321  S    
C216  H143  S    
C2    O10   A    
C284  H297  S    
C230  H174  S    
C144  H354  S    
C317  O6    A    
C194  H86   S    
C184  H63   S    
C133  H333  S    
C264  H251  S    
C63   C71   A    
C101  O31   A    
O4    Zn6   S    
C7    C53   A    
C11   C60   A    
C248  H211  S    
C306  O48   A    
C147  H364  S    
C96   C120  A    
C328  C356  S    
C227  H167  S    
C339  C346  S    
C326  H324  S    
C80   C117  A    
C324  H322  S    
C96   C185  S    
C314  C349  A    
C300  H113  S    
C168  C332  A    
C127  C275  S    
C315  H268  S    
C147  H365  S    
C113  C333  S    
C32   C111  A    
C259  H247  S    
C139  C140  S    
C267  H256  S    
C284  H296  S    
C297  C341  A    
C222  C225  S    
C146  C334  S    
C156  C158  S    
C240  H197  S    
C9    C88   A    
C27   C66   A    
C173  H43   S    
C85   C131  A    
C115  C239  S    
C13   O11   A    
C20   C99   A    
C272  H278  S    
C92   C172  S    
C88   C162  S    
C146  O40   A    
C79   O33   A    
C31   C110  A    
C87   C159  S    
C138  H339  S    
C241  H196  S    
C187  H71   S    
C25   C62   A    
C46   O19   A    
C175  H52   S    
C195  C196  S    
C97   C107  A    
C159  H14   S    
C223  O23   A    
C214  H133  S    
C37   C117  A    
C47   C329  A    
C193  C194  S    
C244  H203  S    
C125  C269  S    
C155  C156  S    
C257  C336  A    
C251  H217  S    
C285  H309  S    
C254  H228  S    
C186  C187  S    
C149  C150  S    
C190  C334  A    
C160  H12   S    
C256  H238  S    
C252  C253  S    
C153  C154  S    
C100  C198  S    
C44   C331  A    
C268  H2    S    
C228  H163  S    
C299  H101  S    
C35   O25   A    
C147  C148  S    
C229  H177  S    
C90   O28   A    
C267  H258  S    
C163  H19   S    
C164  H17   S    
C210  H126  S    
C58   C76   A    
C87   C110  A    
C262  H255  S    
C197  H93   S    
C198  H107  S    
C249  C250  S    
C221  C222  S    
C154  H378  S    
C162  H21   S    
C239  H199  S    
C24   O17   A    
C138  H338  S    
C124  C332  S    
C234  H180  S    
C49   C326  A    
C5    C201  A    
C253  C254  S    
C255  H240  S    
C258  H234  S    
C7    C86   A    
C170  C171  S    
C186  H74   S    
C276  H283  S    
C173  H42   S    
C144  H355  S    
O29   Zn12  S    
C208  H130  S    
C236  C237  S    
C345  C350  S    
C185  H75   S    
C78   C132  S    
C105  C211  S    
C42   C71   A    
C303  H146  S    
C200  H102  S    
C203  H114  S    
C182  C183  S    
C218  H153  S    
C3    C55   A    
C92   C108  A    
C321  C352  A    
C10   C89   A    
C1    O1    A    
C256  C258  S    
C95   C130  A    
C174  H40   S    
C234  H181  S    
C212  C358  A    
C233  C234  S    
C14   C93   A    
C328  O3    A    
C141  H346  S    
C84   C149  S    
C212  C332  A    
C329  C357  A    
C13   O14   A    
C236  H192  S    
C330  H327  S    
C237  C238  S    
O13   Zn8   S    
C171  H31   S    
C315  C351  A    
C283  H298  S    
C271  H264  S    
C128  C278  S    
C34   C319  A    
C33   C66   A    
C209  C210  S    
C51   C324  A    
C235  H352  S    
C209  H129  S    
C44   C125  A    
C194  H85   S    
C313  C346  A    
C91   C169  S    
C136  H343  S    
C286  H306  S    
O42   Zn4   S    
C280  C281  S    
C207  H118  S    
C158  H384  S    
C5    C84   A    
C52   C77   A    
C18   C62   A    
C330  C356  A    
C226  H170  S    
C177  H48   S    
C34   C115  A    
O45   Zn5   S    
C124  O36   A    
C261  H241  S    
O39   Zn3   S    
C144  H353  S    
C260  H244  S    
C301  H124  S    
C218  H154  S    
C265  H263  S    
C150  H371  S    
C301  C341  A    
C140  H349  S    
C113  O35   A    
C311  C348  A    
C211  H139  S    
C266  H260  S    
C171  H32   S    
C45   C126  A    
C196  H96   S    
C52   C358  A    
O23   Zn1   S    
C309  C348  A    
C222  H159  S    
C293  C340  A    
C195  H98   S    
C310  H212  S    
C254  H226  S    
C275  H286  S    
C291  H313  S    
C32   C67   A    
C320  C353  A    
C289  H315  S    
C217  H141  S    
C171  H33   S    
C186  H73   S    
C228  H165  S    
C36   C322  A    
C189  C191  S    
C12   C257  A    
C90   C335  S    
C36   C116  A    
C43   C123  A    
C35   C336  S    
C243  H206  S    
C40   C318  A    
O25   Zn11  S    
C266  H261  S    
C184  H62   S    
C11   C293  A    
C281  H288  S    
C264  H250  S    
C189  H82   S    
C221  H162  S    
C172  H44   S    
C142  C143  S    
O41   Zn4   S    
C21   C61   A    
C12   C92   A    
C22   C300  A    
C103  C205  S    
C83   C127  A    
C246  H363  S    
C234  H178  S    
C248  H210  S    
C224  H341  S    
C109  C226  S    
C317  C348  S    
C25   C104  A    
C47   C127  A    
C262  C263  S    
C191  H77   S    
C14   C60   A    
O11   Zn8   S    
C262  H254  S    
O18   Zn10  S    
C308  H190  S    
C204  H108  S    
C314  H257  S    
C15   C279  A    
C201  C335  A    
C324  C355  A    
C235  C360  A    
C215  H147  S    
C317  O2    A    
C53   C72   A    
C143  H357  S    
O27   Zn12  S    
C232  H184  S    
C39   C119  A    
C240  C241  S    
C287  H305  S    
C49   C77   A    
C27   C106  A    
C46   C344  S    
C142  H358  S    
C129  C282  S    
O48   Zn6   S    
C30   C65   A    
C219  H152  S    
C93   C175  S    
C54   C75   A    
C31   C69   A    
C152  C153  S    
C226  C227  S    
C27   C313  A    
C283  C284  S    
C238  H188  S    
C150  C151  S    
C45   C330  A    
C300  C344  A    
C204  H109  S    
C255  C256  S    
C322  C351  A    
C199  H105  S    
O26   Zn11  S    
C279  C338  A    
C244  H202  S    
O32   Zn2   S    
C183  H66   S    
C161  H9    S    
O21   Zn10  S    
C247  H214  S    
C296  H68   S    
C293  H46   S    
C82   C142  S    
C270  H269  S    
C251  H219  S    
C220  H149  S    
C271  H266  S    
C205  H122  S    
C188  H84   S    
C213  C214  S    
C31   C309  A    
C277  H280  S    
C277  H281  S    
O12   Zn1   S    
C261  H243  S    
O31   Zn2   S    
C237  H189  S    
O16   Zn9   S    
C45   C76   A    
O47   Zn5   S    
O8    Zn7   S    
C239  C240  S    
C53   C359  A    
C313  H246  S    
C132  H335  S    
C267  H259  S    
C131  C288  S    
C164  H16   S    
C181  H55   S    
C178  H60   S    
C243  C244  S    
C99   C109  A    
C274  H272  S    
C135  O37   A    
O3    Zn6   S    
C202  H116  S    
C40   C73   A    
C102  C105  A    
C197  H95   S    
C9    C58   A    
C112  O45   A    
C43   C327  A    
C145  H367  S    
C319  H301  S    
C225  H156  S    
C208  C209  S    
C166  H28   S    
C198  C199  S    
C151  H369  S    
C169  H37   S    
C298  C342  A    
C18   C97   A    
C216  H144  S    
C90   O32   A    
C34   C70   A    
C302  C344  A    
C223  C352  S    
C193  H88   S    
C230  H175  S    
C10   C294  A    
C137  H340  S    
C81   C125  A    
C194  H87   S    
C184  H64   S    
C178  H61   S    
C23   C63   A    
C143  H356  S    
C249  H225  S    
C269  C270  S    
C287  H304  S    
C307  H179  S    
C24   O13   A    
C149  H373  S    
C82   C119  A    
C15   C94   A    
C288  H316  S    
C278  H293  S    
C145  C147  S    
C273  H275  S    
C116  C242  S    
O44   Zn5   S    
C326  C357  A    
C91   C128  A    
C231  H171  S    
C295  O47   A    
C1    C349  S    
C292  C336  A    
C180  H58   S    
C219  C220  S    
C215  H145  S    
C260  C261  S    
C224  C335  A    
C61   C73   A    
C250  C251  S    
C205  C206  S    
C350  O16   A    
C35   O18   A    
O36   Zn3   S    
C37   C321  A    
C28   C67   A    
C135  O41   A    
C81   C360  A    
C303  C343  A    
C12   C56   A    
C273  H276  S    
C282  H300  S    
C86   C155  S    
C207  H119  S    
C285  C286  S    
C167  H26   S    
C48   C128  A    
C318  C353  A    
C295  C355  S    
C159  C160  S    
C246  C359  A    
O17   Zn9   S    
C242  C243  S    
C28   C312  A    
C295  O34   A    
C241  H195  S    
C152  H382  S    
C141  H345  S    
C302  H135  S    
C57   O20   A    
C157  C337  S    
C140  H348  S    
C121  C259  S    
C203  H111  S    
C40   C120  A    
C350  O9    A    
C101  C343  S    
C190  H223  S    
O10   Zn8   S    
C244  H204  S    
C252  H231  S    
C263  H253  S    
C133  C134  S    
C19   C303  A    
C100  C118  A    
C180  H59   S    
C270  H267  S    
O5    Zn7   S    
C134  H332  S    
C253  H230  S    
C23   C299  A    
C180  C181  S    
C152  H381  S    
C325  H323  S    
C254  H227  S    
C329  H326  S    
C81   C139  S    
C165  H30   S    
C32   C308  A    
C235  C334  A    
C176  H50   S    
C237  H191  S    
C57   C338  S    
C15   C59   A    
C122  C262  S    
C261  H242  S    
C206  H120  S    
C118  C249  S    
C179  H112  S    
C279  H13   S    
C164  H18   S    
C210  H127  S    
C179  C333  A    
C305  H168  S    
C117  C245  S    
C193  H89   S    
C80   C136  S    
C162  H22   S    
C64   C65   A    
C8    C87   A    
C10   C59   A    
C102  C202  S    
C85   C152  S    
C79   O27   A    
C307  C346  A    
C161  H8    S    
C148  H361  S    
C288  C289  S    
C68   O26   A    
C255  H239  S    
C185  C186  S    
C4    C83   A    
C210  H125  S    
C225  H158  S    
C276  H284  S    
C26   C310  A    
C177  H49   S    
C232  C233  S    
C316  C352  A    
C268  C337  A    
C38   C320  A    
C113  O30   A    
C104  C208  S    
C280  H291  S    
C154  H376  S    
C230  C231  S    
C21   C297  A    
C120  C255  S    
C263  H252  S    
C231  H173  S    
C80   C359  A    
C22   C64   A    
C137  H342  S    
C38   C118  A    
C325  C356  A    
C133  H334  S    
C282  H302  S    
C37   C72   A    
C288  H317  S    
O19   Zn10  S    
C159  H15   S    
C270  C271  S    
C136  C137  S    
C308  C347  A    
C149  H375  S    
C103  C122  A    
C321  H318  S    
O6    Zn7   S    
C257  H374  S    
O40   Zn4   S    
C97   C188  S    
O1    Zn1   S    
C203  C204  S    
O28   Zn12  S    
C11   C91   A    
C165  C166  S    
C108  C221  S    
O46   Zn5   S    
C156  H5    S    
C169  C170  S    
C227  H166  S    
C240  H198  S    
C163  C164  S    
C200  H100  S    
C320  H312  S    
C94   C114  A    
C139  H350  S    
C284  H295  S    
C173  C174  S    
C318  H290  S    
C285  H308  S    
C106  C215  S    
C4    C52   A    
C57   O22   A    
C229  C230  S    
C62   C67   A    
C136  H344  S    
C286  H307  S    
C110  C229  S    
C30   C305  A    
C51   C75   A    
C207  H117  S    
C50   C76   A    
C220  H148  S    
C160  H11   S    
C286  C287  S    
C177  H47   S    
C28   C107  A    
C170  H36   S    
C157  O39   A    
C291  H311  S    
C304  H157  S    
C79   C341  S    
C312  H235  S    
C298  H90   S    
C187  H72   S    
C141  H347  S    
C41   C121  A    
C265  H262  S    
C227  C228  S    
C88   C126  A    
C50   C130  A    
C323  C354  A    
C269  H271  S    
C331  H328  S    
C258  H236  S    
C312  C347  A    
C214  H132  S    
C223  O44   A    
C172  H45   S    
C44   C75   A    
C250  H220  S    
C132  C133  S    
C93   C123  A    
C42   C315  A    
C222  H160  S    
C251  H218  S    
C192  H91   S    
C192  C193  S    
C134  H331  S    
C275  H285  S    
C265  C266  S    
C322  H320  S    
C256  H237  S    
C201  H319  S    
C43   C74   A    
C189  H81   S    
C289  H314  S    
C217  H140  S    
C339  O4    A    
O9    Zn8   S    
C236  H193  S    
C294  C338  A    
C111  C232  S    
C290  C340  A    
C130  C285  S    
C242  H208  S    
C163  H20   S    
C243  H205  S    
C176  H51   S    
C231  H172  S    
C13   C347  S    
O37   Zn3   S    
C316  H279  S    
C48   C323  A    
C238  H186  S    
C197  H94   S    
C198  H106  S    
C283  H299  S    
C249  H222  S    
C306  C354  S    
C221  H161  S    
C154  H377  S    
C239  H200  S    
C174  H41   S    
C246  C333  A    
C216  C217  S    
C98   C192  S    
C21   C100  A    
C328  O5    A    
C258  H233  S    
C114  C236  S    
C191  H80   S    
O35   Zn2   S    
C183  H65   S    
O2    Zn6   S    
C49   C129  A    
C280  H292  S    
C155  H6    S    
C18   C304  A    
C188  C189  S    
C20   C64   A    
C185  H76   S    
C181  H54   S    
C2    O15   A    
C183  C184  S    
C78   C358  A    
C107  C218  S    
C123  C265  S    
C98   C116  A    
C213  H136  S    
C6    C190  A    
C3    C82   A    
C331  C355  A    
C269  H270  S    
C7    C179  A    
C142  H359  S    
C276  C277  S    
O43   Zn4   S    
C89   C165  S    
C16   C268  A    
C219  H151  S    
C41   C72   A    
O34   Zn1   S    
C176  C177  S    
C211  C213  S    
C275  C276  S    
C56   C69   A    
C84   C115  A    
C151  H368  S    
C166  C167  S    
O38   Zn3   S    
C89   C106  A    
C278  C280  S    
C294  H57   S    
C167  H23   S    
C47   C77   A    
C50   C325  A    
C259  C260  S    
C153  H379  S    
C232  H185  S    
C172  C173  S    
C42   C122  A    
C8    C292  A    
C54   C360  A    
C16   C95   A    
C150  H372  S    
C245  H215  S    
C214  H134  S    
C306  O7    A    
C26   C65   A    
C5    C55   A    
C112  C357  S    
C247  H213  S    
C2    C353  S    
C17   C301  A    
C220  H150  S    
C158  H383  S    
C157  O43   A    
C104  C111  A    
C247  C248  S    
C271  H265  S    
C95   C182  S    
C259  H248  S    
C226  H169  S    
C170  H34   S    
C272  H277  S    
C319  C349  A    
C311  H224  S    
C22   C102  A    
C187  H70   S    
C160  C161  S    
C245  C247  S    
C135  C340  S    
C1    O46   A    
C119  C252  S    
C132  H336  S    
C212  H330  S    
C211  H138  S    
C218  C219  S    
C182  H69   S    
C60   C74   A    
C289  C291  S    
C39   C70   A    
O20   Zn10  S    
C9    C296  A    
C134  H329  S    
C292  H35   S    
C304  C342  A    
C299  C343  A    
C291  H310  S    
C55   C70   A    
C266  C267  S    
C148  H360  S    
C145  H366  S    
C327  H325  S    
C112  O12   A    
C195  H99   S    
C217  H142  S    
C225  H155  S    
C290  H24   S    
C24   C351  S    
C297  H79   S    
C138  H337  S    
C274  H274  S    
O30   Zn12  S    
C39   C314  A    
C38   C73   A    
O24   Zn11  S    
C242  H207  S    
O22   Zn11  S    
C192  H92   S    
C209  H128  S    
C273  C274  S    
