data_mof_unit_14156.cif
_audit_creation_date              2012-12-11T15:12:43-0500
_audit_creation_method            fapswitch 2.2
_symmetry_space_group_name_H-M    P1
_symmetry_Int_Tables_number       1
_space_group_crystal_system       triclinic
_cell_length_a                    22.338705
_cell_length_b                    6.943211
_cell_length_c                    19.372933
_cell_angle_alpha                 89.99873
_cell_angle_beta                  99.169201
_cell_angle_gamma                 89.999895
_cell_volume                      2966.39230963

loop_
_atom_site_label
_atom_site_type_symbol
_atom_type_description
_atom_site_fract_x
_atom_site_fract_y
_atom_site_fract_z
_atom_type_partial_charge
O1    O     O_R   0.448420 0.506120 0.415750 -0.535600
O2    O     O_R   0.551580 0.006120 0.584250 -0.535600
O3    O     O_R   0.436490 0.174470 0.555610 -0.536973
O4    O     O_R   0.563510 0.674470 0.444390 -0.536972
C1    C     C_R   0.421067 0.344688 0.575790 0.719193
C2    C     C_R   0.578933 0.844690 0.424210 0.719195
O5    O     O_R   0.441310 0.176330 0.414520 -0.536638
O6    O     O_R   0.558690 0.676330 0.585480 -0.536640
O7    O     O_R   0.556430 0.007110 0.442150 -0.535284
O8    O     O_R   0.443570 0.507110 0.557850 -0.535282
C3    C     C_R   0.426772 0.345072 0.388375 0.685890
C4    C     C_R   0.573229 0.845069 0.611624 0.685889
O9    O     O_3   0.537770 0.339560 0.509230 -0.365319
O10   O     O_3   0.462230 0.839560 0.490770 -0.365319
V1    V     V_3+5 0.492990 0.064280 0.498290 1.425988
V2    V     V_3+5 0.507010 0.564280 0.501710 1.425989
C5    C     C_R   0.867110 0.976791 0.695646 -0.163058
C6    C     C_R   0.132886 0.476718 0.304356 -0.163057
H1    H     H_    0.954258 0.003697 0.759678 0.102023
H2    H     H_    0.045737 0.503608 0.240325 0.102022
H3    H     H_    0.885518 0.003813 0.648064 0.107832
H4    H     H_    0.114477 0.503707 0.351939 0.107831
C7    C     C_R   0.884466 0.941255 0.821494 -0.038705
C8    C     C_R   0.115533 0.441240 0.178506 -0.038701
C9    C     C_R   0.590048 0.818157 0.739829 -0.163633
C10   C     C_R   0.409954 0.318209 0.260171 -0.163637
C11   C     C_R   0.626653 0.816293 0.804953 -0.123994
C12   C     C_R   0.373350 0.316359 0.195047 -0.123995
C13   C     C_R   0.688948 0.846457 0.810991 -0.158109
C14   C     C_R   0.311054 0.346504 0.189009 -0.158111
C15   C     C_R   0.716620 0.880076 0.751303 0.078584
C16   C     C_R   0.283381 0.380089 0.248697 0.078584
C17   C     C_R   0.678484 0.883613 0.684344 0.069067
C18   C     C_R   0.321516 0.383609 0.315656 0.069069
C19   C     C_R   0.780746 0.909981 0.755843 0.073548
C20   C     C_R   0.219254 0.409977 0.244157 0.073548
C21   C     C_R   0.804774 0.944411 0.693292 0.141823
C22   C     C_R   0.195224 0.444367 0.306709 0.141822
C23   C     C_R   0.766589 0.947148 0.628630 -0.204067
C24   C     C_R   0.233409 0.447092 0.371371 -0.204066
C25   C     C_R   0.704585 0.916924 0.624103 -0.194699
C26   C     C_R   0.295414 0.416888 0.375897 -0.194699
C27   C     C_R   0.822123 0.907790 0.820003 -0.216570
C28   C     C_R   0.177878 0.407805 0.179996 -0.216568
C29   C     C_R   0.906432 0.976338 0.759142 -0.170197
C30   C     C_R   0.093564 0.476275 0.240859 -0.170199
C31   C     C_R   0.614928 0.851985 0.679167 -0.083591
C32   C     C_R   0.385073 0.352000 0.320832 -0.083588
H5    H     H_    0.714141 0.842373 0.863206 0.104353
H6    H     H_    0.285861 0.342432 0.136794 0.104355
H7    H     H_    0.606547 0.790306 0.851388 0.112868
H8    H     H_    0.393456 0.290397 0.148612 0.112871
H9    H     H_    0.677129 0.920241 0.572734 0.109441
H10   H     H_    0.322869 0.420195 0.427267 0.109438
C33   C     C_3   0.808410 0.749499 0.262294 -0.327550
C34   C     C_3   0.191576 0.249557 0.737689 -0.327552
C35   C     C_3   0.786226 0.103310 0.247940 -0.330891
C36   C     C_3   0.213793 0.603338 0.752079 -0.330895
C37   C     C_3   0.738184 0.085882 0.297706 -0.328029
C38   C     C_3   0.261835 0.585908 0.702313 -0.328031
H11   H     H_    0.782664 0.753812 0.367022 0.137020
H12   H     H_    0.217325 0.253928 0.632964 0.137018
H13   H     H_    0.853647 0.779628 0.293657 0.136359
H14   H     H_    0.146343 0.279748 0.706328 0.136359
H15   H     H_    0.831027 0.140737 0.278951 0.136655
H16   H     H_    0.168996 0.640826 0.721071 0.136653
H17   H     H_    0.760133 0.114897 0.352409 0.136868
H18   H     H_    0.239890 0.614983 0.647612 0.136868
H19   H     H_    0.702503 0.197340 0.283701 0.135394
H20   H     H_    0.297525 0.697326 0.716330 0.135397
C39   C     C_1   0.624809 0.854903 0.378858 -0.191292
C40   C     C_1   0.375191 0.354897 0.621142 -0.191292
C41   C     C_3   0.791248 0.912144 0.207707 0.293095
C42   C     C_3   0.208752 0.412146 0.792293 0.293097
C43   C     C_3   0.760320 0.732049 0.312005 -0.328773
C44   C     C_3   0.239666 0.232104 0.687979 -0.328774
C45   C     C_3   0.708961 0.882406 0.292840 0.291417
C46   C     C_3   0.291039 0.382404 0.707160 0.291418
C47   C     C_3   0.679674 0.847694 0.215682 -0.328167
C48   C     C_3   0.320321 0.347608 0.784315 -0.328167
C49   C     C_3   0.727749 0.865025 0.165948 -0.328916
C50   C     C_3   0.272246 0.364942 0.834049 -0.328914
C51   C     C_1   0.662779 0.866249 0.340412 -0.101484
C52   C     C_1   0.337220 0.366244 0.659588 -0.101485
C53   C     C_1   0.837392 0.928265 0.160076 -0.102196
C54   C     C_1   0.162608 0.428270 0.839924 -0.102196
C55   C     C_1   0.875272 0.939573 0.121505 -0.194531
C56   C     C_1   0.124729 0.439578 0.878495 -0.194531
H21   H     H_    0.729655 0.727519 0.136854 0.136115
H22   H     H_    0.270326 0.227415 0.863129 0.136115
H23   H     H_    0.713772 0.979874 0.126602 0.136308
H24   H     H_    0.286233 0.479750 0.873407 0.136307
H25   H     H_    0.811903 0.609720 0.235084 0.135978
H26   H     H_    0.188070 0.109760 0.764886 0.135981
H27   H     H_    0.740905 0.584063 0.308367 0.137524
H28   H     H_    0.259067 0.084099 0.691602 0.137529
H29   H     H_    0.642820 0.954340 0.200011 0.136467
H30   H     H_    0.357184 0.454211 0.799998 0.136467
O11   O     O_R   0.056480 0.288780 0.942210 -0.535573
O12   O     O_R   0.943520 0.788780 0.057790 -0.535575
O13   O     O_R   0.058700 0.616820 0.085490 -0.538074
O14   O     O_R   0.941300 0.116820 0.914510 -0.538076
C57   C     C_R   0.073217 0.448388 0.111714 0.693376
C58   C     C_R   0.926783 0.948392 0.888286 0.693376
O15   O     O_R   0.063520 0.618570 0.944410 -0.537710
O16   O     O_R   0.936480 0.118570 0.055590 -0.537709
O17   O     O_R   0.948420 0.787670 0.915740 -0.535996
O18   O     O_R   0.051580 0.287670 0.084260 -0.535997
C59   C     C_R   0.078976 0.449779 0.924024 0.726420
C60   C     C_R   0.921024 0.949777 0.075976 0.726421
O19   O     O_3   0.962260 0.453430 0.990800 -0.366463
O20   O     O_3   0.037740 0.953430 0.009200 -0.366462
V3    V     V_3+5 0.007000 0.728750 0.001710 1.419878
V4    V     V_3+5 0.993000 0.228750 0.998290 1.419879
H31   H     H_    0.773361 0.222925 0.210237 0.135192
H32   H     H_    0.226667 0.722915 0.789794 0.135195
H33   H     H_    0.658694 0.701971 0.210223 0.135602
H34   H     H_    0.341287 0.201863 0.789760 0.135600
H35   H     H_    0.784888 0.973038 0.580890 0.119314
H36   H     H_    0.215108 0.472956 0.419111 0.119314
H37   H     H_    0.807490 0.882827 0.869621 0.091568
H38   H     H_    0.192513 0.382877 0.130377 0.091564
H39   H     H_    0.541824 0.792621 0.736671 0.100917
H40   H     H_    0.458179 0.292688 0.263329 0.100917

loop_
_geom_bond_atom_site_label_1
_geom_bond_atom_site_label_2
_ccdc_geom_bond_type
C22   C24   A    
O12   C60   A    
C7    C29   A    
C11   C13   A    
O13   V3    S    
O1    C3    A    
C33   H25   S    
O2    C4    A    
C37   C45   S    
O11   V4    S    
O20   V4    S    
C43   H27   S    
C23   C25   A    
C55   C60   S    
C13   H5    S    
H11   C43   S    
C34   H26   S    
C38   C46   S    
O16   V4    S    
C34   C44   S    
C16   C20   A    
O15   V3    S    
C35   H31   S    
C5    C29   A    
C1    C40   S    
O16   C60   A    
C46   C48   S    
C35   C37   S    
C45   C51   S    
C36   C38   S    
O11   C59   A    
C50   H24   S    
O18   V4    S    
C27   H37   S    
O17   V3    S    
C37   H17   S    
C36   H16   S    
C18   C26   A    
C33   H13   S    
C15   C17   A    
C57   O18   A    
O10   V2    S    
C19   C27   A    
C9    C31   A    
C10   C32   A    
C33   C43   S    
C53   C55   T    
C14   H6    S    
O6    V2    S    
C36   H32   S    
H12   C44   S    
C3    C32   S    
C10   H40   S    
C2    O7    A    
C4    C31   S    
C6    C30   A    
C41   C49   S    
O20   V3    S    
C13   C15   A    
C11   H7    S    
C39   C51   T    
C45   C47   S    
C2    C39   S    
C48   H34   S    
C28   H38   S    
C34   C42   S    
C44   C46   S    
C17   C25   A    
C48   C50   S    
C47   C49   S    
C5    H3    S    
C16   C18   A    
O4    V2    S    
O5    C3    A    
O14   V4    S    
C44   H28   S    
C9    H39   S    
C7    C58   S    
C38   H20   S    
O6    C4    A    
C41   C53   S    
C34   H14   S    
O19   V3    S    
O1    V2    S    
C5    C21   A    
C42   C54   S    
C49   H23   S    
O14   C58   A    
O2    V1    S    
C43   C45   S    
C25   H9    S    
C40   C52   T    
C37   H19   S    
C56   C59   S    
O4    C2    A    
C24   H36   S    
O9    V1    S    
C8    C28   A    
C15   C19   A    
C20   C28   A    
C18   C32   A    
C23   H35   S    
O3    V1    S    
C36   C42   S    
C42   C50   S    
O15   C59   A    
C19   C21   A    
C6    H4    S    
C7    C27   A    
C35   C41   S    
C47   H29   S    
O12   V3    S    
C35   H15   S    
C24   C26   A    
O3    C1    A    
H1    C29   S    
C9    C11   A    
C10   C12   A    
C50   H22   S    
C8    C57   S    
C8    C30   A    
C20   C22   A    
C6    C22   A    
C49   H21   S    
C12   C14   A    
C21   C23   A    
O8    V2    S    
C26   H10   S    
C14   C16   A    
C12   H8    S    
C48   H30   S    
C17   C31   A    
C47   H33   S    
O5    V1    S    
O19   V4    S    
C54   C56   T    
O7    V1    S    
C33   C41   S    
C46   C52   S    
C1    O8    A    
C38   H18   S    
O13   C57   A    
O9    V2    S    
O10   V1    S    
C58   O17   A    
H2    C30   S    
