data_mof_unit_49158.cif
_audit_creation_date              2012-12-11T15:52:36-0500
_audit_creation_method            fapswitch 2.2
_symmetry_space_group_name_H-M    P1
_symmetry_Int_Tables_number       1
_space_group_crystal_system       triclinic
_cell_length_a                    6.928943
_cell_length_b                    14.552704
_cell_length_c                    16.044777
_cell_angle_alpha                 90.155972
_cell_angle_beta                  89.98551
_cell_angle_gamma                 89.981644
_cell_volume                      1617.86665681

loop_
_atom_site_label
_atom_site_type_symbol
_atom_type_description
_atom_site_fract_x
_atom_site_fract_y
_atom_site_fract_z
_atom_type_partial_charge
O1    O     O_R   0.494400 0.415640 0.412830 -0.536846
O2    O     O_R   0.823920 0.405510 0.586560 -0.543787
O3    O     O_R   0.994250 0.584360 0.587170 -0.541744
C1    C     C_R   0.654882 0.383230 0.615398 0.680708
O4    O     O_R   0.824110 0.404610 0.413450 -0.545700
O5    O     O_R   0.994440 0.583460 0.412820 -0.539910
C2    C     C_R   0.655721 0.380998 0.385125 0.691982
O6    O     O_R   0.494210 0.416540 0.587180 -0.542778
O7    O     O_3   0.660810 0.558680 0.500000 -0.371560
V1    V     V_3+5 0.935650 0.489110 0.500000 1.381748
O8    O     O_R   0.324150 0.594490 0.413440 -0.541044
C3    C     C_R   0.155090 0.616712 0.384410 0.690457
O9    O     O_R   0.323970 0.595390 0.586550 -0.541953
C4    C     C_R   0.156401 0.616908 0.616374 0.672817
V2    V     V_3+5 0.435660 0.510890 0.500000 1.391944
O10   O     O_3   0.160630 0.441320 0.500000 -0.368506
C5    C     C_3   0.044759 0.645780 0.764478 -0.388940
H1    H     H_    0.893562 0.628482 0.747058 0.188244
H2    H     H_    0.111727 0.580044 0.784371 0.125870
C6    C     C_3   0.041310 0.715483 0.838073 -0.334680
H3    H     H_    0.126269 0.687694 0.891159 0.126147
H4    H     H_    0.890055 0.724088 0.860111 0.166520
H5    H     H_    0.884769 0.750183 0.642373 0.160468
H6    H     H_    0.858969 0.852410 0.749538 0.161149
C7    C     C_3   0.031544 0.772210 0.660925 -0.338493
C8    C     C_3   0.361709 0.720408 0.715991 0.527887
C9    C     C_3   0.151733 0.686883 0.687741 0.052488
C10   C     C_3   0.125300 0.809869 0.811241 0.033769
C11   C     C_3   0.013723 0.843029 0.733246 -0.337004
C12   C     C_3   0.339842 0.795762 0.785451 -0.275027
H7    H     H_    0.424419 0.775931 0.841648 0.132263
H8    H     H_    0.402163 0.862950 0.767864 0.133826
H9    H     H_    0.094009 0.804522 0.604560 0.148359
H10   H     H_    0.069206 0.910993 0.712740 0.120100
C13   C     C_R   0.953274 0.773845 0.216000 -0.157797
H11   H     H_    0.812476 0.792083 0.191904 0.116082
C14   C     C_R   0.964318 0.710709 0.281600 -0.153324
H12   H     H_    0.831476 0.682116 0.305820 0.118681
C15   C     C_R   0.143952 0.684755 0.315261 -0.048718
C16   C     C_R   0.312215 0.723813 0.281450 -0.157246
H13   H     H_    0.453008 0.705595 0.305568 0.116671
C17   C     C_R   0.301172 0.786945 0.215846 -0.151728
H14   H     H_    0.434011 0.815553 0.191640 0.118508
C18   C     C_R   0.121546 0.812833 0.182129 -0.047603
C19   C     C_R   0.812163 0.273964 0.715982 -0.160076
H15   H     H_    0.952860 0.292278 0.691809 0.116470
C20   C     C_R   0.801204 0.209221 0.780145 -0.156341
H16   H     H_    0.933981 0.179567 0.803381 0.117849
C21   C     C_R   0.621645 0.183140 0.813694 -0.045788
C22   C     C_R   0.453332 0.223484 0.781243 -0.161073
H17   H     H_    0.312632 0.205159 0.805403 0.116355
C23   C     C_R   0.464294 0.288237 0.717087 -0.155556
H18   H     H_    0.331519 0.317895 0.693850 0.117670
C24   C     C_R   0.643854 0.314322 0.683547 -0.043736
C25   C     C_R   0.803122 0.250176 0.298261 0.194323
C26   C     C_R   0.788485 0.187816 0.231826 -0.123042
H19   H     H_    0.909088 0.142361 0.219341 0.138643
C27   C     C_R   0.621065 0.182280 0.182829 -0.112350
C28   C     C_R   0.465819 0.240722 0.201851 -0.144853
H20   H     H_    0.334443 0.238218 0.165353 0.131223
C29   C     C_R   0.479482 0.304495 0.267228 -0.167506
H21   H     H_    0.358551 0.349950 0.278449 0.124916
C30   C     C_R   0.647339 0.310969 0.316525 -0.102604
O11   O     O_R   0.771300 0.080930 0.910090 -0.540667
O12   O     O_R   0.441270 0.092800 0.083770 -0.540149
O13   O     O_R   0.271080 0.913920 0.084380 -0.539776
C31   C     C_R   0.610058 0.114893 0.112997 0.702519
O14   O     O_R   0.441580 0.091910 0.910670 -0.544498
O15   O     O_R   0.271390 0.913020 0.910040 -0.544846
C32   C     C_R   0.610622 0.114226 0.881852 0.682533
O16   O     O_R   0.770990 0.081830 0.084440 -0.540898
O17   O     O_3   0.604750 0.938760 0.997250 -0.370905
V3    V     V_3+5 0.329850 0.008280 0.997210 1.393410
O18   O     O_R   0.941680 0.901940 0.910610 -0.542195
C33   C     C_R   0.111068 0.879773 0.881680 0.670790
O19   O     O_R   0.941370 0.902830 0.083720 -0.543961
C34   C     C_R   0.110420 0.880737 0.112856 0.686484
V4    V     V_3+5 0.829860 0.986420 0.997150 1.391145
O20   O     O_3   0.104830 0.056030 0.997180 -0.367394
N1    N     N_3   0.976553 0.247634 0.346798 -0.674881
H22   H     H_    0.050670 0.309490 0.339208 0.241694
H23   H     H_    0.940565 0.238482 0.409511 0.233872
N2    N     N_2   0.470046 0.753867 0.643048 -0.503470
H24   H     H_    0.575410 0.711230 0.619264 0.278879
C35   C     C_3   0.487867 0.849410 0.618503 -0.617098
H25   H     H_    0.519793 0.852877 0.550779 0.203619
H26   H     H_    0.608918 0.882153 0.652558 0.193809
H27   H     H_    0.353960 0.888736 0.629943 0.201591
N3    N     N_3   0.474226 0.644228 0.753196 -0.719731
H28   H     H_    0.480312 0.586497 0.714751 0.223694
H29   H     H_    0.416535 0.623143 0.810192 0.209601

loop_
_geom_bond_atom_site_label_1
_geom_bond_atom_site_label_2
_ccdc_geom_bond_type
C25   C26   A    
C8    N2    S    
C13   H11   S    
C1    O6    A    
C20   C21   A    
C19   H15   S    
C8    N3    S    
C8    C9    S    
C18   C34   S    
C13   C14   A    
O19   V4    S    
O5    C3    A    
C12   H7    S    
V2    O10   S    
C5    C6    S    
O12   V3    S    
C26   H19   S    
C29   C30   A    
H6    C11   S    
O17   V4    S    
O8    V2    S    
N2    H24   S    
O12   C31   A    
C25   C30   A    
C22   C23   A    
O15   V3    S    
O1    V2    S    
O11   C32   A    
C4    C9    S    
N3    H29   S    
O7    V1    S    
C16   C17   A    
C28   H20   S    
O9    C4    A    
C17   C18   A    
C23   C24   A    
C5    H1    S    
C19   C20   A    
C7    C11   S    
C28   C29   A    
O18   C33   A    
C35   H26   S    
C5    C9    S    
O19   C34   A    
N1    H23   S    
C15   C16   A    
O4    C2    A    
V4    O20   S    
N1    H22   S    
C6    C10   S    
C27   C28   A    
C35   H25   S    
O13   V3    S    
C11   H10   S    
O2    C1    A    
C14   H12   S    
C20   H16   S    
C22   H17   S    
V3    O20   S    
C13   C18   A    
C2    C30   S    
O3    C4    A    
C16   H13   S    
N2    C35   S    
C6    H4    S    
C19   C24   A    
C8    C12   S    
O6    V2    S    
C21   C32   S    
O9    V2    S    
C17   H14   S    
O2    V1    S    
C23   H18   S    
C35   H27   S    
O13   C34   A    
C10   C11   S    
C1    C24   S    
O1    C2    A    
O11   V4    S    
O17   V3    S    
O5    V1    S    
O8    C3    A    
C7    C9    S    
C3    C15   S    
C10   C12   S    
O14   V3    S    
O4    V1    S    
C14   C15   A    
O3    V1    S    
V1    O10   S    
C12   H8    S    
C25   N1    S    
C5    H2    S    
C26   C27   A    
O15   C33   A    
C31   O16   A    
H5    C7    S    
O7    V2    S    
C29   H21   S    
C27   C31   S    
C6    H3    S    
O14   C32   A    
C21   C22   A    
O18   V4    S    
N3    H28   S    
C10   C33   S    
O16   V4    S    
C7    H9    S    
