data_mof_unit_48442.cif
_audit_creation_date              2012-12-11T14:33:11-0500
_audit_creation_method            fapswitch 2.2
_symmetry_space_group_name_H-M    P1
_symmetry_Int_Tables_number       1
_space_group_crystal_system       triclinic
_cell_length_a                    7.064575
_cell_length_b                    14.453872
_cell_length_c                    17.300742
_cell_angle_alpha                 114.092913
_cell_angle_beta                  96.766151
_cell_angle_gamma                 89.838374
_cell_volume                      1599.45960229

loop_
_atom_site_label
_atom_site_type_symbol
_atom_type_description
_atom_site_fract_x
_atom_site_fract_y
_atom_site_fract_z
_atom_type_partial_charge
O1    O     O_R   0.484560 0.544530 0.414330 -0.511110
O2    O     O_R   0.197040 0.638810 0.585080 -0.538394
O3    O     O_R   0.026800 0.455470 0.585670 -0.516002
C1    C     C_R   0.375150 0.677503 0.615015 0.699866
O4    O     O_R   0.155000 0.556150 0.414940 -0.505368
O5    O     O_R   0.984450 0.372220 0.414320 -0.486137
C2    C     C_R   0.317608 0.562854 0.384983 0.768154
O6    O     O_R   0.526900 0.627780 0.585680 -0.533358
O7    O     O_3   0.339170 0.439750 0.499990 -0.355904
V1    V     V_3+5 0.064350 0.511180 0.500000 1.589244
O8    O     O_R   0.654880 0.361190 0.414920 -0.556538
C3    C     C_R   0.818344 0.323536 0.387712 0.728000
O9    O     O_R   0.696930 0.443850 0.585060 -0.547530
C4    C     C_R   0.876021 0.438972 0.617439 0.694032
V2    V     V_3+5 0.564340 0.488820 0.500000 1.502369
O10   O     O_3   0.839390 0.560250 0.500010 -0.359082
C5    C     C_R   0.036499 0.866307 0.817984 -0.131832
C6    C     C_R   0.913823 0.401706 0.689190 -0.096924
C7    C     C_R   0.947980 0.834621 0.666210 -0.021314
C8    C     C_R   0.983769 0.799632 0.732017 -0.262038
C9    C     C_R   0.033717 0.972883 0.837229 0.312905
C10   C     C_R   0.003385 0.009975 0.769425 0.038054
C11   C     C_R   0.966588 0.938962 0.682680 -0.090867
C12   C     C_R   0.010643 0.115891 0.784206 -0.007692
C13   C     C_R   0.945792 0.149312 0.717662 -0.001344
C14   C     C_R   0.888020 0.075446 0.636077 0.317154
C15   C     C_R   0.939510 0.974904 0.615026 -0.093927
C16   C     C_R   0.090439 0.189616 0.862519 -0.089010
C17   C     C_R   0.084409 0.290547 0.879901 -0.235607
C18   C     C_R   0.011178 0.325810 0.817949 0.019719
C19   C     C_R   0.950419 0.256214 0.733922 0.099277
C20   C     C_R   0.011354 0.430408 0.839324 -0.095651
C21   C     C_R   0.967964 0.468431 0.775545 -0.214725
C22   C     C_R   0.909171 0.297016 0.670150 -0.074144
H1    H     H_    0.881764 0.251389 0.603306 0.232191
H2    H     H_    0.977392 0.549428 0.793121 0.097442
H3    H     H_    0.147806 0.340547 0.943437 0.191352
H4    H     H_    0.968932 0.719004 0.715809 0.095508
H5    H     H_    0.172973 0.172587 0.910838 0.210081
H6    H     H_    0.878472 0.012739 0.224645 0.130183
C23   C     C_2   0.130278 0.040096 0.179946 0.180240
C24   C     C_2   0.991869 0.067515 0.232074 -0.197231
C25   C     C_2   0.820725 0.216964 0.320593 0.128086
C26   C     C_2   0.989121 0.171067 0.301867 0.439265
C27   C     C_R   0.414052 0.783743 0.689007 -0.049209
C28   C     C_R   0.532458 0.459323 0.828073 -0.067869
C29   C     C_R   0.561311 0.889693 0.833741 -0.069177
C30   C     C_R   0.513513 0.793614 0.766816 -0.163955
C31   C     C_R   0.372504 0.876311 0.681519 -0.077229
C32   C     C_R   0.447190 0.976429 0.744602 0.079325
C33   C     C_R   0.526141 0.981935 0.824829 -0.042576
C34   C     C_R   0.448023 0.069587 0.729717 -0.058604
C35   C     C_R   0.498115 0.169629 0.799319 -0.036671
C36   C     C_R   0.565288 0.169379 0.880339 0.281492
C37   C     C_R   0.576316 0.078309 0.893304 -0.070194
C38   C     C_R   0.413380 0.063458 0.645369 -0.125321
C39   C     C_R   0.373714 0.150331 0.631538 -0.084994
C40   C     C_R   0.427062 0.250696 0.698180 -0.000199
C41   C     C_R   0.486175 0.263889 0.783902 0.105748
C42   C     C_R   0.432794 0.337415 0.679077 -0.033547
C43   C     C_R   0.482205 0.437373 0.741433 -0.188255
C44   C     C_R   0.524886 0.370614 0.848316 -0.185242
H7    H     H_    0.538156 0.388378 0.915203 0.160874
H8    H     H_    0.482795 0.499335 0.721436 0.076683
H9    H     H_    0.635701 0.890580 0.891801 0.168739
H10   H     H_    0.552743 0.726337 0.776652 0.083121
H11   H     H_    0.289181 0.867842 0.622997 0.144395
C45   C     C_2   0.318497 0.586285 0.307871 -0.236550
C46   C     C_2   0.488162 0.608763 0.285223 0.286947
H12   H     H_    0.733338 0.720701 0.246979 0.142237
C47   C     C_2   0.637171 0.671389 0.191637 -0.439933
C48   C     C_2   0.506127 0.607607 0.199132 0.387308
O11   O     O_R   0.421600 0.630430 0.917010 -0.510236
O12   O     O_R   0.793840 0.702190 0.087630 -0.521005
O13   O     O_R   0.964010 0.886170 0.088190 -0.547094
C49   C     C_R   0.632060 0.693984 0.115890 0.774552
O14   O     O_R   0.751460 0.619510 0.917500 -0.549230
O15   O     O_R   0.921330 0.802900 0.916840 -0.551413
C50   C     C_R   0.572973 0.575365 0.893955 0.666631
O16   O     O_R   0.464290 0.713700 0.088350 -0.502153
O17   O     O_3   0.609200 0.818520 0.002630 -0.378997
V3    V     V_3+5 0.884140 0.747190 0.002530 1.463768
O18   O     O_R   0.251150 0.814630 0.917340 -0.525183
C51   C     C_R   0.072443 0.823689 0.887184 0.639739
O19   O     O_R   0.293530 0.897310 0.087470 -0.530940
C52   C     C_R   0.130710 0.934013 0.114857 0.650634
V4    V     V_3+5 0.384070 0.769710 0.002370 1.509704
O20   O     O_3   0.109180 0.698190 0.002460 -0.338017
C53   C     C_2   0.943042 0.909284 0.521557 0.814380
O21   O     O_2   0.798715 0.889033 0.470217 -0.551547
O22   O     O_R   0.109899 0.865951 0.492231 -0.663277
H13   H     H_    0.092806 0.821477 0.428607 0.313840
C54   C     C_2   0.067959 0.496793 0.930299 0.870394
O23   O     O_2   0.236278 0.517050 0.955764 -0.541116
O24   O     O_R   0.944120 0.512774 0.991203 -0.626987
H14   H     H_    0.818565 0.473040 0.966741 0.229566
O25   O     O_3   0.159544 0.219681 0.349369 -0.621125
H15   H     H_    0.261631 0.170731 0.336753 0.306397
O26   O     O_3   0.652788 0.164395 0.274513 -0.654680
H16   H     H_    0.546732 0.210322 0.291245 0.329576
O27   O     O_3   0.260819 0.113291 0.183961 -0.618258
H17   H     H_    0.336080 0.083127 0.135748 0.330878
C55   C     C_2   0.639876 0.086463 0.981447 0.854736
O28   O     O_2   0.771384 0.146014 0.026405 -0.490863
O29   O     O_R   0.546908 0.027567 0.013840 -0.678690
H18   H     H_    0.611504 0.035541 0.071901 0.299618
C56   C     C_2   0.273355 0.129352 0.544317 0.858546
O30   O     O_2   0.100714 0.129476 0.532599 -0.585568
O31   O     O_R   0.375124 0.106473 0.474663 -0.616955
H19   H     H_    0.288482 0.082886 0.418521 0.304737
O32   O     O_3   0.625674 0.257757 0.949326 -0.620823
H20   H     H_    0.743771 0.281171 0.935611 0.308204
C57   C     C_2   0.467590 0.971291 0.572042 0.888489
O33   O     O_2   0.581153 0.918072 0.588375 -0.553708
O34   O     O_R   0.407143 0.946299 0.485875 -0.626825
H21   H     H_    0.449319 0.878073 0.446021 0.338049
C58   C     C_2   0.404085 0.320722 0.589795 0.802512
O35   O     O_2   0.242654 0.319200 0.556116 -0.531699
O36   O     O_R   0.548014 0.277950 0.539093 -0.641180
H22   H     H_    0.506756 0.261347 0.476646 0.329590
O37   O     O_3   0.397258 0.535597 0.128403 -0.596734
H23   H     H_    0.464145 0.520880 0.077745 0.317446
O38   O     O_3   0.652329 0.628769 0.342681 -0.641856
H24   H     H_    0.765575 0.616897 0.312022 0.316028
C59   C     C_2   0.137036 0.569799 0.250545 0.779074
O39   O     O_2   0.023759 0.500608 0.240087 -0.542032
O40   O     O_R   0.097829 0.631539 0.206782 -0.641855
H25   H     H_    0.983509 0.603862 0.161660 0.338207
C60   C     C_2   0.877929 0.762459 0.579420 0.860895
O41   O     O_2   0.986915 0.728198 0.526210 -0.536897
O42   O     O_R   0.684490 0.750167 0.552943 -0.625216
H26   H     H_    0.651459 0.718246 0.489138 0.351015
O43   O     O_3   0.043130 0.041260 0.921440 -0.646467
H27   H     H_    0.073247 0.007847 0.960799 0.293851
O44   O     O_3   0.766168 0.102023 0.580705 -0.635410
H28   H     H_    0.775586 0.058854 0.520457 0.364246

loop_
_geom_bond_atom_site_label_1
_geom_bond_atom_site_label_2
_ccdc_geom_bond_type
C7    C60   S    
O18   V4    S    
V4    O20   S    
C13   C19   A    
O27   H17   S    
C48   O37   S    
C43   H8    S    
C23   C24   D    
C4    C6    S    
O2    C1    A    
O24   H14   S    
C1    O6    A    
C21   H2    S    
O25   H15   S    
C35   C41   A    
O44   H28   S    
C35   C36   A    
C23   C52   S    
C14   C15   A    
C44   H7    S    
O12   C49   A    
C28   C44   A    
O18   C51   A    
C16   C17   A    
C25   O26   S    
C60   O41   D    
C3    C25   S    
C58   O36   S    
O5    C3    A    
C28   C50   S    
C46   O38   S    
C40   C42   A    
V2    O10   S    
C37   C55   S    
C5    C8    A    
C38   C39   A    
C22   H1    S    
O11   V4    S    
C14   O44   S    
C2    C45   S    
O8    V2    S    
O32   H20   S    
C45   C46   D    
C32   C34   A    
C38   C57   S    
H12   C47   S    
O1    V2    S    
C11   C15   A    
C53   O22   S    
O7    V1    S    
H6    C24   S    
C20   C54   S    
C54   O24   S    
O9    C4    A    
C56   O31   S    
C24   C26   S    
O12   V3    S    
C9    O43   S    
O17   V3    S    
C1    C27   S    
O14   C50   A    
O19   V4    S    
C49   O16   A    
O38   H24   S    
C12   C13   A    
O31   H19   S    
O22   H13   S    
O4    C2    A    
C29   C33   A    
C28   C43   A    
C16   H5    S    
C13   C14   A    
O19   C52   A    
C5    C9    A    
C57   O34   S    
C42   C43   A    
C46   C48   S    
C7    C11   A    
C25   C26   D    
C17   C18   A    
C8    H4    S    
C26   O25   S    
O15   V3    S    
O13   C52   A    
C29   C30   A    
C27   C31   A    
C18   C19   A    
C56   O30   D    
C32   C33   A    
O11   C50   A    
C19   C22   A    
C42   C58   S    
C55   O29   S    
C54   O23   D    
C6    C22   A    
O37   H23   S    
O17   V4    S    
O3    C4    A    
C39   C56   S    
O6    V2    S    
O9    V2    S    
O43   H27   S    
C10   C12   A    
O40   H25   S    
O2    V1    S    
C47   C49   S    
C34   C35   A    
C57   O33   D    
C27   C30   A    
C36   C37   A    
C41   C44   A    
C31   H11   S    
O1    C2    A    
C12   C16   A    
O5    V1    S    
O36   H22   S    
O13   V3    S    
O16   V4    S    
O29   H18   S    
O26   H16   S    
C5    C51   S    
C20   C21   A    
C7    C8    A    
C40   C41   A    
C47   C48   D    
O3    V1    S    
V1    O10   S    
C58   O35   D    
C18   C20   A    
C39   C40   A    
C59   O39   D    
C34   C38   A    
O14   V3    S    
V3    O20   S    
C23   O27   S    
C36   O32   S    
C15   C53   S    
C33   C37   A    
O7    V2    S    
O42   H26   S    
C6    C21   A    
O15   C51   A    
O4    V1    S    
C31   C32   A    
C17   H3    S    
C55   O28   D    
C59   O40   S    
C10   C11   A    
C30   H10   S    
C53   O21   D    
C9    C10   A    
C45   C59   S    
C29   H9    S    
O34   H21   S    
O8    C3    A    
C60   O42   S    
