data_mof_unit_22838.cif
_audit_creation_date              2012-12-11T15:34:28-0500
_audit_creation_method            fapswitch 2.2
_symmetry_space_group_name_H-M    P1
_symmetry_Int_Tables_number       1
_space_group_crystal_system       triclinic
_cell_length_a                    15.050163
_cell_length_b                    15.063631
_cell_length_c                    34.792986
_cell_angle_alpha                 90.770192
_cell_angle_beta                  90.118385
_cell_angle_gamma                 60.020666
_cell_volume                      6831.84662937

loop_
_atom_site_label
_atom_site_type_symbol
_atom_type_description
_atom_site_fract_x
_atom_site_fract_y
_atom_site_fract_z
_atom_type_partial_charge
C1    C     C_R   0.301885 0.608652 0.555643 0.542442
C2    C     C_R   0.204458 0.726413 0.392329 -0.120385
C3    C     C_R   0.744524 0.173639 0.262687 -0.101362
C4    C     C_R   0.748464 0.169074 0.222725 -0.098768
C5    C     C_R   0.660589 0.230623 0.200882 0.041830
C6    C     C_R   0.713532 0.252419 0.346547 -0.112940
C7    C     C_R   0.700525 0.262372 0.386261 -0.133714
C8    C     C_R   0.558492 0.228616 0.381503 0.046806
C9    C     C_R   0.756103 0.612617 0.639890 0.053697
C10   C     C_R   0.570341 0.222596 0.341372 -0.115114
C11   C     C_R   0.645539 0.237350 0.323800 -0.003918
C12   C     C_R   0.619560 0.256697 0.404225 -0.005007
C13   C     C_R   0.171000 0.740365 0.354128 0.074150
C14   C     C_R   0.086540 0.706856 0.093523 0.019779
C15   C     C_R   0.098304 0.617207 0.110237 -0.125692
C16   C     C_R   0.132746 0.593364 0.147854 -0.112751
C17   C     C_R   0.156389 0.658439 0.169106 0.029206
C18   C     C_R   0.154639 0.742165 0.151218 -0.114805
C19   C     C_R   0.119782 0.766360 0.113609 -0.116931
C20   C     C_R   0.243928 0.657664 0.229914 -0.064127
C21   C     C_2   0.864865 0.114427 0.912390 0.589344
C22   C     C_2   0.874507 0.130130 0.647812 0.566616
C23   C     C_2   0.203290 0.793397 0.835810 0.571941
C24   C     C_R   0.178456 0.655327 0.333357 0.040477
C25   C     C_2   0.801678 0.494230 0.322382 0.577112
C26   C     C_2   0.865036 0.571674 0.650998 0.589770
C27   C     C_2   0.445249 0.813561 0.334529 0.574780
C28   C     C_2   0.474614 0.374168 0.198280 0.553917
C29   C     C_2   0.801861 0.249827 0.143733 0.568719
C30   C     C_2   0.482479 0.204545 0.398167 0.591062
C31   C     C_2   0.131517 0.843080 0.336704 0.589375
C32   C     C_2   0.005115 0.645698 0.293942 0.577784
C33   C     C_2   0.531355 0.848028 0.909961 0.588851
C34   C     C_R   0.572647 0.727237 0.649565 -0.142535
C35   C     C_R   0.243577 0.630621 0.409789 -0.014584
C36   C     C_R   0.735707 0.025918 0.943237 0.567527
C37   C     C_R   0.745518 0.722483 0.944983 0.564562
C38   C     C_R   0.038237 0.733857 0.948270 0.542479
C39   C     C_R   0.722935 0.038735 0.053012 0.549621
C40   C     C_R   0.732905 0.734194 0.054448 0.550715
C41   C     C_R   0.672738 0.678753 0.664266 0.009640
C42   C     C_R   0.028249 0.744439 0.057729 0.543732
C43   C     C_R   0.553494 0.702715 0.612986 -0.135677
C44   C     C_R   0.691473 0.687279 0.784102 0.344567
C45   C     C_R   0.684722 0.685496 0.706155 0.368839
C46   C     C_R   0.784011 0.613842 0.845182 -0.125598
C47   C     C_R   0.794096 0.620308 0.884648 -0.145513
C48   C     C_R   0.622884 0.770147 0.888394 0.038359
C49   C     C_R   0.615132 0.764244 0.848301 -0.115825
C50   C     C_R   0.696528 0.688280 0.826419 0.005508
C51   C     C_R   0.610910 0.588977 0.555101 0.549676
C52   C     C_R   0.245734 0.660045 0.269802 -0.090399
C53   C     C_R   0.716809 0.701228 0.906552 0.001942
C54   C     C_R   0.723406 0.069784 0.904332 0.000726
C55   C     C_R   0.649868 0.066567 0.880155 -0.139539
C56   C     C_R   0.651435 0.079444 0.840800 -0.123562
C57   C     C_R   0.726230 0.096347 0.824325 -0.001969
C58   C     C_R   0.795244 0.107578 0.848275 -0.115293
C59   C     C_R   0.793760 0.096287 0.888339 0.046023
C60   C     C_R   0.741410 0.181548 0.765495 -0.097920
C61   C     C_R   0.735608 0.193379 0.725722 -0.065954
C62   C     C_R   0.719823 0.126454 0.701975 0.057241
C63   C     C_R   0.169074 0.656082 0.291379 0.031565
C64   C     C_R   0.590850 0.299825 0.553424 0.551228
C65   C     C_R   0.712464 0.045945 0.718381 -0.095145
C66   C     C_R   0.718326 0.034014 0.758153 -0.108423
C67   C     C_R   0.730592 0.103094 0.782111 0.024594
C68   C     C_R   0.602597 0.171413 0.646933 -0.143862
C69   C     C_R   0.569334 0.214987 0.610974 -0.125396
C70   C     C_R   0.732138 0.207136 0.600520 -0.121091
C71   C     C_R   0.767347 0.161902 0.636499 0.058059
C72   C     C_R   0.699393 0.148574 0.660706 0.001859
C73   C     C_R   0.632188 0.237062 0.588126 -0.005974
C74   C     C_R   0.090429 0.646860 0.272685 0.074995
C75   C     C_R   0.091938 0.696588 0.911095 -0.008341
C76   C     C_R   0.299940 0.610258 0.446113 0.545153
C77   C     C_R   0.132581 0.751025 0.892732 -0.111915
C78   C     C_R   0.160071 0.733798 0.853704 0.054975
C79   C     C_R   0.144430 0.661307 0.832784 -0.000585
C80   C     C_R   0.112909 0.600615 0.852112 -0.143714
C81   C     C_R   0.087192 0.617777 0.890955 -0.130135
C82   C     C_R   0.214289 0.564053 0.771290 -0.086732
C83   C     C_R   0.219285 0.560666 0.731243 -0.096762
C84   C     C_R   0.157389 0.649145 0.709879 0.039389
C85   C     C_R   0.091088 0.642478 0.232401 -0.101555
C86   C     C_R   0.087805 0.740083 0.729228 -0.079712
C87   C     C_R   0.082883 0.743364 0.769263 -0.063812
C88   C     C_R   0.607646 0.589388 0.445089 0.548903
C89   C     C_R   0.147966 0.656058 0.790486 0.057969
C90   C     C_R   0.182367 0.727904 0.651291 -0.102653
C91   C     C_R   0.217231 0.718408 0.613544 -0.116948
C92   C     C_R   0.226437 0.553541 0.607565 -0.120835
C93   C     C_R   0.191554 0.563099 0.645319 -0.103396
C94   C     C_R   0.173330 0.648385 0.667987 0.037900
C95   C     C_R   0.243793 0.629127 0.591892 0.019000
C96   C     C_R   0.166482 0.649155 0.211018 0.026499
C97   C     C_R   0.689015 0.717563 0.089528 0.023165
C98   C     C_R   0.607786 0.801344 0.108756 -0.122235
C99   C     C_R   0.580368 0.790372 0.145852 -0.119911
C100  C     C_R   0.587937 0.302718 0.443415 0.557435
C101  C     C_R   0.632912 0.695344 0.164052 0.024629
C102  C     C_R   0.707664 0.609553 0.143613 -0.096719
C103  C     C_R   0.735885 0.620661 0.106619 -0.113992
C104  C     C_R   0.611067 0.608412 0.221016 -0.085789
C105  C     C_R   0.609828 0.597989 0.260770 -0.051240
C106  C     C_R   0.619997 0.666932 0.285382 0.092384
C107  C     C_R   0.210056 0.562289 0.351820 -0.101203
C108  C     C_R   0.628470 0.747851 0.270134 -0.028194
C109  C     C_R   0.628334 0.759077 0.230515 -0.079658
C110  C     C_R   0.620815 0.688850 0.205670 0.025767
C111  C     C_R   0.539167 0.724732 0.350467 0.028586
C112  C     C_R   0.633938 0.628237 0.590456 -0.005973
C113  C     C_R   0.541002 0.708147 0.389975 -0.120747
C114  C     C_R   0.706255 0.553803 0.384005 -0.132483
C115  C     C_R   0.708876 0.569338 0.344525 0.025865
C116  C     C_R   0.623005 0.653822 0.327288 -0.041783
C117  C     C_R   0.621584 0.620722 0.406627 -0.035136
C118  C     C_R   0.241681 0.550132 0.389825 -0.121608
C119  C     C_R   0.696937 0.104695 0.087661 -0.007470
C120  C     C_R   0.756192 0.149050 0.098553 -0.124943
C121  C     C_R   0.739589 0.200908 0.134093 0.067626
C122  C     C_R   0.664161 0.204498 0.159518 0.048320
C123  C     C_R   0.601660 0.165018 0.147368 -0.110050
C124  C     C_R   0.735149 0.586058 0.603502 -0.118801
C125  C     C_R   0.616995 0.116790 0.111716 -0.127114
C126  C     C_R   0.568021 0.301499 0.219796 0.066209
C127  C     C_R   0.564712 0.303078 0.260193 -0.125929
C128  C     C_R   0.651945 0.238168 0.281607 -0.004645
Cr1   Cr    Cr6+3 0.421670 0.426920 0.499620 1.056203
Cr2   Cr    Cr6+3 0.427030 0.651190 0.500980 1.039315
Cr3   Cr    Cr6+3 0.651280 0.421870 0.499380 1.043178
Cr4   Cr    Cr6+3 0.910810 0.908010 0.001130 1.070872
Cr5   Cr    Cr6+3 0.682800 0.909890 0.998370 1.071162
Cr6   Cr    Cr6+3 0.908370 0.682300 0.002180 1.024813
H1    H     H_    0.739513 0.257146 0.713526 0.127524
H2    H     H_    0.183201 0.501712 0.657362 0.114737
H3    H     H_    0.274606 0.489935 0.717068 0.106603
H4    H     H_    0.264117 0.495858 0.787343 0.115872
H5    H     H_    0.038484 0.808898 0.713405 0.140650
H6    H     H_    0.029447 0.814389 0.783789 0.123339
H7    H     H_    0.169267 0.794322 0.668184 0.134581
H8    H     H_    0.866202 0.565304 0.897490 0.143830
H9    H     H_    0.229339 0.778175 0.602214 0.138680
H10   H     H_    0.101369 0.544517 0.836467 0.124453
H11   H     H_    0.245143 0.484318 0.591438 0.132977
H12   H     H_    0.595178 0.073826 0.823044 0.133032
H13   H     H_    0.569912 0.876861 0.096228 0.132037
H14   H     H_    0.798115 0.554628 0.092280 0.141365
H15   H     H_    0.602831 0.535377 0.272401 0.113547
H16   H     H_    0.605511 0.553393 0.202272 0.148026
H17   H     H_    0.521758 0.857205 0.161115 0.118112
H18   H     H_    0.636553 0.801249 0.288951 0.122423
H19   H     H_    0.637882 0.820485 0.219225 0.109773
H20   H     H_    0.475037 0.759751 0.407368 0.183048
H21   H     H_    0.749347 0.535604 0.157235 0.156978
H22   H     H_    0.769171 0.486904 0.397012 0.181951
H23   H     H_    0.699845 0.993950 0.700454 0.131261
H24   H     H_    0.816021 0.142198 0.079389 0.172208
H25   H     H_    0.570195 0.083239 0.104081 0.135055
H26   H     H_    0.521452 0.205415 0.323580 0.158201
H27   H     H_    0.494204 0.355406 0.275207 0.147136
H28   H     H_    0.507760 0.778857 0.667389 0.147917
H29   H     H_    0.812593 0.123281 0.278852 0.144440
H30   H     H_    0.819316 0.113448 0.208740 0.128348
H31   H     H_    0.773109 0.262379 0.333400 0.159445
H32   H     H_    0.749999 0.281800 0.402555 0.157050
H33   H     H_    0.074722 0.569000 0.095217 0.136112
H34   H     H_    0.711328 0.971918 0.770284 0.128895
H35   H     H_    0.112601 0.835249 0.101258 0.145947
H36   H     H_    0.847424 0.553261 0.829149 0.146386
H37   H     H_    0.306994 0.665522 0.284040 0.135781
H38   H     H_    0.302610 0.662870 0.213779 0.128777
H39   H     H_    0.135121 0.527580 0.161141 0.135918
H40   H     H_    0.029622 0.638998 0.217444 0.144668
H41   H     H_    0.216063 0.496999 0.336011 0.145973
H42   H     H_    0.271367 0.475444 0.402606 0.162436
H43   H     H_    0.172450 0.793411 0.167249 0.125591
H44   H     H_    0.203652 0.789287 0.408124 0.182359
H45   H     H_    0.492144 0.236792 0.602087 0.141544
H46   H     H_    0.545079 0.818801 0.834090 0.177039
H47   H     H_    0.594115 0.047824 0.891230 0.173776
H48   H     H_    0.797726 0.531975 0.585281 0.176474
H49   H     H_    0.888878 0.168753 0.962320 0.339849
H50   H     H_    0.999118 0.145094 0.639631 0.349790
H51   H     H_    0.749805 0.236363 0.783323 0.119680
H52   H     H_    0.549855 0.161623 0.665131 0.121334
H53   H     H_    0.056235 0.574466 0.904362 0.137812
H54   H     H_    0.219678 0.918443 0.838330 0.356812
H55   H     H_    0.925309 0.351883 0.319356 0.351913
H56   H     H_    0.851097 0.124052 0.835638 0.151148
H57   H     H_    0.012762 0.460742 0.643947 0.338543
H58   H     H_    0.324894 0.955611 0.343870 0.360491
H59   H     H_    0.413990 0.452787 0.149585 0.342050
H60   H     H_    0.927705 0.260417 0.132401 0.343946
H61   H     H_    0.544471 0.166140 0.166557 0.123596
H62   H     H_    0.347087 0.208653 0.392190 0.351455
H63   H     H_    0.122406 0.981364 0.339498 0.345527
H64   H     H_    0.920373 0.679591 0.342496 0.348828
H65   H     H_    0.403504 0.987379 0.910061 0.348410
H66   H     H_    0.474698 0.737086 0.603455 0.141551
H67   H     H_    0.782164 0.221041 0.582346 0.175505
H68   H     H_    0.139143 0.809903 0.908565 0.191832
N1    N     N_R   0.759817 0.603634 0.763546 -0.219014
N2    N     N_R   0.755887 0.602440 0.725384 -0.175638
N3    N     N_R   0.616270 0.769282 0.726701 -0.233266
N4    N     N_R   0.619923 0.770359 0.764926 -0.229696
O1    O     O_R   0.502070 0.323090 0.541280 -0.506324
O2    O     O_R   0.831550 0.656950 0.958960 -0.522853
O3    O     O_R   0.998590 0.685540 0.963930 -0.504560
O4    O     O_R   0.338340 0.520690 0.539540 -0.502378
O5    O     O_R   0.008220 0.831200 0.045060 -0.510817
O6    O     O_R   0.813270 0.997930 0.038810 -0.491986
O7    O     O_R   0.657500 0.016560 0.039940 -0.514106
O8    O     O_R   0.685680 0.820940 0.038120 -0.493311
O9    O     O_R   0.822130 0.666070 0.043610 -0.515443
O10   O     O_R   0.989860 0.694000 0.042400 -0.503281
O11   O     O_3   0.833990 0.833400 0.000560 -0.260801
O12   O     O_R   0.520720 0.641670 0.461580 -0.498050
O13   O     O_R   0.324760 0.674070 0.543580 -0.515863
O14   O     O_R   0.522400 0.640310 0.540110 -0.499061
O15   O     O_R   0.675940 0.500630 0.542210 -0.503714
O16   O     O_R   0.641790 0.337020 0.538150 -0.498278
O17   O     O_R   0.500260 0.324550 0.456580 -0.470214
O18   O     O_R   0.336660 0.522040 0.461020 -0.501517
O19   O     O_R   0.322940 0.675540 0.458880 -0.510705
O20   O     O_2   0.949349 0.092716 0.899862 -0.494880
O21   O     O_R   0.833968 0.159816 0.948871 -0.681455
O22   O     O_2   0.918264 0.064838 0.672237 -0.517616
O23   O     O_R   0.674120 0.502090 0.457500 -0.514024
O24   O     O_R   0.926659 0.173259 0.629724 -0.693094
O25   O     O_2   0.256142 0.761392 0.806730 -0.502324
O26   O     O_R   0.185693 0.885426 0.852901 -0.670405
O27   O     O_2   0.824662 0.518088 0.292108 -0.458554
O28   O     O_R   0.864586 0.395900 0.336774 -0.722659
O29   O     O_2   0.888517 0.619646 0.673453 -0.500832
O30   O     O_R   0.941631 0.479836 0.634579 -0.691887
O31   O     O_2   0.416664 0.810207 0.301890 -0.521609
O32   O     O_R   0.387248 0.900585 0.357619 -0.675555
O33   O     O_2   0.390102 0.411250 0.213542 -0.539644
O34   O     O_R   0.640110 0.338380 0.459630 -0.509321
O35   O     O_R   0.482965 0.402270 0.160891 -0.683442
O36   O     O_2   0.773007 0.316776 0.168627 -0.515180
O37   O     O_R   0.892751 0.221113 0.123535 -0.711329
O38   O     O_2   0.500166 0.159158 0.428599 -0.480586
O39   O     O_R   0.392299 0.229982 0.378180 -0.712496
O40   O     O_2   0.078119 0.866605 0.307923 -0.503849
O41   O     O_R   0.153692 0.914295 0.353824 -0.694323
O42   O     O_2   0.954789 0.612464 0.278147 -0.479782
O43   O     O_R   0.980070 0.684578 0.331524 -0.679640
O44   O     O_2   0.513134 0.829757 0.942223 -0.492897
O45   O     O_3   0.499990 0.499990 0.499990 -0.252562
O46   O     O_R   0.463493 0.941029 0.892713 -0.714396
O47   O     O_R   0.017640 0.822070 0.960410 -0.501735
O48   O     O_R   0.822000 0.989470 0.960340 -0.459998
O49   O     O_R   0.666920 0.007430 0.955290 -0.516347
O50   O     O_R   0.694410 0.812480 0.959650 -0.462989

loop_
_geom_bond_atom_site_label_1
_geom_bond_atom_site_label_2
_ccdc_geom_bond_type
C2    C35   A    
C16   H39   S    
C104  C110  A    
N1    N2    A    
Cr1   O45   S    
C93   C94   A    
C30   O39   S    
H62   O39   S    
C54   C55   A    
Cr4   O6    S    
C113  H20   S    
C55   C56   A    
C93   H2    S    
C31   O41   S    
C77   H68   S    
Cr5   O49   S    
C97   C98   A    
C90   C91   A    
C76   O19   A    
C77   C78   A    
C76   O18   A    
C65   C66   A    
C21   O20   D    
Cr4   O5    S    
C47   H8    S    
C61   H1    S    
C60   H51   S    
C82   C89   A    
C107  H41   S    
C32   O42   D    
Cr5   O8    S    
C84   C86   A    
C21   C59   S    
C100  O34   A    
C25   C115  S    
C28   O33   D    
C32   C74   S    
Cr1   O17   S    
Cr1   O1    S    
C85   C96   A    
C123  C125  A    
C22   O22   D    
C98   H13   S    
C26   O30   S    
C15   C16   A    
C98   C99   A    
C9    C124  A    
Cr6   O10   S    
C108  C109  A    
Cr5   O50   S    
C18   C19   A    
C104  H16   S    
C66   H34   S    
Cr2   O12   S    
C2    C13   A    
C108  H18   S    
Cr6   O2    S    
C81   H53   S    
C18   H43   S    
C28   C126  S    
C16   C17   A    
C80   H10   S    
C29   C121  S    
C5    C126  A    
C9    C26   S    
C44   N1    A    
C64   C73   S    
C4    H30   S    
C31   O40   D    
C69   C73   A    
C70   C71   A    
C8    C12   A    
C109  H19   S    
C87   H6    S    
C107  C118  A    
C23   O26   S    
Cr4   O48   S    
C1    O4    A    
C38   C75   S    
C49   H46   S    
C37   C53   S    
Cr3   O23   S    
C70   H67   S    
C66   C67   A    
C20   C96   A    
C6    H31   S    
C68   H52   S    
C127  H27   S    
Cr6   O3    S    
C30   O38   D    
C120  H24   S    
C123  H61   S    
Cr2   O13   S    
C34   C41   A    
C57   C67   S    
Cr1   O18   S    
C52   H37   S    
C114  H22   S    
C104  C105  A    
Cr3   O45   S    
C103  H14   S    
C90   C94   A    
C91   H9    S    
C54   C59   A    
C55   H47   S    
C48   C53   A    
C21   O21   S    
C64   O1    A    
C35   C76   S    
C36   O49   A    
C12   C100  S    
H60   O37   S    
C39   O7    A    
C62   C72   S    
C102  C103  A    
C114  C117  A    
C101  C102  A    
C36   C54   S    
C60   C67   A    
C111  C113  A    
H49   O21   S    
C6    C11   A    
C24   C107  A    
H50   O24   S    
C78   C79   A    
C68   C69   A    
C84   C94   S    
C100  O17   A    
C58   C59   A    
Cr2   O45   S    
C4    C5    A    
C99   H17   S    
C5    C122  S    
H63   O41   S    
C92   C95   A    
Cr5   O11   S    
Cr6   O9    S    
C46   H36   S    
C13   C24   A    
C106  C116  S    
C60   C61   A    
C3    C4    A    
C33   O46   S    
C124  H48   S    
C3    C128  A    
H58   O32   S    
C83   C84   A    
C22   O24   S    
C51   C112  S    
Cr3   O34   S    
C68   C72   A    
C37   O50   A    
C126  C127  A    
C15   H33   S    
C70   C73   A    
C44   N4    A    
C17   C18   A    
C29   O37   S    
C64   O16   A    
C1    O13   A    
C17   C96   S    
C97   C103  A    
C23   C78   S    
Cr2   O14   S    
H55   O28   S    
C75   C77   A    
C121  C122  A    
C43   H66   S    
C86   H5    S    
C113  C117  A    
C119  C125  A    
C65   H23   S    
C48   C49   A    
C99   C101  A    
C7    H32   S    
C25   O28   S    
C49   C50   A    
C24   C63   S    
Cr4   O47   S    
C112  C124  A    
C37   O2    A    
C7    C12   A    
C40   C97   S    
C43   C112  A    
C127  C128  A    
C10   H26   S    
C22   C71   S    
C83   H3    S    
C120  C121  A    
C27   O31   D    
C44   C50   S    
C56   C57   A    
N3    N4    A    
C46   C47   A    
C45   N3    A    
C62   C65   A    
C20   H38   S    
C92   H11   S    
C86   C87   A    
H59   O35   S    
C14   C19   A    
C13   C31   S    
C8    C10   A    
C75   C81   A    
C58   H56   S    
C19   H35   S    
C80   C81   A    
C34   H28   S    
C52   C63   A    
C27   C111  S    
C61   C62   A    
C119  C120  A    
Cr2   O19   S    
C114  C115  A    
C6    C7    A    
C63   C74   A    
C3    H29   S    
C51   O14   A    
Cr6   O11   S    
C105  H15   S    
C105  C106  A    
C46   C50   A    
C9    C41   A    
Cr1   O4    S    
C14   C42   S    
C111  C116  A    
Cr5   O7    S    
C87   C89   A    
C11   C128  S    
C101  C110  S    
C8    C30   S    
C71   C72   A    
C20   C52   A    
C85   H40   S    
H54   O26   S    
C109  C110  A    
C69   H45   S    
C1    C95   S    
H64   O43   S    
C57   C58   A    
C106  C108  A    
C51   O15   A    
C45   N2    A    
C39   C119  S    
C47   C53   A    
C32   O43   S    
C40   O9    A    
C92   C93   A    
C88   O12   A    
C39   O6    A    
C88   O23   A    
Cr3   O16   S    
Cr3   O15   S    
C38   O3    A    
C56   H12   S    
C33   O44   D    
C36   O48   A    
C79   C89   S    
C90   H7    S    
C42   O10   A    
C10   C11   A    
C25   O27   D    
C79   C80   A    
H65   O46   S    
C74   C85   A    
C38   O47   A    
C27   O32   S    
C91   C95   A    
C82   H4    S    
C82   C83   A    
C28   O35   S    
C29   O36   D    
C40   O8    A    
C122  C123  A    
C33   C48   S    
C41   C45   S    
C14   C15   A    
C35   C118  A    
C2    H44   S    
C115  C116  A    
C88   C117  S    
C34   C43   A    
C102  H21   S    
C118  H42   S    
C26   O29   D    
C23   O25   D    
C42   O5    A    
Cr4   O11   S    
H57   O30   S    
C125  H25   S    
