data_mof_unit_7430.cif
_audit_creation_date              2012-12-10T17:33:15-0500
_audit_creation_method            fapswitch 2.2
_symmetry_space_group_name_H-M    P1
_symmetry_Int_Tables_number       1
_space_group_crystal_system       triclinic
_cell_length_a                    11.988435
_cell_length_b                    12.884907
_cell_length_c                    13.601872
_cell_angle_alpha                 90.656608
_cell_angle_beta                  78.824675
_cell_angle_gamma                 93.182144
_cell_volume                      2058.06150315

loop_
_atom_site_label
_atom_site_type_symbol
_atom_type_description
_atom_site_fract_x
_atom_site_fract_y
_atom_site_fract_z
_atom_type_partial_charge
C1    C     C_R   0.522152 0.700506 0.498306 0.909439
C2    C     C_R   0.477739 0.299541 0.502390 0.914836
C3    C     C_R   0.448431 0.974287 0.494330 -0.001214
C4    C     C_R   0.550310 0.025690 0.512281 0.016777
C5    C     C_R   0.968421 0.401220 0.408683 -0.425191
C6    C     C_R   0.031477 0.598363 0.591798 -0.406528
C7    C     C_R   0.850107 0.413098 0.413857 0.660203
C8    C     C_R   0.149721 0.587694 0.585008 0.645126
C9    C     C_R   0.851725 0.541973 0.540427 -0.144862
C10   C     C_R   0.147960 0.457173 0.460495 -0.137419
C11   C     C_R   0.970412 0.535434 0.533648 0.037126
C12   C     C_R   0.029162 0.463812 0.467300 0.037697
C13   C     C_R   0.479466 0.501227 0.687137 0.903411
C14   C     C_R   0.520346 0.498008 0.312891 0.904743
C15   C     C_1   0.535458 0.489267 0.208508 -0.222413
C16   C     C_1   0.461835 0.496135 0.791831 -0.222504
C17   C     C_2   0.545005 0.472534 0.016428 0.087778
C18   C     C_2   0.445931 0.481693 0.984629 0.091320
C19   C     C_1   0.449775 0.489811 0.880223 -0.050472
C20   C     C_1   0.544312 0.480739 0.120471 -0.046090
C21   C     C_R   0.464305 0.188373 0.503718 -0.147969
C22   C     C_R   0.535044 0.811747 0.499752 -0.130379
C23   C     C_R   0.644425 0.969947 0.525217 0.502542
C24   C     C_R   0.354652 0.030246 0.481399 0.501861
C25   C     C_R   0.636388 0.861664 0.515662 -0.338204
C26   C     C_R   0.362766 0.138155 0.488959 -0.314113
C27   C     C_R   0.442315 0.867581 0.488551 -0.222733
C28   C     C_R   0.556443 0.132667 0.516969 -0.217082
H1    H     H_    0.633645 0.173247 0.530583 0.222550
H2    H     H_    0.364982 0.827479 0.474604 0.222209
H3    H     H_    0.290893 0.182642 0.481523 0.167825
H4    H     H_    0.707896 0.816012 0.521447 0.155397
H5    H     H_    0.194299 0.402597 0.409147 0.148577
H6    H     H_    0.805302 0.596299 0.592003 0.150370
H7    H     H_    0.013725 0.344107 0.360166 0.152228
H8    H     H_    0.987917 0.655402 0.641896 0.151517
N1    N     N_R   0.206090 0.519450 0.517820 -0.133112
N2    N     N_R   0.793910 0.480550 0.482180 -0.130933
O1    O     O_R   0.421240 0.658850 0.504760 -0.580553
O2    O     O_R   0.578760 0.341150 0.495240 -0.581816
O3    O     O_R   0.609960 0.646370 0.493320 -0.636132
O4    O     O_R   0.390040 0.353630 0.506680 -0.635899
O5    O     O_R   0.392060 0.507120 0.646890 -0.597654
O6    O     O_R   0.607940 0.492880 0.353110 -0.585419
O7    O     O_R   0.580780 0.494630 0.635450 -0.620363
O8    O     O_R   0.419220 0.505370 0.364550 -0.620930
Zn1   Zn    Zn3+2 0.373990 0.508340 0.507630 0.970123
Zn2   Zn    Zn3+2 0.626010 0.491660 0.492370 0.972627
C29   C     C_3   0.331460 0.491160 0.054262 -0.411256
C30   C     C_3   0.312471 0.604305 0.086274 -0.332118
C31   C     C_3   0.196130 0.614189 0.154060 -0.882780
H9    H     H_    0.127333 0.589218 0.113410 0.267816
H10   H     H_    0.188662 0.565750 0.222345 0.270451
H11   H     H_    0.185427 0.696520 0.177218 0.248802
H12   H     H_    0.379437 0.633540 0.127381 0.228827
H13   H     H_    0.317947 0.653619 0.018819 0.214785
H14   H     H_    0.262393 0.462115 0.015240 0.198252
H15   H     H_    0.325122 0.441139 0.121406 0.202480
C32   C     C_3   0.659025 0.461419 0.946633 -0.404161
C33   C     C_3   0.717397 0.568105 0.915503 -0.317200
C34   C     C_3   0.828595 0.557360 0.840459 -0.915783
H16   H     H_    0.888876 0.513347 0.874122 0.262748
H17   H     H_    0.812150 0.516404 0.771969 0.272811
H18   H     H_    0.868189 0.635756 0.818785 0.247038
H19   H     H_    0.660263 0.614837 0.880584 0.223766
H20   H     H_    0.735838 0.610355 0.982792 0.221524
H21   H     H_    0.714797 0.417034 0.985202 0.199348
H22   H     H_    0.648165 0.415319 0.879216 0.207190
O9    O     O_3   0.743699 0.024677 0.539929 -0.658075
C35   C     C_3   0.801766 0.972393 0.604110 0.060981
H23   H     H_    0.858158 0.916079 0.559484 0.149330
H24   H     H_    0.741830 0.930908 0.666102 0.129823
C36   C     C_3   0.874942 0.051988 0.651281 -0.319340
H25   H     H_    0.927009 0.102349 0.591994 0.232661
H26   H     H_    0.818631 0.102334 0.703670 0.217211
C37   C     C_3   0.953895 0.998942 0.708248 -0.970657
H27   H     H_    0.903588 0.948503 0.768470 0.259677
H28   H     H_    0.004419 0.058769 0.742833 0.270457
H29   H     H_    0.013621 0.951056 0.656340 0.279460
O10   O     O_3   0.253481 0.977947 0.469631 -0.657315
C38   C     C_3   0.217236 0.010632 0.382216 0.056655
H30   H     H_    0.209229 0.940965 0.334649 0.160347
H31   H     H_    0.277817 0.067279 0.334703 0.122627
C39   C     C_3   0.100164 0.056009 0.411761 -0.314162
H32   H     H_    0.038454 0.995283 0.450737 0.236337
H33   H     H_    0.104809 0.122218 0.464051 0.213772
C40   C     C_3   0.057445 0.093946 0.320575 -0.974939
H34   H     H_    0.116166 0.157023 0.282026 0.251961
H35   H     H_    0.971811 0.124904 0.345044 0.281605
H36   H     H_    0.050900 0.028880 0.267358 0.266788
O11   O     O_3   0.211778 0.651233 0.640068 -0.618914
C41   C     C_3   0.169557 0.640384 0.744508 0.067937
H37   H     H_    0.240586 0.616823 0.779571 0.177381
H38   H     H_    0.099275 0.579311 0.765281 0.114610
C42   C     C_3   0.130988 0.745108 0.788901 -0.342781
H39   H     H_    0.202527 0.804699 0.770431 0.241503
H40   H     H_    0.059187 0.770059 0.755701 0.214729
C43   C     C_3   0.093001 0.738753 0.902570 -0.979472
H41   H     H_    0.021359 0.679771 0.923170 0.268042
H42   H     H_    0.064191 0.815423 0.932224 0.269911
H43   H     H_    0.164835 0.717705 0.937710 0.268328
O12   O     O_3   0.786342 0.354969 0.355298 -0.618510
C44   C     C_3   0.842813 0.343584 0.254221 0.064653
H44   H     H_    0.784072 0.295929 0.215750 0.170334
H45   H     H_    0.919485 0.297707 0.247619 0.128631
C45   C     C_3   0.869240 0.448000 0.198169 -0.363384
H46   H     H_    0.788471 0.485721 0.196973 0.241517
H47   H     H_    0.923383 0.501242 0.236258 0.213133
C46   C     C_3   0.931854 0.432246 0.090638 -0.987416
H48   H     H_    0.016402 0.400859 0.090253 0.266556
H49   H     H_    0.944824 0.507897 0.050624 0.266360
H50   H     H_    0.881767 0.377421 0.050327 0.262808

loop_
_geom_bond_atom_site_label_1
_geom_bond_atom_site_label_2
_ccdc_geom_bond_type
C32   C33   S    
C40   H34   S    
C36   H25   S    
C23   O9    S    
C42   H39   S    
C39   C40   S    
C21   C26   A    
C38   H30   S    
C42   C43   S    
C14   O8    A    
C10   N1    A    
O1    Zn1   S    
C28   H1    S    
C24   C26   A    
C46   H49   S    
C45   H46   S    
C17   C20   S    
C29   H14   S    
C18   C19   S    
C34   H17   S    
C9    N2    A    
C32   H21   S    
C24   O10   S    
C7    O12   S    
C37   H29   S    
C35   H23   S    
N1    Zn1   S    
N2    Zn2   S    
C34   H16   S    
O11   C41   S    
C25   H4    S    
C33   H20   S    
C1    C22   S    
C27   H2    S    
C36   H26   S    
C3    C24   A    
O12   C44   S    
C35   C36   S    
C4    C28   A    
C30   C31   S    
C15   C20   T    
C31   H9    S    
C39   H32   S    
C5    C12   A    
C46   H50   S    
C6    C11   A    
C5    C7    A    
C4    C23   A    
C6    C8    A    
C22   C25   A    
C41   C42   S    
C30   H13   S    
C29   H15   S    
C33   C34   S    
C31   H10   S    
C34   H18   S    
C32   H22   S    
C2    C21   S    
C41   H38   S    
C17   C18   D    
C44   H45   S    
C8    O11   S    
C37   H27   S    
C9    C11   A    
C10   C12   A    
C17   C32   S    
C1    O3    A    
C21   C28   A    
C33   H19   S    
C29   C30   S    
C43   H42   S    
C22   C27   A    
C40   H35   S    
O3    Zn2   S    
C9    H6    S    
C36   C37   S    
C40   H36   S    
C8    N1    A    
C3    C4    A    
C13   O5    A    
C38   C39   S    
C14   O6    A    
C10   H5    S    
O7    Zn2   S    
O2    Zn2   S    
O8    Zn1   S    
C37   H28   S    
O10   C38   S    
C38   H31   S    
C11   C12   A    
C42   H40   S    
C43   H43   S    
C30   H12   S    
C31   H11   S    
C3    C27   A    
C46   H48   S    
C13   O7    A    
C45   H47   S    
C2    O4    A    
C16   C19   T    
C5    H7    S    
C41   H37   S    
C7    N2    A    
C6    H8    S    
C44   C45   S    
O4    Zn1   S    
C23   C25   A    
O9    C35   S    
C1    O1    A    
C2    O2    A    
C26   H3    S    
C43   H41   S    
C13   C16   S    
C44   H44   S    
C14   C15   S    
C39   H33   S    
C35   H24   S    
O5    Zn1   S    
O6    Zn2   S    
C18   C29   S    
C45   C46   S    
