data_mof_unit_66513.cif
_audit_creation_date              2012-10-26T17:52:56-0400
_audit_creation_method            fapswitch 2.2
_symmetry_space_group_name_H-M    P1
_symmetry_Int_Tables_number       1
_space_group_crystal_system       triclinic
_cell_length_a                    43.939383
_cell_length_b                    30.159884
_cell_length_c                    31.958992
_cell_angle_alpha                 90.000021
_cell_angle_beta                  136.493777
_cell_angle_gamma                 89.999947
_cell_volume                      29156.7154628

loop_
_atom_site_label
_atom_site_type_symbol
_atom_type_description
_atom_site_fract_x
_atom_site_fract_y
_atom_site_fract_z
_atom_type_partial_charge
C1    C     C_R   0.585691 0.999945 0.085838 0.550992
C2    C     C_3   0.537201 0.018963 0.801010 -0.098354
C3    C     C_R   0.499971 0.999958 0.580123 0.549555
C4    C     C_R   0.000029 0.499958 0.419877 0.549685
C5    C     C_R   0.999971 0.499958 0.580123 0.549685
C6    C     C_R   0.500000 0.085415 0.500000 0.546660
C7    C     C_R   1.000000 0.585411 0.500000 0.546778
C8    C     C_R   1.000000 0.085763 0.500000 0.552963
C9    C     C_R   0.500000 0.585769 0.500000 0.554327
C10   C     C_R   0.914370 0.998319 0.414522 0.544745
C11   C     C_R   0.085630 0.998319 0.585478 0.544746
C12   C     C_R   0.414363 0.498358 0.414493 0.545457
C13   C     C_3   0.963745 0.520730 0.199931 -0.098790
C14   C     C_R   0.585637 0.498358 0.585507 0.545456
C15   C     C_R   1.000000 0.914093 0.500000 0.537680
C16   C     C_R   0.500000 0.414097 0.500000 0.537952
C17   C     C_R   0.971222 0.157049 0.497877 -0.133679
C18   C     C_R   0.028778 0.157049 0.502123 -0.133680
C19   C     C_R   0.471671 0.657075 0.498753 -0.132174
C20   C     C_R   0.528329 0.657075 0.501248 -0.132175
C21   C     C_R   0.000000 0.134024 0.500000 -0.003711
C22   C     C_R   0.500000 0.634042 0.500000 -0.004877
C23   C     C_R   0.029530 0.203360 0.503202 0.015143
C24   C     C_3   0.036473 0.520340 0.800286 -0.098775
C25   C     C_R   0.970470 0.203360 0.496798 0.015142
C26   C     C_R   0.529088 0.703386 0.502323 0.015367
C27   C     C_R   0.470913 0.703386 0.497677 0.015365
C28   C     C_3   0.537871 0.018233 0.273784 -0.099366
C29   C     C_3   0.464778 0.022940 0.728857 -0.099332
C30   C     C_3   0.036274 0.521237 0.272191 -0.099114
C31   C     C_3   0.963954 0.521622 0.728035 -0.099112
C32   C     C_R   0.000000 0.226637 0.500000 0.062487
C33   C     C_R   0.500000 0.726663 0.500000 0.061957
C34   C     C_R   0.059313 0.226787 0.507574 -0.128299
C35   C     C_3   0.503282 0.041874 0.267246 -0.099377
C36   C     C_R   0.940687 0.226787 0.492427 -0.128300
C37   C     C_R   0.558447 0.726813 0.505833 -0.125799
C38   C     C_R   0.441553 0.726813 0.494168 -0.125801
C39   C     C_R   0.559144 0.773096 0.507236 -0.127511
C40   C     C_R   0.440856 0.773096 0.492765 -0.127505
C41   C     C_R   0.059989 0.273069 0.508958 -0.128377
C42   C     C_R   0.940011 0.273070 0.491042 -0.128377
C43   C     C_R   0.530036 0.796526 0.504234 0.014137
C44   C     C_R   0.469964 0.796526 0.495767 0.014132
C45   C     C_R   0.030451 0.296500 0.505090 0.014135
C46   C     C_3   0.502108 0.041926 0.738124 -0.099226
C47   C     C_R   0.969549 0.296500 0.494910 0.014135
C48   C     C_R   0.500000 0.773251 0.500000 0.061652
C49   C     C_R   0.000000 0.273225 0.500000 0.061752
C50   C     C_R   0.530308 0.842840 0.505224 -0.131438
C51   C     C_R   0.469692 0.842840 0.494777 -0.131439
C52   C     C_R   0.030704 0.342814 0.506055 -0.131824
C53   C     C_R   0.969296 0.342814 0.493945 -0.131824
C54   C     C_R   0.500000 0.865913 0.500000 -0.002478
C55   C     C_R   1.000000 0.365895 0.500000 -0.002811
C56   C     C_R   0.982956 0.842378 0.448552 -0.150571
C57   C     C_3   0.999890 0.541990 0.263866 -0.099243
C58   C     C_R   0.017041 0.842378 0.551446 -0.150576
C59   C     C_R   0.482470 0.342397 0.448287 -0.150387
C60   C     C_R   0.517530 0.342397 0.551713 -0.150386
C61   C     C_R   0.999999 0.865591 0.499999 -0.019565
C62   C     C_R   0.500000 0.365603 0.500000 -0.019526
C63   C     C_R   0.017926 0.796069 0.552223 0.004225
C64   C     C_R   0.982071 0.796069 0.447775 0.004226
C65   C     C_R   0.518429 0.296088 0.552486 0.004397
C66   C     C_R   0.481570 0.296088 0.447514 0.004397
C67   C     C_1   0.500015 0.999962 0.125161 -0.026244
C68   C     C_3   0.000555 0.541984 0.736578 -0.099236
C69   C     C_1   0.499985 0.999962 0.874839 -0.026243
C70   C     C_1   0.000014 0.499963 0.125161 -0.026486
C71   C     C_1   0.999986 0.499963 0.874839 -0.026487
C72   C     C_R   0.999999 0.772798 0.499999 0.057341
C73   C     C_R   0.500000 0.272816 0.500000 0.057263
C74   C     C_R   0.036652 0.772645 0.604397 -0.140297
C75   C     C_R   0.963345 0.772645 0.395601 -0.140295
C76   C     C_R   0.537658 0.272663 0.604905 -0.140268
C77   C     C_R   0.462342 0.272663 0.395095 -0.140275
C78   C     C_R   0.538708 0.226379 0.605439 -0.134421
C79   C     C_1   0.500066 0.999966 0.162966 -0.057933
C80   C     C_R   0.461292 0.226379 0.394561 -0.134432
C81   C     C_R   0.037698 0.726360 0.604947 -0.134362
C82   C     C_R   0.962300 0.726360 0.395051 -0.134362
C83   C     C_R   0.519878 0.202930 0.553231 0.013361
C84   C     C_R   0.480122 0.202930 0.446769 0.013349
C85   C     C_R   0.019368 0.702912 0.552990 0.013439
C86   C     C_R   0.980630 0.702912 0.447009 0.013437
C87   C     C_R   0.500000 0.226217 0.500000 0.059701
C88   C     C_R   0.999999 0.726199 0.499999 0.059719
C89   C     C_R   0.520428 0.156595 0.553145 -0.133634
C90   C     C_1   0.499934 0.999966 0.837034 -0.057929
C91   C     C_R   0.479571 0.156595 0.446855 -0.133657
C92   C     C_R   0.019921 0.656578 0.552918 -0.133626
C93   C     C_R   0.980078 0.656578 0.447081 -0.133627
C94   C     C_R   0.500000 0.133617 0.500000 0.001762
C95   C     C_R   1.000000 0.633605 0.500000 0.002019
C96   C     C_1   0.500164 0.999986 0.375055 -0.027200
C97   C     C_1   0.499836 0.999986 0.624945 -0.027199
C98   C     C_1   0.000164 0.499987 0.375055 -0.027383
C99   C     C_1   0.999836 0.499987 0.624945 -0.027383
C100  C     C_3   0.497057 0.958098 0.233132 -0.100241
C101  C     C_1   0.000066 0.499967 0.162965 -0.058154
C102  C     C_3   0.497554 0.958046 0.761499 -0.100463
C103  C     C_3   0.000448 0.457985 0.236511 -0.100354
C104  C     C_3   0.999106 0.457991 0.763045 -0.100368
C105  C     C_3   0.500128 0.999976 0.208953 0.050470
C106  C     C_3   0.499873 0.999977 0.791048 0.050477
C107  C     C_3   0.000127 0.499978 0.208952 0.050525
C108  C     C_3   0.999872 0.499978 0.791047 0.050526
C109  C     C_3   0.462469 0.981739 0.226593 -0.098711
C110  C     C_3   0.534882 0.977032 0.770767 -0.098742
C111  C     C_3   0.964066 0.478738 0.228185 -0.098895
C112  C     C_R   0.414309 0.999945 0.914162 0.551006
C113  C     C_1   0.999934 0.499967 0.837035 -0.058153
C114  C     C_3   0.035706 0.478353 0.771588 -0.098894
C115  C     C_3   0.702292 0.880357 0.246861 -0.258872
C116  C     C_3   0.686625 0.852299 0.194034 -0.295013
C117  C     C_3   0.661708 0.811195 0.183945 -0.451843
C118  C     C_3   0.297707 0.880345 0.753169 -0.258868
C119  C     C_3   0.313374 0.852299 0.806003 -0.295015
C120  C     C_3   0.338288 0.811189 0.816102 -0.451858
C121  C     C_3   0.202241 0.381332 0.249170 -0.258725
C122  C     C_3   0.185951 0.352265 0.196664 -0.295395
C123  C     C_3   0.161006 0.311761 0.187914 -0.451623
C124  C     C_1   0.500215 0.999996 0.337353 -0.058521
C125  C     C_3   0.797759 0.381331 0.750834 -0.258725
C126  C     C_3   0.814049 0.352265 0.803341 -0.295395
C127  C     C_3   0.838995 0.311760 0.812093 -0.451624
C128  C     C_2   0.796541 0.115377 0.257813 0.221384
C129  C     C_2   0.203459 0.115387 0.742162 0.221382
C130  C     C_2   0.296343 0.609876 0.245190 0.219394
C131  C     C_2   0.703657 0.609878 0.754807 0.219392
C132  C     C_3   0.868965 0.917974 0.400394 -0.256894
C133  C     C_3   0.869556 0.881053 0.367854 -0.307357
C134  C     C_3   0.882566 0.836620 0.400089 -0.448337
C135  C     C_1   0.499785 0.999996 0.662647 -0.058522
C136  C     C_3   0.131034 0.917970 0.599617 -0.256893
C137  C     C_3   0.130440 0.881055 0.632158 -0.307356
C138  C     C_3   0.117436 0.836618 0.599933 -0.448340
C139  C     C_3   0.368967 0.417923 0.400403 -0.256584
C140  C     C_3   0.368976 0.380344 0.367944 -0.308086
C141  C     C_3   0.382457 0.336327 0.401204 -0.448102
C142  C     C_3   0.631033 0.417922 0.599598 -0.256584
C143  C     C_3   0.631023 0.380344 0.632058 -0.308083
C144  C     C_3   0.617543 0.336327 0.598799 -0.448107
C145  C     C_1   0.000215 0.499998 0.337353 -0.058704
C146  C     C_1   0.999785 0.499998 0.662647 -0.058704
C147  C     C_R   0.843474 0.033080 0.329452 -0.149301
C148  C     C_R   0.156526 0.033084 0.670541 -0.149297
C149  C     C_R   0.343461 0.532495 0.328246 -0.148285
C150  C     C_R   0.656538 0.532495 0.671752 -0.148285
C151  C     C_R   0.866246 0.996135 0.366948 0.013560
C152  C     C_R   0.085683 0.499942 0.085877 0.550564
C153  C     C_R   0.133754 0.996136 0.633052 0.013563
C154  C     C_R   0.366233 0.495966 0.366646 0.013387
C155  C     C_R   0.633767 0.495966 0.633353 0.013387
C156  C     C_R   0.843454 0.958591 0.359559 -0.013373
C157  C     C_R   0.156546 0.958589 0.640447 -0.013374
C158  C     C_R   0.343444 0.458353 0.359118 -0.013446
C159  C     C_R   0.656556 0.458352 0.640883 -0.013446
C160  C     C_R   0.796486 0.959128 0.312486 0.016515
C161  C     C_R   0.203514 0.959125 0.687522 0.016516
C162  C     C_R   0.296465 0.458836 0.311905 0.016591
C163  C     C_R   0.914317 0.499942 0.914123 0.550566
C164  C     C_R   0.703535 0.458836 0.688096 0.016591
C165  C     C_R   0.773618 0.997359 0.275366 0.030290
C166  C     C_R   0.226382 0.997360 0.724635 0.030294
C167  C     C_R   0.273587 0.496509 0.273509 0.030100
C168  C     C_R   0.726413 0.496509 0.726491 0.030101
C169  C     C_R   0.499969 0.999967 0.080158 0.554871
C170  C     C_R   0.500031 0.999967 0.919842 0.554870
C171  C     C_R   0.999969 0.499967 0.080158 0.554460
C172  C     C_R   0.000031 0.499967 0.919842 0.554459
C173  C     C_R   0.797253 0.035140 0.284593 -0.022927
C174  C     C_3   0.500211 0.999995 0.291424 0.050468
C175  C     C_R   0.202747 0.035143 0.715399 -0.022923
C176  C     C_R   0.297205 0.533558 0.281089 -0.022889
C177  C     C_R   0.702794 0.533559 0.718910 -0.022888
C178  C     C_R   0.771806 0.922274 0.301641 -0.129811
C179  C     C_R   0.228194 0.922267 0.698376 -0.129805
C180  C     C_R   0.271778 0.422515 0.302256 -0.129701
C181  C     C_R   0.728221 0.422514 0.697746 -0.129700
C182  C     C_R   0.725639 0.922072 0.255273 -0.005113
C183  C     C_R   0.274360 0.922065 0.744745 -0.005102
C184  C     C_R   0.225605 0.422461 0.256229 -0.005013
C185  C     C_3   0.499789 0.999995 0.708576 0.050459
C186  C     C_R   0.774395 0.422460 0.743773 -0.005012
C187  C     C_R   0.702802 0.960099 0.218204 0.025355
C188  C     C_R   0.297197 0.960095 0.781806 0.025367
C189  C     C_R   0.202767 0.460139 0.218362 0.025441
C190  C     C_R   0.797233 0.460139 0.781639 0.025442
C191  C     C_R   0.726942 0.997743 0.228659 0.043085
C192  C     C_R   0.273058 0.997743 0.771342 0.043091
C193  C     C_R   0.226912 0.497166 0.227400 0.042939
C194  C     C_R   0.773088 0.497166 0.772600 0.042939
C195  C     C_R   0.704229 0.035893 0.192056 -0.016239
C196  C     C_3   0.000211 0.499997 0.291424 0.050526
C197  C     C_R   0.295770 0.035896 0.807937 -0.016227
C198  C     C_R   0.204205 0.535035 0.190118 -0.016236
C199  C     C_R   0.795795 0.535035 0.809880 -0.016235
C200  C     C_R   0.727667 0.073082 0.201943 -0.097280
C201  C     C_R   0.272333 0.073089 0.798043 -0.097271
C202  C     C_R   0.227625 0.571293 0.197880 -0.096936
C203  C     C_R   0.772375 0.571294 0.802117 -0.096935
C204  C     C_R   0.773948 0.073608 0.248067 0.016021
C205  C     C_R   0.226052 0.073614 0.751918 0.016027
C206  C     C_R   0.273867 0.570998 0.242164 0.015747
C207  C     C_3   0.999789 0.499997 0.708576 0.050524
C208  C     C_R   0.726133 0.571000 0.757834 0.015749
C209  C     C_R   0.656414 0.961662 0.170937 -0.139929
C210  C     C_R   0.343585 0.961658 0.829072 -0.139907
C211  C     C_R   0.156374 0.461934 0.171606 -0.139630
C212  C     C_R   0.843626 0.461934 0.828395 -0.139628
C213  C     C_R   0.634130 0.999572 0.134962 -0.010353
C214  C     C_R   0.365869 0.999572 0.865038 -0.010335
C215  C     C_R   0.134111 0.499529 0.134881 -0.010037
C216  C     C_R   0.865889 0.499529 0.865119 -0.010035
C217  C     C_3   0.534800 0.976354 0.298660 -0.100319
C218  C     C_3   0.465539 0.023617 0.201719 -0.098555
C219  C     C_3   0.462460 0.981009 0.698611 -0.100436
C220  C     C_3   0.036595 0.479244 0.300447 -0.100337
C221  C     C_3   0.963187 0.479634 0.699335 -0.100345
C222  C     C_R   0.658070 0.036669 0.145856 -0.134758
C223  C     C_R   0.341929 0.036672 0.854137 -0.134739
C224  C     C_R   0.158052 0.536118 0.144578 -0.134657
C225  C     C_R   0.841948 0.536119 0.855421 -0.134655
C226  C     C_R   0.500000 0.914247 0.500000 0.548805
C227  C     C_R   1.000000 0.414241 0.500000 0.549027
C228  C     C_R   0.500029 0.999958 0.419877 0.549556
Cu1   Cu    Cu3+1 0.500000 0.955510 0.000000 0.920452
Cu2   Cu    Cu3+1 1.000000 0.000000 0.458560 0.921838
Cu3   Cu    Cu3+1 0.500000 0.500000 0.541440 0.919185
Cu4   Cu    Cu3+1 0.500000 0.500000 0.458560 0.919185
Cu5   Cu    Cu3+1 0.000000 0.455510 0.000000 0.920467
Cu6   Cu    Cu3+1 0.500000 0.044420 0.000000 0.945236
Cu7   Cu    Cu3+1 0.000000 0.544420 0.000000 0.947242
Cu8   Cu    Cu3+1 0.544430 0.999860 0.544440 0.942118
Cu9   Cu    Cu3+1 0.455570 0.999860 0.455560 0.942073
Cu10  Cu    Cu3+1 0.044430 0.499860 0.544440 0.941045
Cu11  Cu    Cu3+1 0.955570 0.499860 0.455560 0.941046
Cu12  Cu    Cu3+1 1.000000 0.000000 0.541440 0.921834
H1    H     H_    0.568893 0.033246 0.292733 0.108961
H2    H     H_    0.359264 0.065999 0.882219 0.129067
H3    H     H_    0.850104 0.291241 0.850033 0.145841
H4    H     H_    0.836259 0.371424 0.846432 0.168826
H5    H     H_    0.785225 0.340940 0.793366 0.163567
H6    H     H_    0.774886 0.361206 0.708463 0.134627
H7    H     H_    0.825294 0.390627 0.757058 0.138034
H8    H     H_    0.830076 0.122616 0.300856 0.102543
H9    H     H_    0.169923 0.122623 0.699118 0.102541
H10   H     H_    0.329442 0.607396 0.265578 0.105902
H11   H     H_    0.670558 0.607399 0.734419 0.105901
H12   H     H_    0.914747 0.839386 0.448656 0.172009
H13   H     H_    0.140705 0.565140 0.115786 0.128579
H14   H     H_    0.856940 0.825680 0.397185 0.145741
H15   H     H_    0.885466 0.811209 0.377995 0.156689
H16   H     H_    0.836662 0.877291 0.320020 0.166893
H17   H     H_    0.893637 0.889918 0.366966 0.166515
H18   H     H_    0.903688 0.925667 0.443079 0.171645
H19   H     H_    0.854755 0.906249 0.416290 0.133434
H20   H     H_    0.085258 0.839379 0.551363 0.172011
H21   H     H_    0.143067 0.825676 0.602848 0.145738
H22   H     H_    0.114533 0.811211 0.622027 0.156687
H23   H     H_    0.163331 0.877297 0.679995 0.166893
H24   H     H_    0.859294 0.565141 0.884212 0.128578
H25   H     H_    0.106354 0.889923 0.633036 0.166517
H26   H     H_    0.096312 0.925664 0.556928 0.171639
H27   H     H_    0.145247 0.906240 0.583726 0.133437
H28   H     H_    0.414940 0.339483 0.449467 0.171943
H29   H     H_    0.357291 0.325788 0.399381 0.145862
H30   H     H_    0.384950 0.310432 0.379110 0.156677
H31   H     H_    0.335811 0.376219 0.320478 0.166491
H32   H     H_    0.392556 0.388747 0.365988 0.165645
H33   H     H_    0.403847 0.425555 0.442648 0.171803
H34   H     H_    0.355091 0.406867 0.416995 0.133780
H35   H     H_    0.709563 0.102270 0.173899 0.159352
H36   H     H_    0.585060 0.339482 0.550535 0.171940
H37   H     H_    0.642710 0.325787 0.600624 0.145857
H38   H     H_    0.615050 0.310432 0.620893 0.156673
H39   H     H_    0.664188 0.376219 0.679524 0.166490
H40   H     H_    0.607443 0.388748 0.634013 0.165645
H41   H     H_    0.596153 0.425554 0.557353 0.171801
H42   H     H_    0.644909 0.406866 0.583007 0.133780
H43   H     H_    0.290437 0.102278 0.826080 0.159340
H44   H     H_    0.209503 0.599723 0.168057 0.159596
H45   H     H_    0.790497 0.599724 0.831940 0.159596
H46   H     H_    0.948857 0.138829 0.495782 0.115657
H47   H     H_    0.051143 0.138829 0.504218 0.115656
H48   H     H_    0.449644 0.638862 0.497329 0.118904
H49   H     H_    0.435937 0.041827 0.712081 0.109211
H50   H     H_    0.550356 0.638862 0.502671 0.118903
H51   H     H_    0.082233 0.209306 0.510258 0.112061
H52   H     H_    0.917767 0.209306 0.489743 0.112063
H53   H     H_    0.581026 0.709333 0.507835 0.114993
H54   H     H_    0.418975 0.709333 0.492166 0.114998
H55   H     H_    0.582262 0.790574 0.510320 0.112728
H56   H     H_    0.417739 0.790575 0.489681 0.112763
H57   H     H_    0.083432 0.290548 0.512708 0.111867
H58   H     H_    0.916568 0.290548 0.487292 0.111871
H59   H     H_    0.553408 0.861014 0.508773 0.119292
H60   H     H_    0.065981 0.538722 0.289830 0.109546
H61   H     H_    0.446592 0.861014 0.491228 0.119321
H62   H     H_    0.054115 0.360980 0.510243 0.119459
H63   H     H_    0.945885 0.360980 0.489757 0.119462
H64   H     H_    0.969408 0.860379 0.408622 0.123998
H65   H     H_    0.030589 0.860379 0.591376 0.123998
H66   H     H_    0.468553 0.360406 0.408166 0.123429
H67   H     H_    0.531447 0.360406 0.591834 0.123429
H68   H     H_    0.563295 0.956910 0.339008 0.108014
H69   H     H_    0.431711 0.965395 0.656018 0.108225
H70   H     H_    0.066566 0.462177 0.342265 0.108054
H71   H     H_    0.934434 0.539422 0.710583 0.109569
H72   H     H_    0.933037 0.462888 0.657339 0.108073
H73   H     H_    0.050754 0.790134 0.644897 0.109988
H74   H     H_    0.949243 0.790134 0.355100 0.109990
H75   H     H_    0.552148 0.290153 0.645604 0.109788
H76   H     H_    0.447851 0.290153 0.354396 0.109793
H77   H     H_    0.553973 0.208912 0.646528 0.110758
H78   H     H_    0.446027 0.208912 0.353472 0.110813
H79   H     H_    0.052569 0.708894 0.645849 0.110617
H80   H     H_    0.947428 0.708893 0.354150 0.110622
H81   H     H_    0.535893 0.138313 0.593868 0.110021
H82   H     H_    0.636932 0.933675 0.161691 0.130580
H83   H     H_    0.464107 0.138313 0.406132 0.110060
H84   H     H_    0.034997 0.638292 0.593461 0.109547
H85   H     H_    0.965002 0.638292 0.406538 0.109551
H86   H     H_    0.505844 0.076340 0.281747 0.107828
H87   H     H_    0.503979 0.076435 0.728040 0.107794
H88   H     H_    0.999662 0.576549 0.275588 0.107670
H89   H     H_    0.001150 0.576539 0.725221 0.107662
H90   H     H_    0.437043 0.043060 0.161371 0.111806
H91   H     H_    0.567951 0.034575 0.843603 0.111847
H92   H     H_    0.933772 0.537796 0.158113 0.110613
H93   H     H_    0.363067 0.933669 0.838323 0.130575
H94   H     H_    0.066625 0.537085 0.842282 0.110609
H95   H     H_    0.431447 0.966724 0.207641 0.111898
H96   H     H_    0.563723 0.958144 0.787545 0.111755
H97   H     H_    0.934359 0.461252 0.210544 0.111400
H98   H     H_    0.065226 0.460551 0.789042 0.111394
H99   H     H_    0.494494 0.923631 0.218633 0.108977
H100  H     H_    0.495683 0.923536 0.771581 0.108638
H101  H     H_    0.000676 0.423425 0.224792 0.108767
H102  H     H_    0.998511 0.423435 0.774399 0.108738
H103  H     H_    0.862880 0.060172 0.336526 0.099893
H104  H     H_    0.136862 0.434377 0.163289 0.130004
H105  H     H_    0.137119 0.060178 0.663462 0.099886
H106  H     H_    0.362897 0.560508 0.337409 0.098128
H107  H     H_    0.637103 0.560509 0.662589 0.098127
H108  H     H_    0.788011 0.892474 0.328459 0.112318
H109  H     H_    0.211988 0.892465 0.671564 0.112317
H110  H     H_    0.287983 0.393079 0.329937 0.112129
H111  H     H_    0.712017 0.393078 0.670066 0.112129
H112  H     H_    0.683378 0.790247 0.225472 0.152218
H113  H     H_    0.631917 0.820967 0.172352 0.153837
H114  H     H_    0.651053 0.791427 0.145799 0.145693
H115  H     H_    0.863137 0.434376 0.836713 0.130004
H116  H     H_    0.664570 0.871958 0.151365 0.169009
H117  H     H_    0.715745 0.841693 0.204341 0.163792
H118  H     H_    0.725030 0.859783 0.288822 0.134609
H119  H     H_    0.674441 0.888870 0.240246 0.137827
H120  H     H_    0.316617 0.790235 0.774581 0.152214
H121  H     H_    0.368079 0.820953 0.827690 0.153814
H122  H     H_    0.348944 0.791430 0.854254 0.145686
H123  H     H_    0.335429 0.871964 0.848667 0.168999
H124  H     H_    0.284253 0.841701 0.795700 0.163793
H125  H     H_    0.274969 0.859765 0.711214 0.134606
H126  H     H_    0.640736 0.065994 0.117768 0.129080
H127  H     H_    0.325558 0.888851 0.759782 0.137818
H128  H     H_    0.182815 0.291292 0.229886 0.152239
H129  H     H_    0.131499 0.322239 0.176671 0.153946
H130  H     H_    0.149897 0.291240 0.149975 0.145840
H131  H     H_    0.163741 0.371423 0.153572 0.168827
H132  H     H_    0.214775 0.340939 0.206640 0.163567
H133  H     H_    0.225114 0.361208 0.291542 0.134628
H134  H     H_    0.174706 0.390630 0.242946 0.138034
H135  H     H_    0.817186 0.291291 0.770122 0.152239
H136  H     H_    0.868501 0.322238 0.823336 0.153944
O1    O     O_R   0.564870 0.962420 0.064890 -0.516456
O2    O     O_R   0.064940 0.999990 0.599900 -0.503573
O3    O     O_R   0.435060 0.499990 0.400100 -0.506131
O4    O     O_R   0.564940 0.499990 0.599900 -0.506130
O5    O     O_R   0.000080 0.935140 0.535060 -0.520186
O6    O     O_R   0.999920 0.935140 0.464940 -0.520181
O7    O     O_R   0.500080 0.435140 0.535060 -0.520003
O8    O     O_R   0.499920 0.435140 0.464940 -0.520003
O9    O     O_R   0.564810 0.037500 0.064830 -0.509326
O10   O     O_R   0.435190 0.037500 0.935170 -0.509344
O11   O     O_R   0.064810 0.537500 0.064830 -0.508640
O12   O     O_R   0.435130 0.962420 0.935110 -0.516471
O13   O     O_R   0.935190 0.537500 0.935170 -0.508641
O14   O     O_R   0.500000 0.962430 0.060460 -0.505628
O15   O     O_R   0.500000 0.962430 0.939540 -0.505623
O16   O     O_R   0.000000 0.462430 0.060460 -0.505767
O17   O     O_R   1.000000 0.462430 0.939540 -0.505766
O18   O     O_R   0.499940 0.037510 0.060410 -0.501238
O19   O     O_R   0.500060 0.037510 0.939590 -0.501239
O20   O     O_R   0.999940 0.537510 0.060410 -0.501177
O21   O     O_R   0.000060 0.537510 0.939590 -0.501177
O22   O     O_R   0.537500 0.935010 0.537500 -0.508055
O23   O     O_R   0.064870 0.462420 0.064890 -0.516447
O24   O     O_R   0.462500 0.935010 0.462500 -0.508043
O25   O     O_R   0.037500 0.435010 0.537500 -0.508349
O26   O     O_R   0.962500 0.435010 0.462500 -0.508347
O27   O     O_R   0.537510 0.999880 0.477060 -0.504976
O28   O     O_R   0.462490 0.999880 0.522940 -0.504997
O29   O     O_R   0.037510 0.499880 0.477060 -0.504993
O30   O     O_R   0.962490 0.499880 0.522940 -0.504994
O31   O     O_R   0.462420 0.999960 0.401940 -0.503288
O32   O     O_R   0.537580 0.999960 0.598060 -0.503264
O33   O     O_R   0.962420 0.499960 0.401940 -0.503380
O34   O     O_R   0.935130 0.462420 0.935110 -0.516449
O35   O     O_R   0.037580 0.499960 0.598060 -0.503379
O36   O     O_R   0.537530 0.064730 0.537550 -0.506714
O37   O     O_R   0.462470 0.064730 0.462450 -0.506704
O38   O     O_R   0.037530 0.564730 0.537550 -0.506630
O39   O     O_R   0.962470 0.564730 0.462450 -0.506629
O40   O     O_R   0.999920 0.064860 0.534930 -0.504529
O41   O     O_R   0.000080 0.064860 0.465070 -0.504530
O42   O     O_R   0.499920 0.564860 0.534930 -0.505108
O43   O     O_R   0.500080 0.564860 0.465070 -0.505107
O44   O     O_2   0.777304 0.143110 0.217550 -0.503426
O45   O     O_R   0.935130 0.999970 0.470150 -0.517334
O46   O     O_2   0.222696 0.143125 0.782420 -0.503437
O47   O     O_2   0.277477 0.645553 0.223461 -0.504290
O48   O     O_2   0.722522 0.645555 0.776534 -0.504296
O49   O     O_R   0.064870 0.999970 0.529850 -0.517331
O50   O     O_R   0.435130 0.499970 0.470150 -0.515648
O51   O     O_R   0.564870 0.499970 0.529850 -0.515648
O52   O     O_R   0.935060 0.999990 0.400100 -0.503575

loop_
_geom_bond_atom_site_label_1
_geom_bond_atom_site_label_2
_ccdc_geom_bond_type
C101  C107  S    
C110  C185  S    
C122  H131  S    
C157  C161  A    
Cu7   O21   S    
C18   C21   A    
C103  H101  S    
C100  H99   S    
C36   C42   A    
Cu10  O38   S    
C134  H12   S    
C201  H43   S    
Cu5   O34   S    
C227  O25   A    
C202  H44   S    
C67   C169  S    
C126  C127  S    
C136  H27   S    
C24   H94   S    
C154  C158  A    
C10   O45   A    
C59   C66   A    
C221  H72   S    
C86   C88   A    
C143  C144  S    
C8    O40   A    
C71   C113  T    
C60   C62   A    
C176  C206  A    
C89   C94   A    
C190  C212  A    
C117  H112  S    
C109  C218  S    
C72   C88   A    
C31   C221  S    
C188  C210  A    
C14   O51   A    
C6    C94   S    
C168  C177  A    
C111  H97   S    
C139  H34   S    
C84   C91   A    
C147  H103  S    
C111  C196  S    
C47   C53   A    
C58   C61   A    
C53   C55   A    
C100  C109  S    
C125  H6    S    
C12   O3    A    
Cu5   O16   S    
C16   O7    A    
C129  H9    S    
Cu11  O30   S    
C164  C168  A    
C67   C79   T    
C140  C141  S    
C109  H95   S    
C81   H79   S    
Cu3   O42   S    
C132  H18   S    
C112  O10   A    
C160  C165  A    
C163  O34   A    
C209  C213  A    
C218  H90   S    
C108  C113  S    
Cu5   O23   S    
C150  H107  S    
C10   C151  S    
Cu3   O7    S    
C213  C222  A    
C138  H21   S    
C68   C207  S    
C211  H104  S    
C15   C61   S    
C141  H30   S    
C78   H77   S    
C160  C178  A    
C178  C182  A    
C60   C65   A    
C8    O41   A    
C189  C211  A    
C148  C153  A    
C175  C205  A    
C74   C81   A    
C36   H52   S    
C30   C220  S    
C66   C77   A    
C37   H53   S    
C35   H86   S    
C12   C154  S    
C146  C207  S    
C139  C140  S    
C63   C74   A    
C116  H117  S    
C144  H36   S    
Cu10  O29   S    
C20   H50   S    
C17   C25   A    
C3    O28   A    
C210  C214  A    
C183  C188  A    
C142  H42   S    
C91   C94   A    
C30   H60   S    
C76   H75   S    
C92   C95   A    
C25   C36   A    
C41   C45   A    
C103  C107  S    
C68   H89   S    
Cu1   O14   S    
C5    O30   A    
C180  C184  A    
Cu2   O6    S    
C24   C114  S    
C30   C107  S    
C148  H105  S    
C115  H119  S    
Cu2   O49   S    
C70   C101  T    
C27   C33   A    
C16   O8    A    
C46   H87   S    
C96   C228  S    
Cu7   O11   S    
C76   C78   A    
C134  H15   S    
C228  O31   A    
C13   C57   S    
C115  C116  S    
C226  O22   A    
Cu1   Cu6   S    
Cu8   Cu9   S    
C136  H26   S    
C55   C227  S    
C145  C196  S    
C110  H96   S    
C164  C181  A    
Cu6   O10   S    
C187  C209  A    
C28   C35   S    
C198  C202  A    
C56   C64   A    
C144  H37   S    
C112  C214  S    
C161  C179  A    
C162  C180  A    
Cu8   O36   S    
C103  C220  S    
C203  H45   S    
C93   C95   A    
C167  C193  A    
C117  H113  S    
Cu4   O51   S    
C119  H123  S    
C85   C92   A    
C131  H11   S    
C199  C225  A    
C57   H88   S    
C9    O42   A    
C83   C89   A    
Cu9   O28   S    
C155  C159  A    
C5    C99   S    
C156  C160  A    
C127  H3    S    
C123  H128  S    
C51   H61   S    
C170  O15   A    
Cu12  O40   S    
C45   C52   A    
C31   H71   S    
C170  O19   A    
C2    C106  S    
C147  C151  A    
C130  C206  S    
C86   C93   A    
C82   H80   S    
C26   C33   A    
C200  C204  A    
C23   C34   A    
C121  H133  S    
Cu7   O13   S    
C7    O38   A    
C4    O29   A    
Cu6   O19   S    
C121  C184  S    
Cu3   O4    S    
C129  O46   D    
C207  C221  S    
C1    O9    A    
C150  C155  A    
C150  C177  A    
C39   H55   S    
C40   H56   S    
Cu12  O45   S    
C115  C182  S    
C34   H51   S    
C85   C88   A    
C122  H132  S    
C127  H136  S    
Cu2   Cu12  S    
C56   C61   A    
C130  O47   D    
C222  H126  S    
C123  H130  S    
C136  C137  S    
C197  C223  A    
C15   O6    A    
C181  C186  A    
C43   C50   A    
C172  O17   A    
C98   C145  T    
C200  H35   S    
C203  C208  A    
C177  C208  A    
C188  C192  A    
C120  H120  S    
C13   C111  S    
C220  H70   S    
C60   H67   S    
C17   H46   S    
C116  H116  S    
C19   H48   S    
C143  H40   S    
C132  C156  S    
C64   C75   A    
C70   C171  S    
C117  H114  S    
C191  C195  A    
C32   C49   A    
C214  C223  A    
C11   C153  S    
C189  C193  A    
C40   C44   A    
C97   C135  T    
C38   H54   S    
C201  C205  A    
C159  C164  A    
C139  H33   S    
C12   O50   A    
C135  C185  S    
C81   C85   A    
Cu3   O50   S    
C83   C87   A    
C28   C217  S    
Cu10  O25   S    
C104  C221  S    
C211  C215  A    
C13   H92   S    
C142  C159  S    
C80   C84   A    
Cu8   O27   S    
C215  C224  A    
C118  C183  S    
C166  C175  A    
C50   C54   A    
C65   C76   A    
C169  O14   A    
C11   O49   A    
C58   H65   S    
C219  H69   S    
Cu2   O52   S    
C27   C38   A    
C193  C198  A    
C30   C57   S    
C6    O37   A    
C103  C111  S    
C128  C204  S    
C217  H68   S    
C73   C87   A    
C41   H57   S    
C78   C83   A    
C138  H22   S    
C118  H127  S    
C24   C108  S    
C141  H29   S    
C120  H121  S    
C91   H83   S    
C52   C55   A    
C133  H17   S    
C126  H5    S    
C199  C203  A    
C34   C41   A    
C227  O26   A    
C224  H13   S    
C138  H20   S    
C31   C68   S    
C57   C196  S    
C141  H28   S    
C52   H62   S    
C53   H63   S    
C109  C174  S    
C18   H47   S    
C42   H58   S    
C82   C86   A    
C112  O12   A    
C2    H91   S    
C198  C224  A    
C149  C154  A    
C180  H110  S    
C50   H59   S    
C129  C205  S    
C3    C97   S    
C45   C49   A    
C28   C105  S    
C75   C82   A    
C192  C197  A    
C152  O11   A    
C90   C106  S    
C121  C122  S    
Cu2   O41   S    
C137  H23   S    
C20   C22   A    
Cu9   O24   S    
C1    C213  S    
C133  C134  S    
C125  H7    S    
C7    O39   A    
C28   H1    S    
Cu5   O17   S    
Cu1   O12   S    
C29   H49   S    
C104  C108  S    
C77   C80   A    
C77   H76   S    
Cu10  Cu11  S    
C2    C110  S    
Cu1   O1    S    
C131  O48   D    
C195  C222  A    
C119  C120  S    
C147  C173  A    
C26   C37   A    
Cu12  O2    S    
C216  C225  A    
C29   C46   S    
C149  C176  A    
Cu9   O37   S    
C23   C32   A    
Cu8   O22   S    
C4    O33   A    
C37   C39   A    
C38   C40   A    
C56   H64   S    
C140  H31   S    
C118  H125  S    
C165  C191  A    
C166  C192  A    
C46   C185  S    
C153  C157  A    
C6    O36   A    
C24   C68   S    
C152  O23   A    
C124  C174  S    
C63   C72   A    
C128  O44   D    
C105  C218  S    
Cu7   O20   S    
C33   C48   A    
C142  C143  S    
C144  H38   S    
Cu10  O35   S    
C5    O35   A    
C212  H115  S    
C80   H78   S    
C172  O21   A    
C92   H84   S    
C17   C21   A    
C44   C48   A    
C186  C190  A    
C4    C98   S    
C14   C155  S    
C31   C108  S    
Cu8   O32   S    
C84   C87   A    
C13   C107  S    
C74   H73   S    
C114  H98   S    
C104  H102  S    
C47   C49   A    
C114  C207  S    
C100  C105  S    
C173  C204  A    
C179  H109  S    
Cu1   O15   S    
C142  H41   S    
C9    C22   S    
C11   O2    A    
C223  H2    S    
C165  C173  A    
C65   C73   A    
C116  C117  S    
C79   C105  S    
C163  C216  S    
Cu11  O26   S    
C118  C119  S    
C54   C226  S    
C2    C46   S    
Cu9   O31   S    
C209  H82   S    
C137  H25   S    
C212  C216  A    
C139  C158  S    
C132  C133  S    
C197  C201  A    
C181  H111  S    
C19   C27   A    
C43   C48   A    
C187  C191  A    
C161  C166  A    
C182  C187  A    
C25   C32   A    
C171  O20   A    
Cu4   O3    S    
C168  C194  A    
Cu11  O33   S    
C169  O18   A    
C16   C62   S    
C131  C208  S    
C133  H16   S    
C42   C47   A    
C196  C220  S    
C132  H19   S    
C179  C183  A    
C130  H10   S    
C152  C215  S    
C1    O1    A    
C148  C175  A    
C127  H135  S    
C96   C124  T    
C18   C23   A    
C128  H8    S    
C123  H129  S    
C19   C22   A    
C14   O4    A    
C134  H14   S    
C15   O5    A    
C190  C194  A    
C39   C43   A    
C226  O24   A    
C151  C156  A    
C66   C73   A    
C210  H93   S    
C140  H32   S    
C125  C186  S    
C194  C199  A    
C143  H39   S    
C8    C21   S    
C174  C217  S    
Cu5   Cu7   S    
C102  H100  S    
C3    O32   A    
C102  C219  S    
C104  C114  S    
C136  C157  S    
C44   C51   A    
C99   C146  T    
C100  C217  S    
C149  H106  S    
C171  O16   A    
C29   C106  S    
C10   O52   A    
C69   C90   T    
C35   C218  S    
C119  H124  S    
C195  C200  A    
C58   C63   A    
C9    O43   A    
C59   C62   A    
C185  C219  S    
C71   C172  S    
C35   C174  S    
Cu6   O9    S    
C93   H85   S    
C7    C95   S    
C137  C138  S    
Cu4   O8    S    
C51   C54   A    
C89   H81   S    
C163  O13   A    
Cu4   O43   S    
C126  H4    S    
Cu12  O5    S    
C125  C126  S    
C20   C26   A    
C178  H108  S    
C121  H134  S    
C102  C106  S    
C69   C170  S    
C64   C72   A    
Cu6   O18   S    
C75   H74   S    
C102  C110  S    
C158  C162  A    
C228  O27   A    
C162  C167  A    
C29   C219  S    
C202  C206  A    
Cu3   Cu4   S    
Cu11  O39   S    
C184  C189  A    
C115  H118  S    
C225  H24   S    
C120  H122  S    
C122  C123  S    
C59   H66   S    
C167  C176  A    
