data_mof_unit_14424.cif
_audit_creation_date              2012-12-11T15:26:09-0500
_audit_creation_method            fapswitch 2.2
_symmetry_space_group_name_H-M    P1
_symmetry_Int_Tables_number       1
_space_group_crystal_system       triclinic
_cell_length_a                    24.687827
_cell_length_b                    17.151203
_cell_length_c                    15.612346
_cell_angle_alpha                 89.367241
_cell_angle_beta                  50.638341
_cell_angle_gamma                 89.267215
_cell_volume                      5110.64026742

loop_
_atom_site_label
_atom_site_type_symbol
_atom_type_description
_atom_site_fract_x
_atom_site_fract_y
_atom_site_fract_z
_atom_type_partial_charge
C1    C     C_R   0.344998 0.134631 0.773733 -0.125798
C2    C     C_R   0.665904 0.888558 0.201847 -0.104425
C3    C     C_R   0.655020 0.134676 0.229462 -0.107274
C4    C     C_R   0.334101 0.891008 0.800446 -0.115952
C5    C     C_R   0.844999 0.634632 0.773731 -0.125785
C6    C     C_R   0.165904 0.388559 0.201847 -0.104423
C7    C     C_R   0.155021 0.634674 0.229460 -0.107309
C8    C     C_R   0.834103 0.391001 0.800441 -0.115939
C9    C     C_2   0.655963 0.242284 0.118304 -0.230701
C10   C     C_2   0.308659 0.842740 0.976306 -0.208762
C11   C     C_2   0.351232 0.247662 0.869656 -0.203131
C12   C     C_2   0.692186 0.842396 0.025094 -0.187485
C13   C     C_2   0.155965 0.742283 0.118302 -0.230679
C14   C     C_2   0.808660 0.342734 0.976301 -0.208774
C15   C     C_2   0.851235 0.747665 0.869651 -0.203175
C16   C     C_2   0.192186 0.342397 0.025093 -0.187502
C17   C     C_2   0.697055 0.288925 0.122873 -0.078752
C18   C     C_2   0.239235 0.845651 0.035574 -0.112088
C19   C     C_2   0.304466 0.291414 0.873890 -0.093120
C20   C     C_2   0.761609 0.845503 0.964801 -0.106077
C21   C     C_2   0.197056 0.788923 0.122872 -0.078772
C22   C     C_2   0.739236 0.345649 0.035571 -0.112088
C23   C     C_2   0.804467 0.791415 0.873888 -0.093128
C24   C     C_2   0.261609 0.345502 0.964801 -0.106065
C25   C     C_R   0.609774 0.114201 0.592418 -0.048698
C26   C     C_R   0.411160 0.856324 0.408463 -0.092165
C27   C     C_R   0.406115 0.140117 0.407263 -0.079272
C28   C     C_R   0.613455 0.896051 0.593364 -0.090302
C29   C     C_R   0.109779 0.614187 0.592417 -0.048685
C30   C     C_R   0.911161 0.356328 0.408457 -0.092054
C31   C     C_R   0.906115 0.640117 0.407263 -0.079278
C32   C     C_R   0.113454 0.396050 0.593364 -0.090333
C33   C     C_R   0.684343 0.114235 0.407059 -0.112296
C34   C     C_R   0.338911 0.856100 0.593773 -0.135005
C35   C     C_R   0.332585 0.140718 0.590989 -0.122930
C36   C     C_R   0.688888 0.899916 0.409723 -0.122501
C37   C     C_R   0.184345 0.614231 0.407059 -0.112451
C38   C     C_R   0.838900 0.356105 0.593769 -0.135055
C39   C     C_R   0.832585 0.640718 0.590988 -0.122911
C40   C     C_R   0.188887 0.399916 0.409723 -0.122490
C41   C     C_R   0.567476 0.132638 0.222125 -0.101406
C42   C     C_R   0.424514 0.889818 0.800231 -0.135104
C43   C     C_R   0.438281 0.136840 0.766607 -0.118111
C44   C     C_R   0.576404 0.890510 0.199491 -0.118906
C45   C     C_R   0.067477 0.632637 0.222124 -0.101400
C46   C     C_R   0.924514 0.389815 0.800229 -0.135116
C47   C     C_R   0.938284 0.636842 0.766603 -0.118132
C48   C     C_R   0.076404 0.390511 0.199490 -0.118890
C49   C     C_R   0.377168 0.175739 0.806258 0.143202
C50   C     C_R   0.645990 0.869377 0.139451 0.134862
C51   C     C_R   0.627298 0.172298 0.186471 0.160396
C52   C     C_R   0.354648 0.870581 0.862034 0.147481
C53   C     C_R   0.877170 0.675741 0.806254 0.143210
C54   C     C_R   0.145991 0.369378 0.139450 0.134867
C55   C     C_R   0.127300 0.672296 0.186468 0.160394
C56   C     C_R   0.854650 0.370575 0.862029 0.147477
C57   C     C_R   0.673676 0.139292 0.499546 0.108370
C58   C     C_R   0.360426 0.814018 0.502396 0.141289
C59   C     C_R   0.355677 0.184826 0.498554 0.076550
C60   C     C_R   0.683329 0.885782 0.502727 0.070685
C61   C     C_R   0.173681 0.639283 0.499547 0.108341
C62   C     C_R   0.860423 0.314024 0.502385 0.141409
C63   C     C_R   0.855677 0.684826 0.498554 0.076551
C64   C     C_R   0.183328 0.385781 0.502728 0.070706
C65   C     C_R   0.271617 0.294380 0.600180 -0.221406
C66   C     C_R   0.806894 0.849576 0.402447 -0.215224
C67   C     C_R   0.788394 0.151625 0.447276 -0.190304
C68   C     C_R   0.246454 0.792596 0.560566 -0.224942
C69   C     C_R   0.771618 0.794381 0.600178 -0.221379
C70   C     C_R   0.306893 0.349575 0.402449 -0.215359
C71   C     C_R   0.288445 0.651678 0.447112 -0.190352
C72   C     C_R   0.746497 0.292702 0.560345 -0.224983
C73   C     C_R   0.730158 0.851602 0.602545 -0.065710
C74   C     C_R   0.352911 0.300417 0.400085 -0.066473
C75   C     C_R   0.336176 0.691173 0.449576 -0.092448
C76   C     C_R   0.699726 0.254201 0.556595 -0.071626
C77   C     C_R   0.230155 0.351599 0.602547 -0.065719
C78   C     C_R   0.852911 0.800417 0.400084 -0.066485
C79   C     C_R   0.836130 0.191128 0.449724 -0.092532
C80   C     C_R   0.199687 0.754108 0.556798 -0.071547
C81   C     C_R   0.741247 0.866937 0.503426 0.062825
C82   C     C_R   0.328285 0.261577 0.498900 0.067044
C83   C     C_R   0.313927 0.762409 0.506982 0.024165
C84   C     C_R   0.721514 0.183023 0.500108 0.030818
C85   C     C_R   0.241246 0.366936 0.503428 0.062835
C86   C     C_R   0.828285 0.761578 0.498899 0.067027
C87   C     C_R   0.813924 0.262440 0.506945 0.024044
C88   C     C_R   0.221520 0.683007 0.500117 0.030946
H1    H     H_    0.292250 0.143138 0.803855 0.092116
H2    H     H_    0.718038 0.887937 0.176528 0.089601
H3    H     H_    0.703948 0.146193 0.212249 0.091246
H4    H     H_    0.281487 0.893334 0.827950 0.087619
H5    H     H_    0.792251 0.643140 0.803854 0.092117
H6    H     H_    0.218038 0.387937 0.176528 0.089600
H7    H     H_    0.203950 0.646190 0.212247 0.091261
H8    H     H_    0.781489 0.393323 0.827942 0.087614
H9    H     H_    0.589859 0.115933 0.677171 0.091233
H10   H     H_    0.435573 0.842712 0.323450 0.097242
H11   H     H_    0.428581 0.150402 0.322717 0.089181
H12   H     H_    0.589236 0.895041 0.679929 0.106984
H13   H     H_    0.089865 0.615909 0.677170 0.091232
H14   H     H_    0.935576 0.342719 0.323443 0.097267
H15   H     H_    0.928581 0.650402 0.322717 0.089182
H16   H     H_    0.089234 0.395041 0.679930 0.106986
H17   H     H_    0.732386 0.116169 0.322302 0.090818
H18   H     H_    0.296134 0.842589 0.679441 0.112097
H19   H     H_    0.287710 0.152654 0.675119 0.092749
H20   H     H_    0.736319 0.905833 0.325034 0.094751
H21   H     H_    0.232387 0.616165 0.322300 0.090869
H22   H     H_    0.796112 0.342599 0.679433 0.112112
H23   H     H_    0.787709 0.652655 0.675118 0.092752
H24   H     H_    0.236319 0.405833 0.325035 0.094754
H25   H     H_    0.538179 0.142629 0.193417 0.106104
H26   H     H_    0.454292 0.890595 0.829299 0.104114
H27   H     H_    0.474282 0.151459 0.781026 0.106409
H28   H     H_    0.547680 0.893131 0.168604 0.103117
H29   H     H_    0.038179 0.642629 0.193416 0.106112
H30   H     H_    0.954291 0.390592 0.829298 0.104114
H31   H     H_    0.974286 0.651462 0.781018 0.106467
H32   H     H_    0.047681 0.393133 0.168603 0.103101
H33   H     H_    0.259223 0.275538 0.677133 0.144404
H34   H     H_    0.822092 0.872490 0.325233 0.152948
H35   H     H_    0.802342 0.095709 0.406040 0.170124
H36   H     H_    0.231531 0.849293 0.600134 0.157644
H37   H     H_    0.759225 0.775541 0.677132 0.144404
H38   H     H_    0.322091 0.372491 0.325236 0.152964
H39   H     H_    0.302430 0.595815 0.405736 0.170016
H40   H     H_    0.731618 0.349451 0.599769 0.157726
H41   H     H_    0.215161 0.876702 0.006349 0.136178
H42   H     H_    0.708267 0.277180 0.178783 0.141443
H43   H     H_    0.785404 0.874962 0.994643 0.133187
H44   H     H_    0.288694 0.277157 0.824861 0.135899
H45   H     H_    0.715163 0.376703 0.006346 0.136176
H46   H     H_    0.208268 0.777178 0.178782 0.141432
H47   H     H_    0.285404 0.374961 0.994644 0.133191
H48   H     H_    0.788693 0.777158 0.824860 0.135908
H49   H     H_    0.331855 0.810725 0.006591 0.140198
H50   H     H_    0.645623 0.254184 0.061270 0.142891
H51   H     H_    0.669076 0.812182 0.994417 0.159479
H52   H     H_    0.366617 0.261809 0.919264 0.147570
H53   H     H_    0.831856 0.310717 0.006585 0.140184
H54   H     H_    0.145624 0.754183 0.061269 0.142908
H55   H     H_    0.169076 0.312184 0.994417 0.159473
H56   H     H_    0.866620 0.761812 0.919257 0.147603
N1    N     N_R   0.388930 0.078160 0.705470 -0.044140
N2    N     N_R   0.611070 0.921840 0.294530 -0.045379
N3    N     N_R   0.611070 0.078160 0.294530 -0.049113
N4    N     N_R   0.388930 0.921840 0.705470 -0.043706
N5    N     N_R   0.888930 0.578160 0.705470 -0.044142
N6    N     N_R   0.111070 0.421840 0.294530 -0.045376
N7    N     N_R   0.111070 0.578160 0.294530 -0.049110
N8    N     N_R   0.888930 0.421840 0.705470 -0.043702
N9    N     N_R   0.580500 0.077840 0.556650 -0.043799
N10   N     N_R   0.419500 0.922160 0.443350 -0.052398
N11   N     N_R   0.419500 0.077840 0.443350 -0.048414
N12   N     N_R   0.580500 0.922160 0.556650 -0.046360
N13   N     N_R   0.080500 0.577840 0.556650 -0.043803
N14   N     N_R   0.919500 0.422160 0.443350 -0.052425
N15   N     N_R   0.919500 0.577840 0.443350 -0.048417
N16   N     N_R   0.080500 0.422160 0.556650 -0.046358
N17   N     N_R   0.626210 0.077590 0.443410 -0.041681
N18   N     N_R   0.373790 0.922410 0.556590 -0.049861
N19   N     N_R   0.373790 0.077590 0.556590 -0.043469
N20   N     N_R   0.626210 0.922410 0.443410 -0.043223
N21   N     N_R   0.126210 0.577590 0.443410 -0.041680
N22   N     N_R   0.873790 0.422410 0.556590 -0.049864
N23   N     N_R   0.873790 0.577590 0.556590 -0.043471
N24   N     N_R   0.126210 0.422410 0.443410 -0.043221
N25   N     N_R   0.554800 0.077270 0.294580 -0.048238
N26   N     N_R   0.445200 0.922730 0.705420 -0.044443
N27   N     N_R   0.445200 0.077270 0.705420 -0.046964
N28   N     N_R   0.554800 0.922730 0.294580 -0.043626
N29   N     N_R   0.054800 0.577270 0.294580 -0.048240
N30   N     N_R   0.945200 0.422730 0.705420 -0.044442
N31   N     N_R   0.945200 0.577270 0.705420 -0.046966
N32   N     N_R   0.054800 0.422730 0.294580 -0.043625
Ni1   Ni    Ni4+2 0.382710 0.000000 0.629850 0.225142
Ni2   Ni    Ni4+2 0.617290 0.000000 0.370150 0.221536
Ni3   Ni    Ni4+2 0.882710 0.500000 0.629850 0.225151
Ni4   Ni    Ni4+2 0.117290 0.500000 0.370150 0.221542
Ni5   Ni    Ni4+2 0.513020 0.000000 0.629850 0.230952
Ni6   Ni    Ni4+2 0.486980 0.000000 0.370150 0.225815
Ni7   Ni    Ni4+2 0.013020 0.500000 0.629850 0.230955
Ni8   Ni    Ni4+2 0.986980 0.500000 0.370150 0.225810
C89   C     C_2   0.680349 0.897185 0.705270 0.970399
O1    O     O_2   0.653225 0.867666 0.795859 -0.663299
O2    O     O_R   0.666642 0.975345 0.698030 -0.813629
H57   H     H_    0.632278 0.000663 0.773359 0.319313
C90   C     C_2   0.426715 0.297283 0.297996 0.971403
O3    O     O_2   0.441434 0.300294 0.207009 -0.649907
O4    O     O_R   0.479755 0.295768 0.306351 -0.788511
H58   H     H_    0.527680 0.302110 0.231673 0.325662
C91   C     C_2   0.406950 0.656367 0.393768 0.999551
O5    O     O_2   0.444750 0.680661 0.412738 -0.636010
O6    O     O_R   0.430036 0.594205 0.320368 -0.801994
H59   H     H_    0.478617 0.575081 0.288236 0.335868
C92   C     C_2   0.630653 0.291855 0.606932 0.975626
O7    O     O_2   0.602544 0.333002 0.688845 -0.638218
O8    O     O_R   0.598633 0.282331 0.559278 -0.795932
H60   H     H_    0.551937 0.310640 0.601564 0.334469
C93   C     C_2   0.180343 0.397178 0.705276 0.970385
O9    O     O_2   0.153212 0.367652 0.795864 -0.663308
O10   O     O_R   0.166640 0.475340 0.698040 -0.813620
H61   H     H_    0.132273 0.500655 0.773371 0.319323
C94   C     C_2   0.926716 0.797282 0.297994 0.971447
O11   O     O_2   0.941435 0.800293 0.207008 -0.649877
O12   O     O_R   0.979756 0.795769 0.306350 -0.788513
H62   H     H_    0.027680 0.802110 0.231672 0.325657
C95   C     C_2   0.906862 0.156251 0.394086 0.999622
O13   O     O_2   0.944722 0.180699 0.412853 -0.636095
O14   O     O_R   0.929842 0.093851 0.321076 -0.801967
H63   H     H_    0.978404 0.074707 0.289017 0.335903
C96   C     C_2   0.130570 0.791708 0.607311 0.975515
O15   O     O_2   0.102423 0.832681 0.689393 -0.638234
O16   O     O_R   0.098549 0.782335 0.559633 -0.795895
H64   H     H_    0.051818 0.810585 0.602049 0.334435

loop_
_geom_bond_atom_site_label_1
_geom_bond_atom_site_label_2
_ccdc_geom_bond_type
C68   C80   A    
N6    N32   A    
O10   H61   S    
N1    N27   A    
C3    N3    A    
N4    Ni1   S    
N7    N29   A    
N2    N28   A    
C36   H20   S    
C18   C21   S    
C93   O9    D    
C64   C85   S    
C1    N1    A    
C9    C51   S    
C59   C82   S    
C7    C55   A    
C72   C76   A    
C10   C52   S    
C78   C86   A    
C68   H36   S    
C79   C87   A    
N7    Ni4   S    
N11   Ni6   S    
C40   H24   S    
C96   O15   D    
C48   C54   A    
C27   H11   S    
C23   H48   S    
C4    C52   A    
C15   C53   S    
C35   C59   A    
C8    N8    A    
C74   C82   A    
C76   C92   S    
C48   N32   A    
C15   H56   S    
C89   O2    S    
C47   H31   S    
C45   H29   S    
C4    N4    A    
N5    Ni3   S    
C5    N5    A    
C46   H30   S    
C3    H3    S    
C66   H34   S    
C60   C81   S    
C68   C83   A    
C90   O4    S    
C11   C19   D    
N18   Ni1   S    
C42   N26   A    
C43   H27   S    
C42   H26   S    
N29   Ni8   S    
N15   N23   A    
N12   N20   A    
C91   O6    S    
C8    H8    S    
C70   C74   A    
N4    N26   A    
C32   H16   S    
C69   C73   A    
C10   H49   S    
C65   H33   S    
N15   Ni8   S    
C38   H22   S    
C2    C50   A    
N16   Ni7   S    
C37   H21   S    
C47   C53   A    
N8    N30   A    
C28   H12   S    
C15   C23   D    
C14   H53   S    
C69   H37   S    
O8    H60   S    
C16   C24   D    
C93   O10   S    
C8    C56   A    
C90   O3    D    
C25   C57   A    
N26   Ni5   S    
C6    C54   A    
C73   C81   A    
C73   C89   S    
N27   Ni5   S    
C96   O16   S    
C27   N11   A    
C66   C78   A    
C29   C61   A    
C76   C84   A    
C12   H51   S    
C65   C77   A    
C22   H45   S    
C25   N9    A    
O12   H62   S    
C34   H18   S    
C31   C63   A    
C16   H55   S    
C67   C79   A    
C32   C64   A    
C48   H32   S    
C1    C49   A    
N13   N21   A    
C43   N27   A    
C43   C49   A    
C29   N13   A    
O6    H59   S    
C71   H39   S    
C6    H6    S    
N24   Ni4   S    
C41   N25   A    
C35   N19   A    
O4    H58   S    
C67   H35   S    
N5    N31   A    
C31   H15   S    
C14   C56   S    
C33   N17   A    
C11   H52   S    
C44   N28   A    
N19   Ni1   S    
C11   C49   S    
C61   C88   S    
C45   N29   A    
C74   C90   S    
C9    H50   S    
C12   C50   S    
O14   H63   S    
C38   N22   A    
C20   C23   S    
C28   N12   A    
N32   Ni8   S    
C12   C20   D    
C46   N30   A    
C95   O13   D    
C57   C84   S    
C29   H13   S    
C37   N21   A    
C13   H54   S    
C9    C17   D    
C34   C58   A    
C26   C58   A    
C44   H28   S    
C28   C60   A    
C30   H14   S    
C26   H10   S    
C7    N7    A    
C75   C91   S    
C24   H47   S    
C25   H9    S    
C72   H40   S    
N23   Ni3   S    
C30   C62   A    
C63   C86   S    
C26   N10   A    
C13   C55   S    
C20   H43   S    
N1    Ni1   S    
C21   H46   S    
C75   C83   A    
C72   C87   A    
N20   Ni2   S    
C37   C61   A    
N14   N22   A    
N6    Ni4   S    
C44   C50   A    
C19   H44   S    
C30   N14   A    
C94   O11   D    
C1    H1    S    
C17   H42   S    
N31   Ni7   S    
N10   N18   A    
N9    Ni5   S    
C34   N18   A    
C77   C93   S    
N30   Ni7   S    
C5    H5    S    
N12   Ni5   S    
C80   C96   S    
C33   C57   A    
C2    N2    A    
C7    H7    S    
C62   C87   S    
C89   O1    D    
C17   C22   S    
C40   C64   A    
C33   H17   S    
N11   N19   A    
C14   C22   D    
N8    Ni3   S    
C92   O8    S    
C19   C24   S    
C5    C53   A    
C78   C94   S    
O2    H57   S    
C80   C88   A    
C27   C59   A    
C58   C83   S    
C13   C21   D    
C66   C81   A    
C71   C75   A    
C39   H23   S    
C70   C85   A    
N3    Ni2   S    
C70   H38   S    
C65   C82   A    
C67   C84   A    
C10   C18   D    
N9    N17   A    
N10   Ni6   S    
C41   H25   S    
C95   O14   S    
C3    C51   A    
C39   C63   A    
N16   N24   A    
O16   H64   S    
C39   N23   A    
C92   O7    D    
C16   C54   S    
N25   Ni6   S    
C40   N24   A    
C32   N16   A    
C35   H19   S    
C47   N31   A    
C77   C85   A    
C71   C88   A    
C6    N6    A    
N28   Ni6   S    
C79   C95   S    
C45   C55   A    
C2    H2    S    
C91   O5    D    
C46   C56   A    
C36   N20   A    
N21   Ni4   S    
C36   C60   A    
C18   H41   S    
N22   Ni3   S    
N13   Ni7   S    
C38   C62   A    
N17   Ni2   S    
C94   O12   S    
N14   Ni8   S    
C41   C51   A    
C31   N15   A    
C69   C86   A    
N3    N25   A    
C42   C52   A    
C4    H4    S    
N2    Ni2   S    
