data_mof_unit_16861.cif
_audit_creation_date              2012-12-10T17:43:32-0500
_audit_creation_method            fapswitch 2.2
_symmetry_space_group_name_H-M    P1
_symmetry_Int_Tables_number       1
_space_group_crystal_system       triclinic
_cell_length_a                    14.903857
_cell_length_b                    10.692062
_cell_length_c                    10.091973
_cell_angle_alpha                 88.433974
_cell_angle_beta                  91.469145
_cell_angle_gamma                 92.733258
_cell_volume                      1605.27930421

loop_
_atom_site_label
_atom_site_type_symbol
_atom_type_description
_atom_site_fract_x
_atom_site_fract_y
_atom_site_fract_z
_atom_type_partial_charge
C1    C     C_R   0.505885 0.260164 0.502064 0.846520
C2    C     C_R   0.184294 0.378150 0.465472 0.132844
C3    C     C_R   0.232372 0.490180 0.496750 -0.049762
C4    C     C_R   0.327806 0.498150 0.498680 0.863881
C5    C     C_R   0.190581 0.596296 0.534291 -0.308542
C6    C     C_R   0.528730 0.095242 0.749693 -0.243506
C7    C     C_R   0.488254 0.038478 0.862190 0.235774
C8    C     C_R   0.427277 0.933923 0.844566 0.250943
C9    C     C_R   0.422807 0.876515 0.722616 -0.190551
C10   C     C_R   0.467966 0.931024 0.614300 0.014951
C11   C     C_R   0.504828 0.052213 0.622798 0.055996
C12   C     C_R   0.910778 0.592415 0.545985 0.075859
C13   C     C_R   0.510985 0.124902 0.504041 -0.142858
C14   C     C_R   0.498422 0.066963 0.381685 -0.221870
C15   C     C_R   0.477768 0.940055 0.376503 0.185084
C16   C     C_R   0.489278 0.737711 0.497915 0.868868
C17   C     C_R   0.472544 0.869975 0.494746 -0.132062
C18   C     C_R   0.354917 0.390183 0.137809 -0.125947
C19   C     C_R   0.271692 0.375511 0.073811 -0.240199
C20   C     C_R   0.266219 0.388768 0.936997 -0.185764
C21   C     C_R   0.346216 0.394103 0.866657 0.255146
C22   C     C_R   0.425935 0.448642 0.928339 0.077443
C23   C     C_R   0.945115 0.269891 0.431149 -0.226869
C24   C     C_R   0.427959 0.447093 0.071430 0.108502
C25   C     C_R   0.568433 0.553160 0.073077 -0.121163
C26   C     C_R   0.569045 0.553920 0.931196 0.214987
C27   C     C_R   0.672243 0.497838 0.501535 0.891488
C28   C     C_R   0.818171 0.592224 0.546860 -0.313241
C29   C     C_R   0.767326 0.487858 0.505310 -0.055050
C30   C     C_R   0.806942 0.377931 0.466402 0.130169
C31   C     C_R   0.901259 0.376533 0.467769 0.127279
C32   C     C_R   0.953031 0.484920 0.506039 0.021105
C33   C     C_3   0.505597 0.097430 0.994460 -0.957996
C34   C     C_R   0.037784 0.270054 0.431171 -0.224508
C35   C     C_3   0.364739 0.882001 0.948401 -0.942654
C36   C     C_3   0.445703 0.887200 0.247786 -0.890999
C37   C     C_3   0.352100 0.280870 0.783728 -0.802511
C38   C     C_3   0.750227 0.262917 0.425473 -0.919794
C39   C     C_3   0.648254 0.618023 0.865040 -0.820250
C40   C     C_3   0.232193 0.259518 0.437045 -0.978622
C41   C     C_3   0.106033 0.822556 0.619445 -0.939583
C42   C     C_R   0.090072 0.377312 0.466362 0.129839
C43   C     C_R   0.047014 0.486219 0.503971 -0.025584
C44   C     C_R   0.097744 0.596322 0.539793 0.100242
C45   C     C_R   0.054515 0.703639 0.579892 0.211279
C46   C     C_R   0.961047 0.699806 0.583070 -0.208994
H1    H     H_    0.784977 0.674876 0.576727 0.146550
H2    H     H_    0.400463 0.815004 0.013404 0.263107
H3    H     H_    0.335579 0.958644 0.002265 0.245344
H4    H     H_    0.306476 0.828623 0.903061 0.234251
H5    H     H_    0.380191 0.792333 0.710054 0.161393
H6    H     H_    0.393838 0.810250 0.262335 0.257659
H7    H     H_    0.411394 0.960874 0.190634 0.238216
H8    H     H_    0.503271 0.853843 0.193102 0.256920
H9    H     H_    0.362215 0.352843 0.236506 0.205928
H10   H     H_    0.213138 0.342800 0.128183 0.166097
H11   H     H_    0.420226 0.250806 0.794367 0.265085
H12   H     H_    0.624347 0.596643 0.128011 0.157754
H13   H     H_    0.309848 0.199865 0.822288 0.206382
H14   H     H_    0.330945 0.295491 0.679558 0.257437
H15   H     H_    0.765325 0.182311 0.492743 0.232427
H16   H     H_    0.677394 0.274661 0.429696 0.244706
H17   H     H_    0.764746 0.239956 0.321783 0.244368
H18   H     H_    0.626076 0.677973 0.780512 0.272420
H19   H     H_    0.687197 0.680150 0.934274 0.195225
H20   H     H_    0.694265 0.546992 0.832686 0.250510
H21   H     H_    0.908762 0.184791 0.401760 0.163142
H22   H     H_    0.067435 0.185012 0.401898 0.165131
H23   H     H_    0.203412 0.359505 0.887952 0.159244
H24   H     H_    0.214490 0.228155 0.335475 0.238121
H25   H     H_    0.306305 0.270350 0.444511 0.238176
H26   H     H_    0.211793 0.184369 0.509825 0.247364
H27   H     H_    0.146072 0.860718 0.534970 0.241672
H28   H     H_    0.060634 0.896113 0.648252 0.240975
H29   H     H_    0.151495 0.802924 0.705658 0.242916
H30   H     H_    0.927057 0.781429 0.613453 0.147062
H31   H     H_    0.232091 0.678623 0.559611 0.152672
H32   H     H_    0.499520 0.120925 0.289263 0.187018
H33   H     H_    0.573162 0.177482 0.761191 0.178877
H34   H     H_    0.550153 0.183458 0.986198 0.239645
H35   H     H_    0.441705 0.125327 0.036460 0.245254
H36   H     H_    0.539956 0.030906 0.061967 0.257819
N1    N     N_R   0.499150 0.498800 0.142780 -0.134103
N2    N     N_R   0.499120 0.498720 0.857170 -0.122657
O1    O     O_R   0.500000 0.316780 0.614690 -0.627676
O2    O     O_R   0.499990 0.316750 0.385360 -0.639195
O3    O     O_R   0.367850 0.499980 0.614680 -0.619364
O4    O     O_R   0.367840 0.499960 0.385350 -0.630489
O5    O     O_R   0.500010 0.683250 0.614640 -0.626989
O6    O     O_R   0.500000 0.683220 0.385310 -0.602094
O7    O     O_R   0.632160 0.500040 0.614650 -0.621989
O8    O     O_R   0.632150 0.500020 0.385320 -0.610491
Zn1   Zn    Zn3+2 0.500010 0.500020 0.653130 0.926988
Zn2   Zn    Zn3+2 0.499990 0.499980 0.346870 0.931869

loop_
_geom_bond_atom_site_label_1
_geom_bond_atom_site_label_2
_ccdc_geom_bond_type
C19   H10   S    
C28   H1    S    
C16   O6    A    
C40   H25   S    
C27   C29   S    
C7    C33   S    
C19   C20   A    
C9    H5    S    
C46   H30   S    
C7    C8    A    
C4    O3    A    
C45   C46   A    
C39   H18   S    
C40   H24   S    
C12   C28   A    
C18   C24   A    
C28   C29   A    
C24   N1    A    
C30   C31   A    
C26   C39   S    
O7    Zn1   S    
C10   C17   A    
C30   C38   S    
C18   C19   A    
C23   H21   S    
C36   H7    S    
O2    Zn2   S    
C41   H28   S    
O1    Zn1   S    
C8    C9    A    
C34   C42   A    
C35   H3    S    
C27   O7    A    
C9    C10   A    
C36   H6    S    
C38   H15   S    
C16   O5    A    
C21   C22   A    
C12   C32   A    
C39   H19   S    
C35   H2    S    
O6    Zn2   S    
C1    O1    A    
O4    Zn2   S    
C12   C46   A    
C34   H22   S    
C6    C11   A    
C16   C17   S    
C25   C26   A    
N1    Zn2   S    
C8    C35   S    
C22   N2    A    
C43   C44   A    
C29   C30   A    
C41   H29   S    
C31   C32   A    
C23   C34   A    
C35   H4    S    
O8    Zn2   S    
C27   O8    A    
C37   H13   S    
C18   H9    S    
C5    C44   A    
C39   H20   S    
C22   C24   A    
C20   H23   S    
C1    C13   S    
C42   C43   A    
C5    H31   S    
C3    C4    S    
C15   C36   S    
C44   C45   A    
C38   H17   S    
C33   H36   S    
C1    O2    A    
C15   C17   A    
C26   N2    A    
C40   H26   S    
C3    C5    A    
C33   H34   S    
C6    C7    A    
C4    O4    A    
C2    C3    A    
C11   C13   A    
C6    H33   S    
C2    C42   A    
O3    Zn1   S    
C32   C43   A    
N2    Zn1   S    
C14   H32   S    
O5    Zn1   S    
C37   H14   S    
C36   H8    S    
C10   C11   A    
C41   H27   S    
C2    C40   S    
C21   C37   S    
C20   C21   A    
C25   H12   S    
C25   N1    A    
C41   C45   S    
C14   C15   A    
C13   C14   A    
C33   H35   S    
C37   H11   S    
C23   C31   A    
C38   H16   S    
