data_mof_unit_26824.cif
_audit_creation_date              2012-12-10T17:47:44-0500
_audit_creation_method            fapswitch 2.2
_symmetry_space_group_name_H-M    P1
_symmetry_Int_Tables_number       1
_space_group_crystal_system       triclinic
_cell_length_a                    10.670002
_cell_length_b                    10.649661
_cell_length_c                    9.916611
_cell_angle_alpha                 89.873789
_cell_angle_beta                  90.926081
_cell_angle_gamma                 91.608357
_cell_volume                      1126.25059419

loop_
_atom_site_label
_atom_site_type_symbol
_atom_type_description
_atom_site_fract_x
_atom_site_fract_y
_atom_site_fract_z
_atom_type_partial_charge
C1    C     C_R   0.503179 0.260637 0.500477 0.944617
C2    C     C_R   0.609028 0.068040 0.570330 -0.062072
C3    C     C_R   0.510038 0.128270 0.501825 -0.213516
C4    C     C_R   0.257709 0.501224 0.499200 1.030974
C5    C     C_R   0.414703 0.061378 0.433193 0.623436
C6    C     C_R   0.415590 0.933128 0.432141 -0.250063
C7    C     C_R   0.511106 0.871760 0.499594 -0.174985
C8    C     C_R   0.337353 0.334415 0.137259 -0.007498
C9    C     C_R   0.258056 0.251460 0.066054 -0.112516
C10   C     C_R   0.258643 0.250734 0.926525 -0.249437
C11   C     C_R   0.338135 0.333053 0.857533 -0.137568
C12   C     C_3   0.878700 0.502600 0.504653 -0.194380
C13   C     C_R   0.420336 0.417700 0.926438 0.157771
C14   C     C_R   0.420110 0.418088 0.070911 0.104103
C15   C     C_R   0.575818 0.579206 0.072628 -0.117185
C16   C     C_R   0.502831 0.739366 0.499849 0.912417
C17   C     C_R   0.575259 0.579633 0.929509 -0.111020
C18   C     C_R   0.742168 0.501540 0.501434 0.924507
C19   C     C_3   0.075470 0.519549 0.646082 -0.586264
C20   C     C_3   0.932299 0.519996 0.651716 1.029736
C21   C     C_3   0.072768 0.614369 0.410454 0.981918
C22   C     C_3   0.066156 0.375066 0.444235 1.101110
C23   C     C_3   0.928025 0.612735 0.415271 -0.565138
C24   C     C_3   0.120781 0.502765 0.498459 -0.286130
C25   C     C_3   0.110643 0.714421 0.202737 -0.184644
C26   C     C_3   0.930108 0.092526 0.896479 -0.314029
C27   C     C_3   0.897674 0.451007 0.873917 -0.129225
C28   C     C_3   0.922399 0.376829 0.445381 -0.556858
C29   C     C_R   0.707245 0.134804 0.639077 -0.233809
C30   C     C_R   0.803824 0.072069 0.705623 0.606232
C31   C     C_R   0.806832 0.940556 0.696186 -0.218524
C32   C     C_R   0.711104 0.873869 0.628561 -0.223291
C33   C     C_R   0.610145 0.936634 0.567376 0.074763
F1    F     F_    0.318003 0.120350 0.371774 -0.650654
F2    F     F_    0.895879 0.636072 0.699874 -0.735891
F3    F     F_    0.120869 0.726400 0.465765 -0.695181
F4    F     F_    0.104348 0.353406 0.313782 -0.659206
F5    F     F_    0.107378 0.277044 0.524497 -0.631104
H1    H     H_    0.115312 0.608524 0.689919 0.245963
H2    H     H_    0.331048 0.331115 0.243948 0.266261
H3    H     H_    0.195549 0.187643 0.119521 0.214513
H4    H     H_    0.197074 0.186255 0.871000 0.200857
H5    H     H_    0.331870 0.327658 0.750591 0.231693
H6    H     H_    0.636467 0.644999 0.876582 0.160946
H7    H     H_    0.895619 0.703952 0.454400 0.223830
H8    H     H_    0.885273 0.296301 0.505370 0.222001
H9    H     H_    0.193841 0.774002 0.231167 0.197659
H10   H     H_    0.023176 0.766712 0.217846 0.148302
H11   H     H_    0.116721 0.693527 0.093526 0.159368
H12   H     H_    0.884503 0.364338 0.340805 0.208806
H13   H     H_    0.997969 0.016214 0.885224 0.168866
H14   H     H_    0.846277 0.058795 0.953170 0.149074
H15   H     H_    0.977193 0.167181 0.958199 0.193585
H16   H     H_    0.868629 0.367658 0.934048 0.177559
H17   H     H_    0.833410 0.527087 0.899770 0.175225
H18   H     H_    0.995437 0.477704 0.904669 0.147188
H19   H     H_    0.888213 0.602746 0.311220 0.194502
H20   H     H_    0.710326 0.236148 0.642714 0.192633
H21   H     H_    0.883696 0.889240 0.739580 0.202024
H22   H     H_    0.717997 0.773083 0.622922 0.206464
H23   H     H_    0.339973 0.881166 0.381396 0.197677
H24   H     H_    0.637948 0.643814 0.127220 0.142476
H25   H     H_    0.110824 0.441773 0.710208 0.226688
N1    N     N_R   0.498810 0.498800 0.142780 -0.122846
N2    N     N_R   0.498760 0.498720 0.857170 -0.118796
O1    O     O_R   0.500000 0.316780 0.614690 -0.652540
O2    O     O_3   0.898066 0.143620 0.769340 -0.556911
O3    O     O_3   0.887731 0.419854 0.735467 -0.602543
O4    O     O_R   0.499990 0.316750 0.385360 -0.629610
O5    O     O_R   0.314800 0.499990 0.614670 -0.656501
O6    O     O_R   0.314790 0.499970 0.385330 -0.578787
O7    O     O_R   0.500010 0.683250 0.614640 -0.615944
O8    O     O_R   0.500000 0.683220 0.385310 -0.624998
O9    O     O_R   0.685210 0.500030 0.614670 -0.578152
O10   O     O_R   0.685200 0.500010 0.385330 -0.643023
O11   O     O_3   0.111641 0.599827 0.274721 -0.596113
Zn1   Zn    Zn3+2 0.500010 0.500020 0.653130 0.964274
Zn2   Zn    Zn3+2 0.499990 0.499980 0.346870 0.966933

loop_
_geom_bond_atom_site_label_1
_geom_bond_atom_site_label_2
_ccdc_geom_bond_type
C18   O10   A    
C23   H7    S    
C10   H4    S    
C19   C20   S    
C16   O7    A    
C4    O5    A    
C27   H16   S    
C21   F3    S    
C13   N2    A    
C21   O11   S    
C28   H8    S    
O7    Zn1   S    
C12   C28   S    
C2    C29   A    
C26   O2    S    
C6    H23   S    
C30   C31   A    
C4    C24   S    
C27   H17   S    
C22   F5    S    
C15   C17   A    
C31   H21   S    
C27   O3    S    
C20   F2    S    
C28   H12   S    
C19   H25   S    
C8    C9    A    
O9    Zn1   S    
O8    Zn2   S    
C11   H5    S    
C9    C10   A    
C25   H9    S    
C30   O2    S    
C18   O9    A    
C22   C28   S    
C13   C14   A    
O5    Zn1   S    
C7    C33   A    
O4    Zn2   S    
N1    Zn2   S    
N2    Zn1   S    
C16   O8    A    
C27   H18   S    
C22   F4    S    
C1    O4    A    
C1    C3    S    
C29   C30   A    
C26   H14   S    
C31   C32   A    
C12   C23   S    
C15   N1    A    
C14   N1    A    
C5    F1    S    
C12   C20   S    
C1    O1    A    
C25   H10   S    
C19   H1    S    
C2    C33   A    
C7    C16   S    
C21   C23   S    
C22   C24   S    
C32   H22   S    
C26   H15   S    
C23   H19   S    
O1    Zn1   S    
C8    C14   A    
C17   N2    A    
C20   O3    S    
C3    C5    A    
C6    C7    A    
C9    H3    S    
C25   O11   S    
C32   C33   A    
C2    C3    A    
C17   H6    S    
C26   H13   S    
C11   C13   A    
C5    C6    A    
C15   H24   S    
C19   C24   S    
O6    Zn2   S    
O10   Zn2   S    
C25   H11   S    
C10   C11   A    
C29   H20   S    
C21   C24   S    
C12   C18   S    
C8    H2    S    
C4    O6    A    
