data_mof_unit_14491.cif
_audit_creation_date              2012-12-10T19:47:48-0500
_audit_creation_method            fapswitch 2.2
_symmetry_space_group_name_H-M    P1
_symmetry_Int_Tables_number       1
_space_group_crystal_system       triclinic
_cell_length_a                    18.199149
_cell_length_b                    18.187803
_cell_length_c                    21.847669
_cell_angle_alpha                 91.437484
_cell_angle_beta                  88.659154
_cell_angle_gamma                 90.187968
_cell_volume                      7227.35222521

loop_
_atom_site_label
_atom_site_type_symbol
_atom_type_description
_atom_site_fract_x
_atom_site_fract_y
_atom_site_fract_z
_atom_type_partial_charge
C1    C     C_R   0.999919 0.358833 0.002545 0.954770
C2    C     C_1   0.282219 0.999478 0.997315 -0.200578
C3    C     C_3   0.313516 0.218007 0.860712 0.077955
C4    C     C_3   0.231239 0.204125 0.852373 -0.308520
C5    C     C_3   0.190094 0.201271 0.913950 -0.963460
C6    C     C_3   0.274847 0.498650 0.843720 0.114123
C7    C     C_3   0.263673 0.510082 0.913016 -0.329562
C8    C     C_3   0.276384 0.438954 0.946834 -0.959580
C9    C     C_3   0.679634 0.784730 0.851072 0.086105
C10   C     C_3   0.759402 0.811340 0.844343 -0.313358
C11   C     C_3   0.797002 0.814805 0.906127 -0.956368
C12   C     C_3   0.791392 0.693278 0.150780 0.087495
C13   C     C_1   0.999865 0.717816 0.998986 -0.196633
C14   C     C_3   0.813682 0.773852 0.161467 -0.319972
C15   C     C_3   0.817388 0.815172 0.101484 -0.938673
C16   C     C_3   0.260796 0.867270 0.141834 0.118225
C17   C     C_3   0.186125 0.837151 0.122710 -0.320588
C18   C     C_3   0.193536 0.787035 0.065844 -0.929324
C19   C     C_3   0.211471 0.309388 0.139745 0.078742
C20   C     C_3   0.186818 0.229149 0.145232 -0.304228
C21   C     C_3   0.184816 0.190477 0.082531 -0.941675
C22   C     C_3   0.786918 0.153810 0.198004 0.126017
C23   C     C_3   0.843298 0.177058 0.149070 -0.348724
C24   C     C_1   0.717815 0.000161 0.001263 -0.199140
C25   C     C_3   0.808108 0.187210 0.087107 -0.769112
C26   C     C_3   0.242795 0.865915 0.340319 0.119389
C27   C     C_3   0.199857 0.803331 0.370171 -0.343120
C28   C     C_3   0.250214 0.751877 0.404066 -0.762193
C29   C     C_3   0.813518 0.718012 0.360710 0.077953
C30   C     C_3   0.731242 0.704121 0.352370 -0.308514
C31   C     C_3   0.690096 0.701272 0.413948 -0.963464
C32   C     C_3   0.774822 0.998642 0.343744 0.114111
C33   C     C_3   0.763670 0.010112 0.413038 -0.329546
C34   C     C_3   0.776354 0.938994 0.446879 -0.959552
C35   C     C_1   0.499975 0.782267 0.503275 -0.186987
C36   C     C_3   0.179630 0.284728 0.351073 0.086105
C37   C     C_3   0.259398 0.311338 0.344345 -0.313358
C38   C     C_3   0.296997 0.314803 0.406129 -0.956370
C39   C     C_3   0.291390 0.193277 0.650780 0.087498
C40   C     C_3   0.313681 0.273851 0.661469 -0.319979
C41   C     C_3   0.317388 0.315172 0.601486 -0.938677
C42   C     C_3   0.760796 0.367270 0.641836 0.118224
C43   C     C_3   0.686123 0.337152 0.622713 -0.320584
C44   C     C_3   0.693533 0.287035 0.565848 -0.929325
C45   C     C_3   0.711473 0.809391 0.639744 0.078741
C46   C     C_1   0.782219 0.499478 0.497315 -0.200578
C47   C     C_3   0.686819 0.729153 0.645231 -0.304230
C48   C     C_3   0.684817 0.690481 0.582530 -0.941679
C49   C     C_3   0.286913 0.653820 0.697998 0.126019
C50   C     C_3   0.343291 0.677068 0.649064 -0.348730
C51   C     C_3   0.308102 0.687213 0.587100 -0.769114
C52   C     C_1   0.119828 0.619558 0.856293 0.240463
C53   C     C_1   0.508129 0.825824 0.834046 0.281668
C54   C     C_1   0.926472 0.355897 0.845045 0.257957
C55   C     C_1   0.485228 0.172258 0.839963 0.296458
C56   C     C_1   0.170765 0.481023 0.161531 0.300018
C57   C     C_1   0.499865 0.217816 0.498985 -0.196633
C58   C     C_1   0.627259 0.111356 0.135433 0.263045
C59   C     C_1   0.826191 0.518965 0.163928 0.295504
C60   C     C_1   0.344338 0.031745 0.151807 0.237647
C61   C     C_1   0.619826 0.119559 0.356290 0.240434
C62   C     C_1   0.008125 0.325824 0.334046 0.281666
C63   C     C_1   0.426468 0.855897 0.345045 0.257955
C64   C     C_1   0.985230 0.672258 0.339963 0.296456
C65   C     C_1   0.670765 0.981026 0.661531 0.300019
C66   C     C_1   0.127255 0.611360 0.635432 0.263049
C67   C     C_1   0.326191 0.018964 0.663928 0.295504
C68   C     C_1   0.217815 0.500161 0.501263 -0.199141
C69   C     C_1   0.844338 0.531744 0.651807 0.237647
C70   C     C_R   0.001513 0.498331 0.879297 0.897643
C71   C     C_R   0.498778 0.999348 0.879495 0.878586
C72   C     C_R   0.999271 0.499754 0.120498 0.877018
C73   C     C_R   0.358774 0.999780 0.997830 0.939815
C74   C     C_R   0.503218 0.001974 0.120068 0.891780
C75   C     C_R   0.501513 0.998330 0.379297 0.897644
C76   C     C_R   0.998778 0.499348 0.379495 0.878587
C77   C     C_R   0.499270 0.999755 0.620498 0.877020
C78   C     C_R   0.003218 0.501974 0.620068 0.891780
C79   C     C_R   0.128791 0.560490 0.811357 -0.132794
C80   C     C_R   0.557379 0.872728 0.799577 -0.192918
C81   C     C_R   0.901220 0.408355 0.801960 -0.168480
C82   C     C_R   0.436188 0.124838 0.805726 -0.191932
C83   C     C_R   0.121364 0.433264 0.195030 -0.197648
C84   C     C_R   0.000000 0.641329 0.000196 0.953817
C85   C     C_R   0.631459 0.062946 0.186443 -0.196030
C86   C     C_R   0.874739 0.565166 0.199718 -0.196956
C87   C     C_R   0.369873 0.977267 0.193119 -0.200332
C88   C     C_R   0.628789 0.060486 0.311358 -0.132790
C89   C     C_R   0.057376 0.372727 0.299577 -0.192915
C90   C     C_R   0.401218 0.908356 0.301960 -0.168480
C91   C     C_R   0.936189 0.624839 0.305725 -0.191931
C92   C     C_R   0.621365 0.933266 0.695030 -0.197645
C93   C     C_R   0.131458 0.562949 0.686442 -0.196027
C94   C     C_R   0.374739 0.065165 0.699719 -0.196957
C95   C     C_R   0.641339 0.000075 0.000229 0.936651
C96   C     C_R   0.869873 0.477267 0.693120 -0.200332
C97   C     C_R   0.197139 0.558803 0.780924 0.342909
C98   C     C_R   0.620261 0.839533 0.772253 0.389912
C99   C     C_R   0.835036 0.392318 0.772395 0.379428
C100  C     C_R   0.375094 0.159276 0.780362 0.386628
C101  C     C_R   0.153090 0.370649 0.220416 0.387732
C102  C     C_R   0.698230 0.066644 0.217438 0.393510
C103  C     C_R   0.843482 0.628600 0.227857 0.391609
C104  C     C_R   0.318184 0.928751 0.218905 0.377450
C105  C     C_R   0.697138 0.058795 0.280926 0.342910
C106  C     C_R   0.499919 0.858833 0.502545 0.954768
C107  C     C_R   0.120258 0.339531 0.272253 0.389911
C108  C     C_R   0.335034 0.892318 0.272394 0.379428
C109  C     C_R   0.875096 0.659278 0.280362 0.386630
C110  C     C_R   0.653092 0.870652 0.720415 0.387731
C111  C     C_R   0.198229 0.566651 0.717436 0.393494
C112  C     C_R   0.343480 0.128599 0.727857 0.391612
C113  C     C_R   0.818185 0.428751 0.718907 0.377451
C114  C     C_R   0.140782 0.999813 0.999347 0.919286
C115  C     C_R   0.999832 0.859228 0.999378 0.925194
C116  C     C_R   0.859222 0.999897 0.000590 0.925093
C117  C     C_R   0.858774 0.499779 0.497830 0.939816
C118  C     C_R   0.000057 0.140783 0.000729 0.921538
C119  C     C_R   0.640782 0.499813 0.499347 0.919288
C120  C     C_R   0.499832 0.359228 0.499378 0.925194
C121  C     C_R   0.359222 0.499897 0.500591 0.925095
C122  C     C_R   0.500057 0.640783 0.500729 0.921538
C123  C     C_R   0.067101 0.533821 0.716542 -0.058689
C124  C     C_R   0.552304 0.959292 0.718503 -0.045377
C125  C     C_R   0.940380 0.484537 0.718750 -0.038347
C126  C     C_R   0.442142 0.037486 0.721425 -0.047117
C127  C     C_R   0.033101 0.441510 0.278273 -0.046332
C128  C     C_R   0.500000 0.141329 0.500196 0.953821
C129  C     C_R   0.566690 0.031190 0.281031 -0.045002
C130  C     C_R   0.959851 0.555038 0.281683 -0.042757
C131  C     C_R   0.449213 0.963338 0.278908 -0.040261
C132  C     C_R   0.567100 0.033819 0.216542 -0.058690
C133  C     C_R   0.052303 0.459291 0.218504 -0.045377
C134  C     C_R   0.440379 0.984536 0.218750 -0.038346
C135  C     C_R   0.942142 0.537486 0.221425 -0.047116
C136  C     C_R   0.533102 0.941510 0.778273 -0.046332
C137  C     C_R   0.066691 0.531192 0.781031 -0.045003
C138  C     C_R   0.459851 0.055037 0.781684 -0.042756
C139  C     C_R   0.141339 0.500075 0.500229 0.936651
C140  C     C_R   0.949215 0.463338 0.778908 -0.040261
C141  C     C_R   0.002880 0.509525 0.685947 -0.080024
C142  C     C_R   0.497755 0.998675 0.686724 -0.101453
C143  C     C_R   0.996667 0.498325 0.313247 -0.101204
C144  C     C_R   0.506388 0.996853 0.312433 -0.115004
C145  C     C_R   0.502879 0.009524 0.185947 -0.080023
C146  C     C_R   0.997755 0.498675 0.186724 -0.101451
C147  C     C_R   0.496668 0.998325 0.813247 -0.101203
C148  C     C_R   0.006389 0.496854 0.812433 -0.115001
C149  C     C_1   0.000018 0.217342 0.002472 -0.204754
C150  C     C_1   0.999975 0.282267 0.003275 -0.186986
C151  C     C_1   0.217323 0.999534 0.997884 -0.191855
C152  C     C_1   0.999734 0.782693 0.998363 -0.198029
C153  C     C_1   0.782686 0.999992 0.001598 -0.188323
C154  C     C_1   0.500018 0.717342 0.502472 -0.204749
C155  C     C_1   0.717322 0.499534 0.497884 -0.191852
C156  C     C_1   0.499734 0.282693 0.498363 -0.198027
C157  C     C_1   0.282686 0.499992 0.501598 -0.188321
C158  C     C_3   0.742798 0.365914 0.840322 0.119388
C159  C     C_3   0.699862 0.303329 0.870174 -0.343123
C160  C     C_3   0.750222 0.251874 0.904067 -0.762188
H1    H     H_    0.702645 0.404615 0.821010 0.132665
H2    H     H_    0.207874 0.248807 0.825052 0.238536
H3    H     H_    0.673219 0.839521 0.610159 0.130132
H4    H     H_    0.725382 0.699626 0.674672 0.254739
H5    H     H_    0.630983 0.727093 0.666827 0.228288
H6    H     H_    0.646069 0.718836 0.552624 0.262292
H7    H     H_    0.666162 0.632843 0.587932 0.290900
H8    H     H_    0.740388 0.690074 0.560394 0.271071
H9    H     H_    0.314465 0.656737 0.742818 0.167762
H10   H     H_    0.240582 0.693949 0.699418 0.114216
H11   H     H_    0.368993 0.729958 0.663767 0.172249
H12   H     H_    0.387347 0.634986 0.644311 0.249813
H13   H     H_    0.223237 0.150974 0.827198 0.242355
H14   H     H_    0.282126 0.635207 0.571057 0.281483
H15   H     H_    0.350710 0.703308 0.552817 0.231332
H16   H     H_    0.265924 0.731205 0.590570 0.244856
H17   H     H_    0.211619 0.155941 0.941504 0.269958
H18   H     H_    0.130779 0.191245 0.906286 0.285547
H19   H     H_    0.196103 0.254246 0.939794 0.262170
H20   H     H_    0.333104 0.483186 0.834289 0.167148
H21   H     H_    0.241110 0.450826 0.827341 0.126309
H22   H     H_    0.302439 0.552973 0.929823 0.225187
H23   H     H_    0.206867 0.529099 0.923594 0.243727
H24   H     H_    0.236705 0.395988 0.931797 0.263010
H25   H     H_    0.774342 0.395833 0.876430 0.122777
H26   H     H_    0.268270 0.449144 0.996867 0.264300
H27   H     H_    0.333291 0.418838 0.937910 0.259265
H28   H     H_    0.679447 0.730767 0.873797 0.165781
H29   H     H_    0.647761 0.823060 0.882122 0.133494
H30   H     H_    0.790439 0.773270 0.812735 0.249631
H31   H     H_    0.760435 0.867074 0.824631 0.231401
H32   H     H_    0.766530 0.852154 0.938625 0.267506
H33   H     H_    0.853921 0.836010 0.900040 0.283482
H34   H     H_    0.799551 0.759143 0.925760 0.263352
H35   H     H_    0.738916 0.691692 0.125798 0.167643
H36   H     H_    0.658571 0.327043 0.903298 0.176462
H37   H     H_    0.832905 0.664724 0.120317 0.127886
H38   H     H_    0.773079 0.801264 0.193190 0.244657
H39   H     H_    0.868497 0.776380 0.182789 0.234086
H40   H     H_    0.857519 0.788612 0.068954 0.263501
H41   H     H_    0.835136 0.872779 0.110639 0.291062
H42   H     H_    0.762515 0.815967 0.080283 0.262108
H43   H     H_    0.296070 0.819577 0.153228 0.147043
H44   H     H_    0.286598 0.896675 0.102754 0.149393
H45   H     H_    0.161292 0.805514 0.160894 0.231349
H46   H     H_    0.148887 0.883424 0.112976 0.253730
H47   H     H_    0.670046 0.271365 0.834476 0.239845
H48   H     H_    0.214530 0.818664 0.026220 0.265458
H49   H     H_    0.139026 0.763685 0.054590 0.274717
H50   H     H_    0.231570 0.740897 0.074195 0.269040
H51   H     H_    0.266072 0.310430 0.115944 0.170167
H52   H     H_    0.173216 0.339517 0.110160 0.130129
H53   H     H_    0.225383 0.199623 0.174674 0.254737
H54   H     H_    0.130983 0.227089 0.166829 0.228290
H55   H     H_    0.146066 0.218832 0.052626 0.262292
H56   H     H_    0.166163 0.132839 0.087934 0.290901
H57   H     H_    0.240387 0.190072 0.060394 0.271072
H58   H     H_    0.790807 0.225628 0.871728 0.287027
H59   H     H_    0.814472 0.156722 0.242824 0.167763
H60   H     H_    0.740590 0.193942 0.199426 0.114212
H61   H     H_    0.869002 0.229946 0.163775 0.172247
H62   H     H_    0.887351 0.134974 0.144315 0.249815
H63   H     H_    0.782130 0.135205 0.071063 0.281482
H64   H     H_    0.850716 0.203306 0.052825 0.231331
H65   H     H_    0.765932 0.231202 0.090580 0.244855
H66   H     H_    0.202643 0.904617 0.321007 0.132665
H67   H     H_    0.274338 0.895834 0.376429 0.122777
H68   H     H_    0.158564 0.827045 0.403293 0.176463
H69   H     H_    0.716856 0.207993 0.925804 0.241868
H70   H     H_    0.170043 0.771367 0.334472 0.239847
H71   H     H_    0.290802 0.725631 0.371730 0.287027
H72   H     H_    0.216847 0.707996 0.425802 0.241870
H73   H     H_    0.279924 0.782768 0.440421 0.243883
H74   H     H_    0.820369 0.770281 0.387416 0.163029
H75   H     H_    0.837462 0.673901 0.388666 0.133523
H76   H     H_    0.707874 0.748796 0.325044 0.238543
H77   H     H_    0.723247 0.650965 0.327201 0.242344
H78   H     H_    0.711626 0.655950 0.441507 0.269958
H79   H     H_    0.630783 0.691239 0.406284 0.285546
H80   H     H_    0.779934 0.282765 0.940420 0.243884
H81   H     H_    0.696099 0.754252 0.439785 0.262170
H82   H     H_    0.833070 0.983145 0.334309 0.167144
H83   H     H_    0.741059 0.950826 0.327387 0.126311
H84   H     H_    0.802460 0.052992 0.429824 0.225182
H85   H     H_    0.706875 0.029161 0.423619 0.243722
H86   H     H_    0.736648 0.896042 0.431865 0.263014
H87   H     H_    0.768258 0.949213 0.496910 0.264304
H88   H     H_    0.833248 0.918846 0.437952 0.259246
H89   H     H_    0.179443 0.230765 0.373798 0.165781
H90   H     H_    0.147757 0.323058 0.382123 0.133495
H91   H     H_    0.320373 0.270273 0.887422 0.163033
H92   H     H_    0.290436 0.273268 0.312738 0.249631
H93   H     H_    0.260431 0.367072 0.324633 0.231401
H94   H     H_    0.266524 0.352152 0.438627 0.267507
H95   H     H_    0.353917 0.336008 0.400043 0.283481
H96   H     H_    0.299546 0.259141 0.425762 0.263352
H97   H     H_    0.238914 0.191691 0.625799 0.167643
H98   H     H_    0.332903 0.164724 0.620318 0.127886
H99   H     H_    0.273077 0.301262 0.693192 0.244655
H100  H     H_    0.368495 0.276379 0.682791 0.234085
H101  H     H_    0.357519 0.288612 0.568956 0.263502
H102  H     H_    0.337456 0.173890 0.888664 0.133523
H103  H     H_    0.335135 0.372779 0.610642 0.291060
H104  H     H_    0.262514 0.315966 0.580285 0.262109
H105  H     H_    0.796070 0.319577 0.653229 0.147043
H106  H     H_    0.786596 0.396676 0.602755 0.149393
H107  H     H_    0.661292 0.305514 0.660898 0.231349
H108  H     H_    0.648885 0.383424 0.612980 0.253729
H109  H     H_    0.714525 0.318664 0.526223 0.265457
H110  H     H_    0.639023 0.263684 0.554595 0.274716
H111  H     H_    0.731568 0.240897 0.574198 0.269039
H112  H     H_    0.766074 0.810433 0.615943 0.170169
N1    N     N_1   0.113839 0.668285 0.891044 -0.199829
N2    N     N_1   0.968769 0.287970 0.361342 -0.212156
N3    N     N_1   0.446444 0.811988 0.378061 -0.214753
N4    N     N_1   0.024309 0.710636 0.367093 -0.234492
N5    N     N_1   0.710690 0.019102 0.635013 -0.213921
N6    N     N_1   0.124873 0.653010 0.596349 -0.185697
N7    N     N_1   0.286934 0.982083 0.635597 -0.217914
N8    N     N_1   0.823195 0.576918 0.620406 -0.199759
N9    N     N_1   0.468774 0.787969 0.861342 -0.212152
N10   N     N_1   0.946449 0.311987 0.878059 -0.214753
N11   N     N_1   0.524307 0.210636 0.867093 -0.234492
N12   N     N_1   0.210691 0.519098 0.135013 -0.213912
N13   N     N_1   0.624877 0.153006 0.096350 -0.185695
N14   N     N_1   0.786934 0.482085 0.135597 -0.217914
N15   N     N_1   0.323195 0.076919 0.120405 -0.199759
N16   N     N_1   0.613835 0.168289 0.391038 -0.199840
O1    O     O_R   0.939380 0.392670 0.000020 -0.616570
O2    O     O_R   0.892670 0.560620 0.500020 -0.618650
O3    O     O_R   0.560620 0.107330 0.500020 -0.609371
O4    O     O_R   0.107330 0.439380 0.500020 -0.634819
O5    O     O_R   0.439380 0.107330 0.499980 -0.634670
O6    O     O_R   0.892670 0.439380 0.499980 -0.627455
O7    O     O_R   0.560620 0.892670 0.499980 -0.633829
O8    O     O_R   0.107330 0.560620 0.499980 -0.609161
O9    O     O_R   0.939380 0.500000 0.908420 -0.622898
O10   O     O_R   0.500000 0.060620 0.908420 -0.626166
O11   O     O_R   0.060620 0.500000 0.908420 -0.631852
O12   O     O_R   0.392670 0.060620 0.000020 -0.618650
O13   O     O_R   0.500000 0.939380 0.908420 -0.625803
O14   O     O_R   0.939380 0.500000 0.091580 -0.627449
O15   O     O_R   0.500000 0.939380 0.091580 -0.622412
O16   O     O_R   0.060620 0.500000 0.091580 -0.625340
O17   O     O_R   0.500000 0.060620 0.091580 -0.616995
O18   O     O_R   0.439380 0.000000 0.408420 -0.622898
O19   O     O_R   0.000000 0.560620 0.408420 -0.626166
O20   O     O_R   0.560620 0.000000 0.408420 -0.631839
O21   O     O_R   0.000000 0.439380 0.408420 -0.625803
O22   O     O_R   0.439380 0.000000 0.591580 -0.627449
O23   O     O_R   0.060620 0.607330 0.000020 -0.609367
O24   O     O_R   0.000000 0.439380 0.591580 -0.622412
O25   O     O_R   0.560620 0.000000 0.591580 -0.625337
O26   O     O_R   0.000000 0.560620 0.591580 -0.616996
O27   O     O_R   0.107300 0.999970 0.948290 -0.612570
O28   O     O_R   0.999970 0.892700 0.948290 -0.616888
O29   O     O_R   0.892700 0.000030 0.948290 -0.618270
O30   O     O_R   0.000030 0.107300 0.948290 -0.611117
O31   O     O_R   0.107300 0.000030 0.051710 -0.628176
O32   O     O_R   0.999970 0.107300 0.051710 -0.627259
O33   O     O_R   0.892700 0.999970 0.051710 -0.608683
O34   O     O_R   0.607330 0.939380 0.000020 -0.634818
O35   O     O_R   0.000030 0.892700 0.051710 -0.625036
O36   O     O_R   0.607300 0.499970 0.448290 -0.612570
O37   O     O_R   0.499970 0.392700 0.448290 -0.616886
O38   O     O_R   0.392700 0.500030 0.448290 -0.618270
O39   O     O_R   0.500030 0.607300 0.448290 -0.611118
O40   O     O_R   0.607300 0.500030 0.551710 -0.628175
O41   O     O_R   0.499970 0.607300 0.551710 -0.627259
O42   O     O_R   0.392700 0.499970 0.551710 -0.608683
O43   O     O_R   0.500030 0.392700 0.551710 -0.625037
O44   O     O_3   0.789121 0.336936 0.792925 -0.603585
O45   O     O_R   0.939380 0.607330 0.999980 -0.634672
O46   O     O_3   0.349535 0.226583 0.803108 -0.641234
O47   O     O_3   0.261509 0.565093 0.813206 -0.649814
O48   O     O_3   0.647712 0.773806 0.792952 -0.634137
O49   O     O_3   0.778726 0.658334 0.207335 -0.636288
O50   O     O_3   0.250768 0.916368 0.192498 -0.629094
O51   O     O_3   0.219776 0.342780 0.198481 -0.632512
O52   O     O_3   0.763211 0.080875 0.185255 -0.601304
O53   O     O_3   0.289118 0.836937 0.292924 -0.603585
O54   O     O_3   0.849538 0.726585 0.303106 -0.641235
O55   O     O_3   0.761508 0.065076 0.313208 -0.649809
O56   O     O_R   0.392670 0.939380 0.999980 -0.627455
O57   O     O_3   0.147708 0.273804 0.292953 -0.634138
O58   O     O_3   0.278724 0.158332 0.707336 -0.636288
O59   O     O_3   0.750768 0.416369 0.692500 -0.629094
O60   O     O_3   0.719778 0.842783 0.698480 -0.632513
O61   O     O_3   0.263209 0.580883 0.685252 -0.601310
O62   O     O_R   0.060620 0.392670 0.999980 -0.633820
O63   O     O_R   0.607330 0.060620 0.999980 -0.609161
O64   O     O_R   0.439380 0.892670 0.500020 -0.616567
Zn1   Zn    Zn3+2 0.919060 0.500000 0.000000 0.950979
Zn2   Zn    Zn3+2 0.000000 0.000000 0.069040 0.955008
Zn3   Zn    Zn3+2 0.500000 0.500000 0.430960 0.973616
Zn4   Zn    Zn3+2 0.500000 0.500000 0.569040 0.955005
Zn5   Zn    Zn3+2 0.500000 0.080940 0.000000 0.981775
Zn6   Zn    Zn3+2 0.080940 0.500000 0.000000 0.946699
Zn7   Zn    Zn3+2 0.500000 0.919060 0.000000 0.957873
Zn8   Zn    Zn3+2 0.419060 0.000000 0.500000 0.950981
Zn9   Zn    Zn3+2 0.000000 0.580940 0.500000 0.981773
Zn10  Zn    Zn3+2 0.580940 0.000000 0.500000 0.946687
Zn11  Zn    Zn3+2 0.000000 0.419060 0.500000 0.957872
Zn12  Zn    Zn3+2 0.000000 0.000000 0.930960 0.973615

loop_
_geom_bond_atom_site_label_1
_geom_bond_atom_site_label_2
_ccdc_geom_bond_type
C54   N10   T    
C38   H96   S    
O18   Zn8   S    
C117  O2    A    
C19   C20   S    
C35   C154  T    
C57   C128  S    
C56   N12   T    
C46   C155  T    
C17   H46   S    
C18   H50   S    
C89   C127  A    
C47   H5    S    
C11   H32   S    
C134  C145  A    
C112  O58   S    
C5    H19   S    
C31   H79   S    
C60   C87   S    
C128  O3    A    
C108  O53   S    
C34   H86   S    
C67   C94   S    
C36   H90   S    
C50   H11   S    
C42   H106  S    
O28   Zn12  S    
C104  O50   S    
C131  C134  A    
C101  O51   S    
C55   N11   T    
C9    H29   S    
C122  O41   A    
C12   O49   S    
C45   C47   S    
C8    H27   S    
C19   H52   S    
C127  C133  A    
C78   C141  S    
C115  O35   A    
C1    O62   A    
C81   C99   A    
C3    O46   S    
C118  O32   A    
C46   C117  S    
C118  C149  S    
C43   C44   S    
O24   Zn11  S    
C37   C38   S    
O21   Zn11  S    
C23   H62   S    
C26   H67   S    
C135  C146  A    
C123  C141  A    
C26   C27   S    
C21   H56   S    
C1    O1    A    
C1    C150  S    
C127  C143  A    
C74   O17   A    
C90   C131  A    
O37   Zn3   S    
C63   N3    T    
C38   H94   S    
C4    H13   S    
C158  C159  S    
C70   C148  S    
C158  H25   S    
O56   Zn7   S    
C56   C83   S    
C42   O59   S    
O40   Zn4   S    
C120  O43   A    
C32   H82   S    
O2    Zn9   S    
C79   C97   A    
C93   C123  A    
C4    C5    S    
C159  H47   S    
C6    C7    S    
C14   H39   S    
C10   H31   S    
C7    H23   S    
C92   C124  A    
C45   H3    S    
C82   C138  A    
C75   O20   A    
C25   H65   S    
C51   H16   S    
C20   C21   S    
C22   C23   S    
C114  O31   A    
C64   C91   S    
C16   H44   S    
C54   C81   S    
O8    Zn9   S    
C9    O48   S    
C11   H33   S    
C81   C140  A    
C71   C147  S    
C22   H59   S    
C78   O26   A    
C137  C148  A    
C106  O7    A    
C16   O50   S    
C40   H100  S    
C7    C8    S    
C129  C144  A    
C118  O30   A    
C13   C84   S    
C102  C105  A    
C132  C145  A    
C36   C37   S    
C3    H91   S    
O31   Zn2   S    
C49   H10   S    
C72   C146  S    
C121  O38   A    
O30   Zn12  S    
C119  O40   A    
C62   N2    T    
O29   Zn12  S    
C29   H75   S    
O13   Zn7   S    
C160  H58   S    
C125  C141  A    
C70   O11   A    
C52   C79   S    
C9    C10   S    
C28   H72   S    
C120  O37   A    
O20   Zn10  S    
C21   H57   S    
O4    Zn11  S    
C87   C134  A    
C6    O47   S    
C88   C129  A    
C116  O33   A    
C15   H41   S    
O11   Zn6   S    
C125  C140  A    
C57   C156  T    
C53   C80   S    
C39   C40   S    
C75   O18   A    
O42   Zn4   S    
C8    H26   S    
O39   Zn3   S    
C84   O45   A    
C20   H54   S    
C36   O57   S    
C51   H14   S    
C43   H107  S    
C29   C30   S    
C39   H98   S    
C72   O14   A    
C110  O60   S    
C5    H17   S    
C17   C18   S    
C115  O28   A    
C2    C73   S    
C66   C93   S    
C31   H78   S    
C78   O24   A    
O64   Zn8   S    
C67   N7    T    
C3    C4    S    
C100  O46   S    
C83   C101  A    
C6    H20   S    
O34   Zn7   S    
C41   H104  S    
O5    Zn8   S    
C53   N9    T    
C99   O44   S    
C123  C137  A    
C39   O58   S    
O27   Zn12  S    
C17   H45   S    
O36   Zn3   S    
C90   C108  A    
O3    Zn10  S    
C15   H40   S    
C92   C110  A    
C48   H7    S    
C94   C112  A    
O43   Zn4   S    
C70   O9    A    
C38   H95   S    
C5    H18   S    
C10   C11   S    
C86   C135  A    
C49   C50   S    
C34   H87   S    
C14   C15   S    
C50   H12   S    
C30   H76   S    
C32   O55   S    
C84   O23   A    
C85   C102  A    
C44   H109  S    
C22   O52   S    
C45   H112  S    
O10   Zn5   S    
C98   C110  A    
O41   Zn4   S    
C130  C135  A    
C9    H28   S    
C98   O48   S    
C29   O54   S    
C19   H51   S    
C72   O16   A    
C30   C31   S    
C97   C111  A    
C62   C89   S    
C120  C156  S    
C25   H64   S    
C61   N16   T    
O6    Zn11  S    
C74   C145  S    
C158  H1    S    
C95   O63   A    
C23   H61   S    
C16   C17   S    
C21   H55   S    
C33   H85   S    
C129  C132  A    
O25   Zn10  S    
C114  C151  S    
C139  O4    A    
C121  O42   A    
C95   O34   A    
C128  O5    A    
C124  C136  A    
C18   H49   S    
C24   C95   S    
C69   N8    T    
C126  C142  A    
C106  O64   A    
C122  O39   A    
C27   H70   S    
C159  C160  S    
C3    H102  S    
C89   C107  A    
C36   H89   S    
C42   H105  S    
C51   H15   S    
C116  C153  S    
C93   C111  A    
C44   H111  S    
C100  C112  A    
C37   H93   S    
C65   N5    T    
C12   H35   S    
C4    H2    S    
C96   C113  A    
C42   C43   S    
C68   C157  T    
C104  C108  A    
C77   O25   A    
C24   C153  T    
C2    C151  T    
C45   O60   S    
C22   H60   S    
C80   C98   A    
C31   H81   S    
C71   O13   A    
C13   C152  T    
C99   C113  A    
O12   Zn5   S    
C37   H92   S    
C80   C136  A    
C60   N15   T    
C117  O6    A    
C103  C109  A    
C32   C33   S    
C103  O49   S    
C41   H101  S    
C149  C150  T    
C97   O47   S    
C49   H9    S    
C139  O8    A    
C26   H66   S    
C19   O51   S    
O1    Zn1   S    
C29   H74   S    
C71   O10   A    
C75   C144  S    
C87   C104  A    
C76   C143  S    
C48   H6    S    
O62   Zn6   S    
C160  H69   S    
C68   C139  S    
C133  C146  A    
C107  O57   S    
C131  C144  A    
O7    Zn10  S    
C73   O56   A    
C88   C105  A    
C11   H34   S    
C69   C96   S    
C140  C148  A    
C91   C130  A    
C64   N4    T    
C14   H38   S    
O23   Zn6   S    
C10   H30   S    
O22   Zn8   S    
O33   Zn2   S    
C85   C132  A    
O17   Zn5   S    
C27   H68   S    
C18   H48   S    
C77   C142  S    
C39   H97   S    
O35   Zn2   S    
C113  O59   S    
C115  C152  S    
C12   H37   S    
O45   Zn1   S    
C105  O55   S    
C16   H43   S    
C28   H73   S    
C76   O19   A    
C8    H24   S    
O32   Zn2   S    
C77   O22   A    
C121  C157  S    
C73   O12   A    
C122  C154  S    
C124  C142  A    
C26   O53   S    
C86   C103  A    
C40   H99   S    
C50   C51   S    
C94   C126  A    
C159  H36   S    
C59   N14   T    
O15   Zn7   S    
C6    H21   S    
C41   H103  S    
C49   O61   S    
C74   O15   A    
C61   C88   S    
C47   C48   S    
C48   H8    S    
C138  C147  A    
O19   Zn9   S    
O16   Zn6   S    
C33   C34   S    
C25   H63   S    
C55   C82   S    
C130  C143  A    
C28   H71   S    
C102  O52   S    
C65   C92   S    
C40   C41   S    
O14   Zn1   S    
C12   C14   S    
C32   H83   S    
C34   H88   S    
C47   H4    S    
C30   H77   S    
C58   C85   S    
C27   C28   S    
C15   H42   S    
O38   Zn3   S    
C44   H110  S    
C109  O54   S    
C126  C138  A    
C119  C155  S    
C160  H80   S    
C7    H22   S    
C79   C137  A    
C82   C100  A    
C114  O27   A    
C116  O29   A    
C52   N1    T    
C158  O44   S    
O26   Zn9   S    
C20   H53   S    
C91   C109  A    
C59   C86   S    
C43   H108  S    
C35   C106  S    
C63   C90   S    
C96   C125  A    
C66   N6    T    
O9    Zn1   S    
C23   C25   S    
C83   C133  A    
C136  C147  A    
C76   O21   A    
C119  O36   A    
C111  O61   S    
C101  C107  A    
C33   H84   S    
O63   Zn5   S    
C58   N13   T    
