data_mof_unit_51533.cif
_audit_creation_date              2012-12-10T19:31:24-0500
_audit_creation_method            fapswitch 2.2
_symmetry_space_group_name_H-M    P1
_symmetry_Int_Tables_number       1
_space_group_crystal_system       triclinic
_cell_length_a                    19.025803
_cell_length_b                    15.740376
_cell_length_c                    14.927913
_cell_angle_alpha                 90.120454
_cell_angle_beta                  89.622377
_cell_angle_gamma                 90.123532
_cell_volume                      4470.39403071

loop_
_atom_site_label
_atom_site_type_symbol
_atom_type_description
_atom_site_fract_x
_atom_site_fract_y
_atom_site_fract_z
_atom_type_partial_charge
C1    C     C_R   0.499592 0.337573 0.499971 0.908885
C2    C     C_R   0.501216 0.662336 0.500086 0.890324
C3    C     C_3   0.498307 0.972162 0.587933 0.035701
C4    C     C_3   0.496965 0.027129 0.415072 0.032248
C5    C     C_3   0.555140 0.028079 0.542882 0.179482
C6    C     C_3   0.440127 0.971190 0.460154 0.184357
C7    C     C_1   0.498222 0.248948 0.500209 -0.190765
C8    C     C_1   0.500244 0.750797 0.500476 -0.203460
C9    C     C_3   0.440187 0.026699 0.544848 0.193572
C10   C     C_3   0.555054 0.972660 0.458196 0.193739
C11   C     C_3   0.497081 0.083157 0.500823 -0.078478
C12   C     C_3   0.498179 0.916306 0.502195 -0.076082
C13   C     C_1   0.497301 0.173869 0.500745 -0.056555
C14   C     C_1   0.499182 0.825764 0.501204 -0.052005
C15   C     C_3   0.522336 0.425659 0.969529 0.173393
C16   C     C_3   0.477109 0.574409 0.030432 0.173610
C17   C     C_3   0.565714 0.486472 0.029295 -0.197937
C18   C     C_3   0.433744 0.513586 0.970638 -0.197142
C19   C     C_3   0.456937 0.437836 0.030385 -0.196681
C20   C     C_3   0.542510 0.562244 0.969577 -0.196689
C21   C     C_3   0.500053 0.499519 0.089469 0.056318
C22   C     C_3   0.499428 0.500564 0.910498 0.056999
C23   C     C_R   0.365233 0.503372 0.500445 0.878270
C24   C     C_R   0.634984 0.498312 0.499540 0.882038
C25   C     C_1   0.500085 0.499687 0.189743 0.024611
C26   C     C_1   0.499662 0.500372 0.810246 0.025896
C27   C     C_R   0.263090 0.596901 0.538818 0.058334
C28   C     C_R   0.754795 0.452185 0.447841 0.067522
C29   C     C_R   0.189670 0.611005 0.535584 0.070794
C30   C     C_R   0.828311 0.467178 0.448678 0.076217
C31   C     C_R   0.146400 0.548516 0.495578 -0.044545
C32   C     C_R   0.854602 0.538650 0.496453 -0.046688
C33   C     C_R   0.174385 0.473890 0.456803 0.239397
C34   C     C_R   0.810012 0.593629 0.544947 0.228088
C35   C     C_R   0.246889 0.461464 0.460167 -0.258601
C36   C     C_R   0.738368 0.575158 0.546831 -0.247519
C37   C     C_R   0.290375 0.520773 0.501316 -0.128295
C38   C     C_R   0.710947 0.506912 0.498530 -0.130648
C39   C     C_R   0.929783 0.552509 0.500807 0.265079
C40   C     C_R   0.070701 0.556926 0.500108 0.274437
H1    H     H_    0.577240 0.613973 0.944784 0.133909
H2    H     H_    0.422138 0.386179 0.055182 0.132754
H3    H     H_    0.270690 0.405270 0.431264 0.156030
H4    H     H_    0.702298 0.615403 0.583698 0.164944
H5    H     H_    0.619948 0.474697 0.053183 0.132054
H6    H     H_    0.379523 0.525257 0.946645 0.131709
N1    N     N_R   0.034677 0.587326 0.429189 -0.194726
N2    N     N_R   0.965814 0.523731 0.572404 -0.163125
N3    N     N_R   0.964923 0.585180 0.429593 -0.187979
N4    N     N_R   0.035506 0.525821 0.571997 -0.165367
N5    N     N_1   0.500020 0.500000 0.268010 -0.092092
N6    N     N_1   0.499980 0.500000 0.731990 -0.091989
O1    O     O_R   0.500000 0.376780 0.574460 -0.610066
O2    O     O_R   0.500000 0.623220 0.425540 -0.605846
O3    O     O_R   0.500010 0.376780 0.425520 -0.613752
O4    O     O_R   0.499990 0.623220 0.574480 -0.616651
O5    O     O_R   0.398130 0.499990 0.574490 -0.615270
O6    O     O_R   0.601870 0.500010 0.425510 -0.616346
O7    O     O_R   0.398140 0.499990 0.425550 -0.609119
O8    O     O_R   0.601860 0.500010 0.574450 -0.612859
Zn1   Zn    Zn3+2 0.499990 0.500000 0.599450 0.956780
Zn2   Zn    Zn3+2 0.500010 0.500000 0.400550 0.961000
C41   C     C_3   0.312341 0.664188 0.577144 -0.399503
C42   C     C_3   0.321211 0.654550 0.678883 -0.306092
C43   C     C_3   0.366429 0.726042 0.717007 -0.900462
H7    H     H_    0.419404 0.725699 0.685397 0.278917
H8    H     H_    0.341166 0.788522 0.705103 0.254023
H9    H     H_    0.372512 0.717170 0.790263 0.241651
H10   H     H_    0.269291 0.655298 0.713204 0.205071
H11   H     H_    0.346413 0.592884 0.694445 0.246724
H12   H     H_    0.364349 0.660968 0.544073 0.194631
H13   H     H_    0.293755 0.729029 0.560860 0.201299
C44   C     C_3   0.722993 0.377168 0.396846 -0.438148
C45   C     C_3   0.702268 0.304822 0.460473 -0.334434
C46   C     C_3   0.671235 0.229970 0.408929 -0.898158
H14   H     H_    0.624111 0.250228 0.371053 0.266055
H15   H     H_    0.710763 0.203415 0.361547 0.258758
H16   H     H_    0.655393 0.179525 0.456679 0.274586
H17   H     H_    0.749393 0.282871 0.497396 0.222667
H18   H     H_    0.662777 0.327255 0.510204 0.215824
H19   H     H_    0.676879 0.397782 0.357685 0.224486
H20   H     H_    0.758883 0.351610 0.344973 0.205836
C47   C     C_3   0.157049 0.693167 0.571052 -0.421886
C48   C     C_3   0.150034 0.758746 0.495723 -0.337360
C49   C     C_3   0.122785 0.843409 0.531586 -0.881679
H21   H     H_    0.070401 0.834777 0.563637 0.265410
H22   H     H_    0.160008 0.870183 0.581315 0.259987
H23   H     H_    0.117667 0.889154 0.475495 0.250011
H24   H     H_    0.201864 0.769527 0.462874 0.218838
H25   H     H_    0.113126 0.734724 0.444151 0.238967
H26   H     H_    0.104616 0.680910 0.601509 0.208859
H27   H     H_    0.187914 0.720637 0.626640 0.206778
C50   C     C_3   0.879125 0.405715 0.402603 -0.409400
C51   C     C_3   0.889965 0.428598 0.303493 -0.338735
C52   C     C_3   0.937060 0.363859 0.256427 -0.885610
H28   H     H_    0.989320 0.361438 0.289021 0.264005
H29   H     H_    0.912506 0.299799 0.258692 0.259546
H30   H     H_    0.944533 0.382378 0.185264 0.252737
H31   H     H_    0.838826 0.431288 0.268248 0.214104
H32   H     H_    0.914718 0.492286 0.297914 0.243114
H33   H     H_    0.931009 0.405157 0.436145 0.213365
H34   H     H_    0.860596 0.339170 0.409912 0.199686
N7    N     N_2   0.128332 0.411962 0.417223 -0.295778
H35   H     H_    0.085797 0.435967 0.383277 0.234583
C53   C     C_3   0.156402 0.334628 0.378511 -0.811348
H36   H     H_    0.112475 0.293815 0.355139 0.238067
H37   H     H_    0.185993 0.298353 0.429603 0.248267
H38   H     H_    0.190696 0.349759 0.320149 0.239671
N8    N     N_2   0.838502 0.665479 0.592290 -0.291209
H39   H     H_    0.884703 0.690223 0.566895 0.231567
C54   C     C_3   0.791969 0.729619 0.629077 -0.807299
H40   H     H_    0.823544 0.781087 0.660261 0.239498
H41   H     H_    0.758054 0.701894 0.682351 0.247293
H42   H     H_    0.759442 0.757748 0.575202 0.235028
N9    N     N_2   0.616664 0.064914 0.584760 -0.305245
H43   H     H_    0.606035 0.117603 0.623612 0.227923
C55   C     C_3   0.665320 0.006527 0.625873 -0.821208
H44   H     H_    0.717720 0.037268 0.630408 0.244409
H45   H     H_    0.670845 0.947392 0.585933 0.248705
H46   H     H_    0.647590 0.990378 0.694668 0.240149
N10   N     N_2   0.378665 0.933712 0.418711 -0.297456
H47   H     H_    0.389469 0.880895 0.380131 0.226323
C56   C     C_3   0.329811 0.991592 0.377209 -0.824674
H48   H     H_    0.277624 0.960346 0.372337 0.244043
H49   H     H_    0.347755 0.007901 0.308543 0.239758
H50   H     H_    0.323744 0.050668 0.417113 0.249043
C57   C     C_3   0.500219 0.934026 0.682208 -0.379293
C58   C     C_3   0.494204 0.002290 0.755250 -0.333373
C59   C     C_3   0.500126 0.963053 0.848252 -0.911208
H51   H     H_    0.458454 0.914442 0.858225 0.267485
H52   H     H_    0.552423 0.932923 0.856492 0.263921
H53   H     H_    0.493799 0.013180 0.900106 0.253498
H54   H     H_    0.536320 0.050568 0.746890 0.224944
H55   H     H_    0.442779 0.035053 0.750375 0.248704
H56   H     H_    0.456598 0.887651 0.689492 0.199200
H57   H     H_    0.549973 0.898137 0.689808 0.204071
C60   C     C_3   0.495156 0.064982 0.320661 -0.377752
C61   C     C_3   0.501141 0.996435 0.247888 -0.333010
C62   C     C_3   0.494724 0.035198 0.154720 -0.912313
H58   H     H_    0.442262 0.064942 0.146618 0.263726
H59   H     H_    0.536155 0.084013 0.144220 0.265294
H60   H     H_    0.501093 0.984873 0.103096 0.253240
H61   H     H_    0.552696 0.963954 0.252608 0.248946
H62   H     H_    0.459231 0.947970 0.256729 0.225123
H63   H     H_    0.445377 0.100802 0.312923 0.203930
H64   H     H_    0.538829 0.111356 0.313240 0.197415
N11   N     N_2   0.615757 0.936588 0.412905 -0.302517
H65   H     H_    0.636817 0.885067 0.445609 0.225360
C63   C     C_3   0.668437 0.996060 0.381687 -0.802765
H66   H     H_    0.707286 0.962006 0.339099 0.236857
H67   H     H_    0.696596 0.024908 0.439016 0.265041
H68   H     H_    0.644494 0.046783 0.340811 0.250055
N12   N     N_2   0.379202 0.061995 0.590159 -0.303143
H69   H     H_    0.357834 0.113348 0.557498 0.224928
C64   C     C_3   0.326924 0.001711 0.620950 -0.794631
H70   H     H_    0.287329 0.035241 0.662881 0.234232
H71   H     H_    0.351089 0.951530 0.662327 0.243485
H72   H     H_    0.299568 0.971984 0.563473 0.265012
C65   C     C_3   0.547919 0.340639 0.932226 -0.432025
C66   C     C_3   0.567536 0.279022 0.007268 -0.343688
C67   C     C_3   0.592750 0.194378 0.968885 -0.879960
H73   H     H_    0.550130 0.163510 0.929992 0.263190
H74   H     H_    0.639163 0.204290 0.924561 0.263193
H75   H     H_    0.608122 0.151511 0.024300 0.246151
H76   H     H_    0.610124 0.307035 0.048604 0.220083
H77   H     H_    0.521116 0.267325 0.051187 0.221126
H78   H     H_    0.505515 0.312489 0.890708 0.203848
H79   H     H_    0.594467 0.352412 0.888590 0.203529
C68   C     C_3   0.451604 0.659517 0.067587 -0.428864
C69   C     C_3   0.428160 0.719145 0.992597 -0.349076
C70   C     C_3   0.404263 0.804530 0.030451 -0.878718
H80   H     H_    0.360434 0.795384 0.079036 0.263532
H81   H     H_    0.448623 0.836964 0.064476 0.263079
H82   H     H_    0.385493 0.845559 0.975214 0.246613
H83   H     H_    0.472293 0.729977 0.944756 0.222855
H84   H     H_    0.383750 0.689793 0.955664 0.217869
H85   H     H_    0.406860 0.647582 0.114149 0.202979
H86   H     H_    0.495053 0.689340 0.105955 0.204036

loop_
_geom_bond_atom_site_label_1
_geom_bond_atom_site_label_2
_ccdc_geom_bond_type
O6    Zn2   S    
C40   N1    A    
C70   H80   S    
C16   C21   S    
C64   H71   S    
C11   C13   S    
C68   C69   S    
C44   H20   S    
C52   H28   S    
C58   C59   S    
C6    C9    S    
C20   H1    S    
C52   H30   S    
C56   H48   S    
N1    N3    A    
C69   H84   S    
C49   H21   S    
C65   H79   S    
C15   C19   S    
C47   H27   S    
C53   H37   S    
C50   C51   S    
C47   C48   S    
C60   H63   S    
C35   C37   A    
C17   H5    S    
C5    C11   S    
C30   C50   S    
C26   N6    T    
N6    Zn1   S    
N8    C54   S    
C6    C12   S    
C62   H60   S    
C3    C57   S    
C56   H49   S    
C27   C29   A    
C69   C70   S    
N9    H43   S    
O3    Zn2   S    
C17   C20   S    
C31   C40   S    
C23   O5    A    
C18   C19   S    
C44   C45   S    
C32   C39   S    
C44   H19   S    
C1    O1    A    
C3    C12   S    
C67   H74   S    
C4    C60   S    
O1    Zn1   S    
C16   C68   S    
C15   C22   S    
C54   H41   S    
N11   H65   S    
N9    C55   S    
C24   C38   S    
C31   C33   A    
C42   H11   S    
N12   C64   S    
C35   H3    S    
C19   H2    S    
C24   O8    A    
C10   N11   S    
C59   H53   S    
N2    N4    A    
C9    N12   S    
N12   H69   S    
C33   N7    S    
C5    N9    S    
C64   H72   S    
N5    Zn2   S    
C48   H25   S    
C29   C47   S    
C28   C44   S    
C18   H6    S    
C68   H85   S    
C53   H38   S    
C67   H73   S    
C69   H83   S    
C49   H22   S    
C70   H82   S    
C45   C46   S    
C60   H64   S    
C48   C49   S    
C4    C6    S    
C2    O2    A    
C55   H46   S    
C50   H33   S    
C55   H45   S    
C56   H50   S    
O2    Zn2   S    
C43   H8    S    
C23   C37   S    
C66   H76   S    
C17   C21   S    
O8    Zn1   S    
C32   C34   A    
C23   O7    A    
C46   H14   S    
C25   N5    T    
C15   C65   S    
C3    C9    S    
C58   H55   S    
C70   H81   S    
C58   H54   S    
C65   C66   S    
C51   H32   S    
C16   C20   S    
C43   H9    S    
N7    C53   S    
C42   H10   S    
C57   H57   S    
C4    C11   S    
C46   H15   S    
N10   H47   S    
C10   C12   S    
C2    O4    A    
C16   C18   S    
C39   N3    A    
C41   H12   S    
C66   H77   S    
C45   H17   S    
C9    C11   S    
C63   H68   S    
C48   H24   S    
C20   C22   S    
C4    C10   S    
C57   C58   S    
C68   H86   S    
N7    H35   S    
C67   H75   S    
C59   H51   S    
C53   H36   S    
C49   H23   S    
C15   C17   S    
C21   C25   S    
O7    Zn2   S    
C8    C14   T    
C54   H40   S    
N11   C63   S    
C18   C22   S    
C2    C8    S    
C12   C14   S    
C3    C5    S    
C50   H34   S    
C62   H58   S    
C52   H29   S    
O5    Zn1   S    
C47   H26   S    
C60   C61   S    
C61   H61   S    
C66   C67   S    
C63   H67   S    
C1    O3    A    
C5    C10   S    
C29   C31   A    
C61   H62   S    
C63   H66   S    
C42   C43   S    
C36   C38   A    
C30   C32   A    
C62   H59   S    
C51   H31   S    
C27   C37   A    
C40   N4    A    
C28   C30   A    
C33   C35   A    
C65   H78   S    
C54   H42   S    
C34   C36   A    
C51   C52   S    
C57   H56   S    
C46   H16   S    
N10   C56   S    
C36   H4    S    
C61   C62   S    
C41   C42   S    
C7    C13   T    
C41   H13   S    
C24   O6    A    
C43   H7    S    
C22   C26   S    
N8    H39   S    
C64   H70   S    
C34   N8    S    
O4    Zn1   S    
C27   C41   S    
C1    C7    S    
C45   H18   S    
C6    N10   S    
C59   H52   S    
C28   C38   A    
C55   H44   S    
C39   N2    A    
C19   C21   S    
