data_mof_unit_47854.cif
_audit_creation_date              2012-12-10T17:33:52-0500
_audit_creation_method            fapswitch 2.2
_symmetry_space_group_name_H-M    P1
_symmetry_Int_Tables_number       1
_space_group_crystal_system       triclinic
_cell_length_a                    10.646135
_cell_length_b                    12.025574
_cell_length_c                    12.880912
_cell_angle_alpha                 94.029535
_cell_angle_beta                  89.865817
_cell_angle_gamma                 86.981494
_cell_volume                      1642.70098393

loop_
_atom_site_label
_atom_site_type_symbol
_atom_type_description
_atom_site_fract_x
_atom_site_fract_y
_atom_site_fract_z
_atom_type_partial_charge
C1    C     C_R   0.492328 0.522228 0.700335 0.892124
C2    C     C_3   0.120543 0.499728 0.497290 0.167811
C3    C     C_3   0.072969 0.439743 0.394408 -0.056398
C4    C     C_3   0.063822 0.622474 0.504861 -0.437484
C5    C     C_R   0.496737 0.463730 0.189233 -0.042349
C6    C     C_R   0.486046 0.536400 0.812327 -0.119491
C7    C     C_R   0.556704 0.636236 0.969029 -0.006018
C8    C     C_R   0.542972 0.627632 0.861721 -0.283114
C9    C     C_R   0.433094 0.455005 0.870126 -0.094110
C10   C     C_R   0.453004 0.458723 0.977333 0.124587
C11   C     C_R   0.517473 0.548398 0.026539 0.110303
C12   C     C_R   0.741906 0.501113 0.500746 0.841936
C13   C     C_R   0.541781 0.547340 0.132217 -0.277974
C14   C     C_R   0.432145 0.376679 0.141961 -0.227775
C15   C     C_R   0.410988 0.373491 0.036550 -0.204833
C16   C     C_R   0.399089 0.949262 0.391718 -0.335498
C17   C     C_R   0.406452 0.834606 0.403404 0.005252
C18   C     C_R   0.540478 0.860259 0.549200 -0.049058
C19   C     C_R   0.535660 0.976820 0.540701 0.055176
C20   C     C_R   0.464438 0.021683 0.460488 0.117073
C21   C     C_R   0.462452 0.137671 0.449327 0.172305
C22   C     C_R   0.594641 0.164425 0.596053 -0.014647
C23   C     C_R   0.502764 0.477553 0.299965 0.875703
C24   C     C_R   0.602075 0.048992 0.608251 -0.362593
C25   C     C_R   0.257597 0.499358 0.498299 0.846789
C26   C     C_3   0.931270 0.440004 0.592246 -0.424453
C27   C     C_3   0.074706 0.443013 0.593314 -0.399775
C28   C     C_3   0.927695 0.443437 0.395609 -0.435834
C29   C     C_3   0.920858 0.623916 0.508429 -0.406175
C30   C     C_3   0.877758 0.502449 0.499391 0.175188
H1    H     H_    0.904948 0.351393 0.585937 0.181527
H2    H     H_    0.093470 0.666767 0.436477 0.177700
H3    H     H_    0.891199 0.489622 0.329039 0.144822
H4    H     H_    0.104352 0.486419 0.328040 0.132175
H5    H     H_    0.594159 0.612323 0.171828 0.165546
H6    H     H_    0.393346 0.313834 0.186805 0.150286
H7    H     H_    0.360255 0.304312 0.002905 0.158653
H8    H     H_    0.579295 0.691526 0.816203 0.163278
H9    H     H_    0.891862 0.479293 0.667025 0.153813
H10   H     H_    0.646105 0.219610 0.648211 0.132066
H11   H     H_    0.342802 0.980323 0.329008 0.164279
H12   H     H_    0.658870 0.016653 0.670134 0.149612
H13   H     H_    0.356782 0.779091 0.350155 0.132111
H14   H     H_    0.596023 0.823468 0.609542 0.119702
H15   H     H_    0.104115 0.491069 0.665255 0.163426
H16   H     H_    0.117033 0.356715 0.594568 0.202743
H17   H     H_    0.892448 0.357837 0.385040 0.175672
H18   H     H_    0.882360 0.671381 0.443330 0.186800
H19   H     H_    0.886031 0.667913 0.582778 0.172537
H20   H     H_    0.097895 0.669277 0.576132 0.185957
N1    N     N_R   0.523380 0.207800 0.519350 -0.108477
N2    N     N_R   0.476620 0.792180 0.480650 -0.097245
O1    O     O_R   0.506240 0.421700 0.658830 -0.618313
O2    O     O_R   0.491240 0.609310 0.646410 -0.625535
O3    O     O_R   0.692710 0.406190 0.506230 -0.629758
O4    O     O_R   0.677700 0.593810 0.493810 -0.628955
O5    O     O_R   0.508760 0.390690 0.353590 -0.643019
O6    O     O_R   0.493760 0.578300 0.341170 -0.624498
O7    O     O_R   0.322300 0.406190 0.506190 -0.613579
O8    O     O_R   0.307290 0.593810 0.493770 -0.637544
Zn1   Zn    Zn3+2 0.510020 0.374730 0.508290 0.930632
Zn2   Zn    Zn3+2 0.489980 0.625270 0.491710 0.929882
C31   C     C_R   0.611977 0.737753 0.018013 0.118863
C32   C     C_R   0.733515 0.765490 0.990223 -0.169062
C33   C     C_R   0.784659 0.862019 0.035429 -0.145167
C34   C     C_R   0.714694 0.931776 0.108049 -0.110355
C35   C     C_R   0.593305 0.905315 0.135422 -0.132786
C36   C     C_R   0.541773 0.808889 0.090438 -0.161817
H21   H     H_    0.788716 0.712097 0.934093 0.120955
H22   H     H_    0.878536 0.882795 0.014093 0.124447
H23   H     H_    0.754399 0.006487 0.142896 0.121803
H24   H     H_    0.539052 0.959754 0.191223 0.136577
H25   H     H_    0.447321 0.789606 0.111891 0.127029
C37   C     C_R   0.353564 0.367941 0.821272 0.139013
C38   C     C_R   0.222307 0.385853 0.823094 -0.192133
C39   C     C_R   0.145269 0.298694 0.792993 -0.167710
C40   C     C_R   0.198807 0.193706 0.759437 -0.127447
C41   C     C_R   0.329385 0.174729 0.759100 -0.136565
C42   C     C_R   0.406490 0.260939 0.791759 -0.092637
H26   H     H_    0.179773 0.466379 0.850602 0.125532
H27   H     H_    0.044006 0.312800 0.795067 0.134317
H28   H     H_    0.139071 0.126657 0.735247 0.123921
H29   H     H_    0.370584 0.092562 0.735841 0.140049
H30   H     H_    0.506981 0.244018 0.797065 0.116035
N3    N     N_3   0.404624 0.179057 0.359015 -0.498449
H31   H     H_    0.476573 0.196337 0.308405 0.192029
H32   H     H_    0.350520 0.251263 0.380339 0.256214
N4    N     N_3   0.125306 0.324510 0.378273 -0.476369
H33   H     H_    0.084274 0.273809 0.430161 0.202084
H34   H     H_    0.102433 0.293639 0.303121 0.178668

loop_
_geom_bond_atom_site_label_1
_geom_bond_atom_site_label_2
_ccdc_geom_bond_type
O6    Zn2   S    
C23   O6    A    
C28   H17   S    
C24   H12   S    
C19   C20   A    
N1    Zn1   S    
C1    O2    A    
C6    C9    A    
C18   N2    A    
C7    C8    A    
C29   H19   S    
N3    H31   S    
C7    C11   A    
C26   C27   S    
C3    C28   S    
C13   H5    S    
C10   C15   A    
C14   H6    S    
C42   H30   S    
C26   H9    S    
C33   H22   S    
O8    Zn2   S    
C35   H24   S    
C1    O1    A    
C15   H7    S    
O1    Zn1   S    
C41   H29   S    
C16   C17   A    
C2    C27   S    
C25   O8    A    
C9    C10   A    
C5    C13   A    
C4    C29   S    
C27   H15   S    
C34   C35   A    
C26   H1    S    
C8    H8    S    
C17   N2    A    
N3    H32   S    
C21   N3    S    
O7    Zn1   S    
C37   C38   A    
C29   H18   S    
C35   C36   A    
C39   C40   A    
C41   C42   A    
C18   C19   A    
C6    C8    A    
O2    Zn2   S    
C3    H4    S    
C36   H25   S    
C40   C41   A    
C1    C6    S    
C4    H20   S    
C2    C4    S    
C38   C39   A    
C17   H13   S    
C29   C30   S    
C18   H14   S    
C34   H23   S    
C5    C23   S    
C16   C20   A    
C22   H10   S    
C12   O4    A    
C32   H21   S    
N4    H33   S    
C7    C31   S    
C5    C14   A    
C4    H2    S    
C27   H16   S    
N4    H34   S    
C28   H3    S    
C26   C30   S    
C37   C42   A    
O4    Zn2   S    
C9    C37   S    
C21   N1    A    
C38   H26   S    
C23   O5    A    
C31   C36   A    
C12   C30   S    
C3    N4    S    
C39   H27   S    
O5    Zn1   S    
C32   C33   A    
C28   C30   S    
C2    C3    S    
N2    Zn2   S    
C11   C13   A    
C40   H28   S    
O3    Zn1   S    
C19   C24   A    
C2    C25   S    
C22   C24   A    
C12   O3    A    
C10   C11   A    
C31   C32   A    
C20   C21   A    
C33   C34   A    
C14   C15   A    
C25   O7    A    
C16   H11   S    
C22   N1    A    
