data_mof_unit_48063.cif
_audit_creation_date              2012-12-10T19:13:31-0500
_audit_creation_method            fapswitch 2.2
_symmetry_space_group_name_H-M    P1
_symmetry_Int_Tables_number       1
_space_group_crystal_system       triclinic
_cell_length_a                    9.750879
_cell_length_b                    10.615399
_cell_length_c                    16.574278
_cell_angle_alpha                 89.288982
_cell_angle_beta                  84.906553
_cell_angle_gamma                 90.568914
_cell_volume                      1708.5838752

loop_
_atom_site_label
_atom_site_type_symbol
_atom_type_description
_atom_site_fract_x
_atom_site_fract_y
_atom_site_fract_z
_atom_type_partial_charge
C1    C     C_R   0.500345 0.742375 0.498649 0.853779
C2    C     C_R   0.534491 0.447969 0.262331 -0.190679
C3    C     C_3   0.352748 0.927469 0.485856 -0.367244
C4    C     C_R   0.481086 0.498097 0.653913 0.886142
C5    C     C_3   0.351636 0.070395 0.487229 -0.388010
C6    C     C_3   0.544004 0.926875 0.579445 -0.384483
C7    C     C_3   0.601508 0.930412 0.427730 -0.405957
C8    C     C_3   0.499775 0.878864 0.497807 0.146250
C9    C     C_3   0.498624 0.121486 0.497449 0.158187
C10   C     C_3   0.546218 0.071401 0.578549 -0.394965
C11   C     C_3   0.597321 0.074885 0.425717 -0.391805
C12   C     C_R   0.351738 0.429396 0.783378 -0.170743
C13   C     C_3   0.907625 0.584831 0.564552 -0.277315
C14   C     C_3   0.069164 0.598345 0.558017 -0.074302
C15   C     C_3   0.913244 0.373605 0.519340 -0.249491
C16   C     C_R   0.499569 0.257767 0.498490 0.839744
C17   C     C_3   0.931959 0.540837 0.420992 -0.021615
C18   C     C_3   0.075362 0.373770 0.518788 -0.069198
C19   C     C_3   0.094758 0.538870 0.420620 -0.313393
C20   C     C_R   0.519389 0.492537 0.346231 0.903626
C21   C     C_R   0.472680 0.477028 0.741411 -0.035542
C22   C     C_R   0.592807 0.489003 0.781614 -0.196892
C23   C     C_R   0.463537 0.301672 0.161596 0.384757
C24   C     C_R   0.593938 0.448496 0.861311 -0.146063
C25   C     C_R   0.474686 0.395381 0.902065 0.159387
C26   C     C_R   0.352689 0.389453 0.863578 -0.159380
C27   C     C_3   0.202945 0.422969 0.219269 0.071729
C28   C     C_3   0.224275 0.566032 0.207041 -0.402036
C29   C     C_3   0.100051 0.626278 0.172705 -0.950569
C30   C     C_2   0.116592 0.597407 0.641939 0.433188
C31   C     C_2   0.117305 0.310938 0.594922 0.321438
C32   C     C_2   0.883139 0.667737 0.392956 0.404633
C33   C     C_3   0.353952 0.110041 0.188462 0.097575
C34   C     C_R   0.430320 0.373716 0.231290 0.363629
C35   C     C_3   0.469548 0.014701 0.170948 -0.357896
C36   C     C_3   0.433154 0.888064 0.212505 -0.985082
C37   C     C_R   0.662573 0.462439 0.217092 -0.289127
C38   C     C_R   0.683968 0.410509 0.140507 -0.253595
C39   C     C_R   0.581617 0.335305 0.111067 0.038542
C40   C     C_2   0.470814 0.359036 0.987506 -0.177558
C41   C     C_2   0.582579 0.322234 0.023173 -0.153052
H1    H     H_    0.687138 0.527221 0.750952 0.146435
H2    H     H_    0.575419 0.892463 0.368769 0.158000
H3    H     H_    0.561637 0.108016 0.367157 0.158432
H4    H     H_    0.703316 0.113059 0.429377 0.185966
H5    H     H_    0.648174 0.891611 0.590028 0.183310
H6    H     H_    0.652440 0.105735 0.586415 0.192472
H7    H     H_    0.866974 0.548588 0.625452 0.127627
H8    H     H_    0.860509 0.679051 0.559414 0.200687
H9    H     H_    0.095228 0.694687 0.533183 0.191819
H10   H     H_    0.861484 0.338943 0.578140 0.196110
H11   H     H_    0.903260 0.472816 0.374533 0.073451
H12   H     H_    0.777071 0.434601 0.102603 0.162438
H13   H     H_    0.744201 0.518334 0.239564 0.163076
H14   H     H_    0.143274 0.630571 0.400528 0.189887
H15   H     H_    0.135772 0.469972 0.375827 0.193932
H16   H     H_    0.881956 0.306187 0.473295 0.149653
H17   H     H_    0.115146 0.309680 0.469536 0.146354
H18   H     H_    0.680334 0.308387 0.987859 0.135755
H19   H     H_    0.258808 0.351969 0.895261 0.134310
H20   H     H_    0.258111 0.418639 0.753832 0.136668
H21   H     H_    0.374548 0.376510 0.023667 0.172000
H22   H     H_    0.687543 0.460841 0.890970 0.126284
H23   H     H_    0.276901 0.890739 0.534994 0.218513
H24   H     H_    0.097893 0.404328 0.248853 0.148196
H25   H     H_    0.204227 0.376912 0.159487 0.173060
H26   H     H_    0.241528 0.610981 0.265359 0.238255
H27   H     H_    0.316975 0.584457 0.164344 0.215037
H28   H     H_    0.081665 0.583432 0.113758 0.263432
H29   H     H_    0.119295 0.728836 0.163086 0.269332
H30   H     H_    0.006732 0.613106 0.215649 0.250267
H31   H     H_    0.087313 0.520808 0.683887 0.020789
H32   H     H_    0.199683 0.347086 0.626775 0.118528
H33   H     H_    0.804354 0.672855 0.350892 0.068562
H34   H     H_    0.319204 0.894467 0.427117 0.170566
H35   H     H_    0.254120 0.064293 0.178187 0.175055
H36   H     H_    0.346582 0.136284 0.253557 0.147163
H37   H     H_    0.487504 0.000258 0.104550 0.248605
H38   H     H_    0.566086 0.052159 0.193040 0.204662
H39   H     H_    0.403344 0.901077 0.278005 0.256869
H40   H     H_    0.523188 0.824644 0.205390 0.266321
H41   H     H_    0.345942 0.842935 0.184690 0.274301
H42   H     H_    0.314130 0.107264 0.430005 0.176422
H43   H     H_    0.278691 0.100876 0.538449 0.222423
H44   H     H_    0.470895 0.891452 0.630296 0.188237
H45   H     H_    0.477274 0.106459 0.630437 0.168145
H46   H     H_    0.707995 0.900469 0.436710 0.231288
N1    N     N_3   0.861190 0.500250 0.501720 -0.082941
N2    N     N_3   0.138550 0.503270 0.501080 -0.121059
O1    O     O_R   0.383960 0.685090 0.500020 -0.612324
O2    O     O_2   0.181760 0.686606 0.665392 -0.575796
O3    O     O_2   0.063168 0.211602 0.619100 -0.603512
O4    O     O_2   0.931058 0.765795 0.416796 -0.633574
O5    O     O_3   0.371260 0.214704 0.134633 -0.668059
O6    O     O_R   0.616040 0.685320 0.499960 -0.627629
O7    O     O_R   0.370240 0.499890 0.615830 -0.620730
O8    O     O_R   0.602330 0.500120 0.615770 -0.626710
O9    O     O_R   0.383960 0.314680 0.500040 -0.644587
O10   O     O_R   0.616040 0.314910 0.499980 -0.634520
O11   O     O_R   0.397670 0.499880 0.384230 -0.578165
O12   O     O_R   0.629760 0.500110 0.384170 -0.651328
O13   O     O_3   0.298288 0.369771 0.269929 -0.656225
Zn1   Zn    Zn3+2 0.345040 0.499850 0.500040 0.935289
Zn2   Zn    Zn3+2 0.654960 0.500150 0.499960 0.906564

loop_
_geom_bond_atom_site_label_1
_geom_bond_atom_site_label_2
_ccdc_geom_bond_type
C19   H15   S    
C15   C18   S    
C1    O1    A    
C12   H20   S    
C1    C8    S    
C35   C36   S    
C33   H36   S    
C33   O5    S    
C7    C8    S    
C39   C41   S    
C14   H9    S    
C3    H23   S    
C7    C11   S    
C34   O13   S    
C6    H44   S    
C19   N2    S    
C28   C29   S    
C28   H27   S    
C9    C16   S    
C25   C40   S    
C32   H33   S    
C38   C39   A    
C5    H42   S    
C31   H32   S    
O9    Zn1   S    
C17   N1    S    
C40   H21   S    
C33   C35   S    
C4    O7    A    
C18   H17   S    
C7    H46   S    
C36   H41   S    
C15   H10   S    
C3    H34   S    
C9    C10   S    
C2    C34   A    
O10   Zn2   S    
C21   C22   A    
N2    Zn1   S    
C15   H16   S    
C14   C30   S    
C17   H11   S    
N1    Zn2   S    
C29   H28   S    
C2    C20   S    
C28   H26   S    
C24   C25   A    
C41   H18   S    
C3    C8    S    
C36   H39   S    
C5    H43   S    
C6    C8    S    
C20   O12   A    
C25   C26   A    
C12   C21   A    
O11   Zn1   S    
C12   C26   A    
C14   N2    S    
C5    C9    S    
C37   C38   A    
C27   H24   S    
C4    O8    A    
C33   H35   S    
C20   O11   A    
C36   H40   S    
C1    O6    A    
C23   C34   A    
C11   H3    S    
C9    C11   S    
C13   H8    S    
C37   H13   S    
C40   C41   D    
C27   O13   S    
C24   H22   S    
C7    H2    S    
C22   C24   A    
C11   H4    S    
C10   H6    S    
O6    Zn2   S    
C29   H29   S    
C19   H14   S    
C10   H45   S    
C6    H5    S    
C18   N2    S    
C30   O2    D    
C3    C5    S    
C6    C10   S    
C13   H7    S    
C30   H31   S    
C16   O10   A    
O12   Zn2   S    
C35   H37   S    
C23   O5    S    
C27   H25   S    
C4    C21   S    
C2    C37   A    
C16   O9    A    
C22   H1    S    
C38   H12   S    
C23   C39   A    
C13   N1    S    
C35   H38   S    
C17   C19   S    
C32   O4    D    
O1    Zn1   S    
O8    Zn2   S    
C31   O3    D    
O7    Zn1   S    
C27   C28   S    
C17   C32   S    
C18   C31   S    
C13   C14   S    
C26   H19   S    
C15   N1    S    
C29   H30   S    
