data_mof_unit_40245.cif
_audit_creation_date              2012-12-10T18:59:15-0500
_audit_creation_method            fapswitch 2.2
_symmetry_space_group_name_H-M    P1
_symmetry_Int_Tables_number       1
_space_group_crystal_system       triclinic
_cell_length_a                    10.800035
_cell_length_b                    10.819873
_cell_length_c                    9.542727
_cell_angle_alpha                 90.250726
_cell_angle_beta                  90.201361
_cell_angle_gamma                 89.411787
_cell_volume                      1115.03927928

loop_
_atom_site_label
_atom_site_type_symbol
_atom_type_description
_atom_site_fract_x
_atom_site_fract_y
_atom_site_fract_z
_atom_type_partial_charge
C1    C     C_R   0.496192 0.262533 0.499654 0.829428
C2    C     C_R   0.067724 0.400739 0.588192 0.097504
C3    C     C_R   0.129289 0.484411 0.499305 -0.116511
C4    C     C_R   0.062834 0.561088 0.408404 -0.199447
C5    C     C_R   0.935205 0.560876 0.409025 -0.218249
C6    C     C_R   0.871604 0.485134 0.501775 -0.101652
C7    C     C_R   0.539578 0.064320 0.610993 0.085936
C8    C     C_R   0.485598 0.129461 0.500715 -0.287853
C9    C     C_R   0.418579 0.064297 0.397120 0.326017
C10   C     C_R   0.422270 0.934687 0.396769 0.504187
C11   C     C_R   0.488793 0.870863 0.501479 -0.295389
C12   C     C_R   0.262690 0.495047 0.499808 0.785684
C13   C     C_R   0.540904 0.936966 0.612050 0.057489
C14   C     C_3   0.671446 0.932166 0.664835 -0.443133
C15   C     C_3   0.669378 0.071832 0.663564 -0.442240
C16   C     C_R   0.596504 0.549701 0.074405 0.259439
C17   C     C_R   0.411250 0.440147 0.073857 -0.032217
C18   C     C_R   0.411309 0.439936 0.925011 -0.067519
C19   C     C_R   0.596373 0.549786 0.926971 0.265566
C20   C     C_3   0.637574 0.680495 0.922580 -0.509406
C21   C     C_3   0.638940 0.680148 0.081480 -0.487480
C22   C     C_R   0.498273 0.737606 0.500167 0.886431
C23   C     C_R   0.737561 0.494251 0.500484 0.778270
C24   C     C_R   0.133070 0.312355 0.669634 -0.210199
C25   C     C_R   0.070653 0.232762 0.758489 -0.139282
C26   C     C_R   0.942317 0.237076 0.765335 -0.139446
C27   C     C_R   0.875571 0.319569 0.681587 -0.198883
C28   C     C_R   0.936763 0.402743 0.591773 0.103925
Cu1   Cu    Cu3+1 0.499990 0.499980 0.640670 0.939190
Cu2   Cu    Cu3+1 0.500010 0.500020 0.359330 0.982810
H1    H     H_    0.110102 0.623813 0.338837 0.180895
H2    H     H_    0.737010 0.890631 0.587824 0.188476
H3    H     H_    0.674049 0.113654 0.770019 0.197011
H4    H     H_    0.733438 0.111187 0.584882 0.190028
H5    H     H_    0.338220 0.393929 0.129277 0.146828
H6    H     H_    0.338293 0.393041 0.869117 0.141025
H7    H     H_    0.731190 0.689142 0.875822 0.195521
H8    H     H_    0.564990 0.742861 0.878736 0.229313
H9    H     H_    0.733540 0.687530 0.126771 0.185285
H10   H     H_    0.568870 0.744035 0.127849 0.255606
H11   H     H_    0.232352 0.301216 0.663311 0.136806
H12   H     H_    0.122041 0.166442 0.821025 0.136319
H13   H     H_    0.894144 0.174405 0.833843 0.135404
H14   H     H_    0.776118 0.314962 0.686991 0.157586
H15   H     H_    0.885664 0.623110 0.339397 0.151679
H16   H     H_    0.679346 0.895200 0.772497 0.201218
N1    N     N_R   0.500790 0.500930 0.147930 -0.186468
N2    N     N_R   0.500790 0.500890 0.852020 -0.190687
O1    O     O_R   0.500000 0.319640 0.618810 -0.599621
O2    O     O_R   0.500010 0.319680 0.381230 -0.545716
O3    O     O_R   0.319640 0.499980 0.618820 -0.586223
O4    O     O_R   0.319650 0.500020 0.381230 -0.578360
O5    O     O_R   0.499990 0.680320 0.618770 -0.581281
O6    O     O_R   0.500000 0.680360 0.381190 -0.537336
O7    O     O_R   0.680350 0.499980 0.618770 -0.591714
O8    O     O_R   0.680360 0.500020 0.381180 -0.585323
O9    O     O_3   0.356335 0.124964 0.290421 -0.566666
C29   C     C_3   0.234301 0.152444 0.334833 0.101344
H17   H     H_    0.234437 0.240692 0.394612 0.124013
H18   H     H_    0.194583 0.078589 0.402268 0.133312
C30   C     C_3   0.150582 0.166476 0.206186 -0.307554
H19   H     H_    0.188847 0.236969 0.134631 0.206726
H20   H     H_    0.147354 0.076951 0.148758 0.236079
C31   C     C_3   0.019231 0.204987 0.247246 -0.918474
H21   H     H_    0.978704 0.136236 0.319543 0.256952
H22   H     H_    0.960331 0.210963 0.151844 0.255940
H23   H     H_    0.019746 0.296971 0.299047 0.271633
F1    F     F_    0.362398 0.872190 0.293466 -0.652546

loop_
_geom_bond_atom_site_label_1
_geom_bond_atom_site_label_2
_ccdc_geom_bond_type
C25   H12   S    
C30   C31   S    
C18   N2    A    
Cu2   O8    S    
C23   O7    A    
Cu1   Cu2   S    
C20   H7    S    
C10   F1    S    
C1    C8    S    
C20   H8    S    
C9    C10   A    
C11   C22   S    
Cu1   O7    S    
C19   C20   S    
C21   H9    S    
C7    C13   A    
C31   H21   S    
C29   C30   S    
C7    C15   S    
C2    C3    A    
C26   C27   A    
C23   O8    A    
C22   O6    A    
C25   C26   A    
Cu1   O1    S    
C13   C14   S    
C20   C21   S    
C24   H11   S    
Cu2   O6    S    
O9    C29   S    
C16   C21   S    
C21   H10   S    
C18   H6    S    
C16   C19   A    
C5    C6    A    
C6    C23   S    
C16   N1    A    
C17   H5    S    
C12   O4    A    
Cu1   O3    S    
C26   H13   S    
C17   C18   A    
C22   O5    A    
C9    O9    S    
C2    C24   A    
C30   H19   S    
Cu2   O2    S    
C4    H1    S    
C7    C8    A    
C10   C11   A    
Cu1   N2    S    
C29   H18   S    
C3    C4    A    
C31   H23   S    
Cu2   N1    S    
C11   C13   A    
C12   O3    A    
C24   C25   A    
C14   H16   S    
C1    O1    A    
C1    O2    A    
C27   C28   A    
C30   H20   S    
Cu2   O4    S    
C14   C15   S    
C4    C5    A    
C2    C28   A    
C3    C12   S    
C15   H4    S    
C29   H17   S    
C19   N2    A    
C5    H15   S    
C27   H14   S    
C15   H3    S    
C6    C28   A    
C17   N1    A    
C14   H2    S    
C8    C9    A    
Cu1   O5    S    
C31   H22   S    
