data_mof_unit_41772.cif
_audit_creation_date              2013-03-05T16:23:20-0500
_audit_creation_method            fapswitch 2.2
_symmetry_space_group_name_H-M    P1
_symmetry_Int_Tables_number       1
_space_group_crystal_system       triclinic
_cell_length_a                    27.713075
_cell_length_b                    10.499276
_cell_length_c                    9.752416
_cell_angle_alpha                 89.726728
_cell_angle_beta                  89.932927
_cell_angle_gamma                 89.965651
_cell_volume                      2837.59868321

loop_
_atom_site_label
_atom_site_type_symbol
_atom_site_description
_atom_site_fract_x
_atom_site_fract_y
_atom_site_fract_z
_atom_type_partial_charge
O1    O     O_R   0.500000 0.313960 0.616610 -0.615391
O2    O     O_R   0.500000 0.686040 0.383390 -0.615794
O3    O     O_R   0.500020 0.313950 0.383350 -0.608776
O4    O     O_R   0.499980 0.686050 0.616650 -0.608552
C1    C     C_R   0.500039 0.257738 0.500414 0.963423
C2    C     C_R   0.499946 0.742260 0.499583 0.959818
O5    O     O_R   0.428750 0.500030 0.616610 -0.640430
O6    O     O_R   0.571250 0.499970 0.383390 -0.639796
O7    O     O_R   0.428770 0.500020 0.383360 -0.572196
O8    O     O_R   0.571230 0.499980 0.616640 -0.573307
C3    C     C_R   0.406268 0.502673 0.500004 0.938380
C4    C     C_R   0.593702 0.497503 0.500001 0.940425
Zn1   Zn    Zn3+2 0.499990 0.500010 0.655740 1.008422
Zn2   Zn    Zn3+2 0.500010 0.499990 0.344260 1.009093
C5    C     C_R   0.177826 0.389116 0.476638 0.524153
C6    C     C_R   0.821793 0.608579 0.541329 0.525044
O9    O     O_2   0.202808 0.282136 0.447586 -0.520147
O10   O     O_2   0.796657 0.711113 0.584336 -0.519605
N1    N     N_R   0.201822 0.499541 0.504569 -0.350704
N2    N     N_R   0.797944 0.502481 0.497884 -0.351452
C7    C     C_R   0.177849 0.609870 0.533824 0.522312
C8    C     C_R   0.821971 0.396641 0.453985 0.523014
C9    C     C_R   0.277442 0.570186 0.400703 -0.139413
C10   C     C_R   0.722393 0.426058 0.596578 -0.141406
C11   C     C_R   0.327754 0.576493 0.400084 0.293308
C12   C     C_R   0.672080 0.419570 0.596544 0.290208
C13   C     C_R   0.329090 0.437303 0.601578 -0.212211
C14   C     C_R   0.670830 0.568226 0.402919 -0.211150
C15   C     C_R   0.279062 0.434221 0.602425 -0.060133
C16   C     C_R   0.720855 0.572060 0.403073 -0.060682
C17   C     C_R   0.253262 0.500244 0.501859 0.234069
C18   C     C_R   0.746557 0.501276 0.499964 0.237480
C19   C     C_R   0.101754 0.499937 0.504908 -0.049822
C20   C     C_R   0.897963 0.502249 0.498949 -0.049344
C21   C     C_R   0.127352 0.387135 0.476595 -0.030406
C22   C     C_R   0.872266 0.610625 0.542366 -0.031663
C23   C     C_R   0.102216 0.275118 0.449091 -0.126336
C24   C     C_R   0.897297 0.717721 0.587360 -0.126433
C25   C     C_R   0.127405 0.612285 0.534033 -0.027587
C26   C     C_R   0.872412 0.394313 0.454159 -0.028563
C27   C     C_R   0.353753 0.507009 0.500459 -0.154867
C28   C     C_R   0.646163 0.493461 0.499707 -0.153931
H1    H     H_    0.348608 0.383796 0.678981 0.178106
H2    H     H_    0.651296 0.625192 0.328445 0.177375
H3    H     H_    0.260253 0.380699 0.681191 0.163858
H4    H     H_    0.739735 0.629743 0.327931 0.161787
H5    H     H_    0.121117 0.186634 0.429619 0.195429
H6    H     H_    0.878300 0.801439 0.623271 0.196536
C29   C     C_R   0.974357 0.389961 0.461063 0.045137
C30   C     C_R   0.025397 0.614155 0.536640 0.046095
C31   C     C_R   0.974299 0.612872 0.541629 0.045411
C32   C     C_R   0.025370 0.387351 0.469633 0.046436
C33   C     C_R   0.949084 0.501714 0.500513 0.074661
C34   C     C_R   0.050630 0.500464 0.503814 0.074333
C35   C     C_R   0.947534 0.284651 0.412934 -0.213286
C36   C     C_R   0.052367 0.725913 0.562321 -0.212882
C37   C     C_R   0.897550 0.286937 0.410005 -0.125239
C38   C     C_R   0.102369 0.724596 0.561454 -0.125082
O11   O     O_2   0.797006 0.294266 0.410080 -0.527088
O12   O     O_2   0.202860 0.716602 0.563296 -0.526163
C39   C     C_R   0.052214 0.274820 0.446146 -0.212312
C40   C     C_R   0.947312 0.718991 0.587436 -0.212451
H7    H     H_    0.743079 0.369908 0.669149 0.185603
H8    H     H_    0.256777 0.622780 0.325070 0.187255
H9    H     H_    0.878661 0.203636 0.372829 0.196257
H10   H     H_    0.121351 0.812675 0.581932 0.195434
H11   H     H_    0.964011 0.199331 0.373787 0.144987
H12   H     H_    0.036045 0.817329 0.580667 0.141668
H13   H     H_    0.035744 0.183655 0.427724 0.141708
H14   H     H_    0.963633 0.804192 0.627117 0.144760
C41   C     C_3   0.503747 0.040048 0.631689 -0.222746
C42   C     C_3   0.496243 0.959947 0.368297 -0.225265
C43   C     C_3   0.540395 0.958239 0.553858 0.366905
C44   C     C_3   0.459595 0.041756 0.446125 0.364975
H15   H     H_    0.507793 0.075515 0.738142 0.194605
H16   H     H_    0.492199 0.924480 0.261843 0.194893
C45   C     C_3   0.499646 0.876901 0.498456 -0.155793
C46   C     C_3   0.500343 0.123095 0.501531 -0.154557
C47   C     C_3   0.461918 0.957197 0.574743 -0.246696
C48   C     C_3   0.538071 0.042799 0.425242 -0.243961
H17   H     H_    0.430725 0.918446 0.633013 0.201269
H18   H     H_    0.569266 0.081555 0.366979 0.201737
C49   C     C_3   0.494534 0.385946 0.049157 -0.067857
C50   C     C_3   0.505469 0.614050 0.950840 -0.068823
C51   C     C_3   0.534664 0.430408 0.951485 -0.060834
C52   C     C_3   0.465340 0.569589 0.048504 -0.059301
H19   H     H_    0.563783 0.371730 0.905594 0.192008
H20   H     H_    0.436240 0.628335 0.094335 0.195060
H21   H     H_    0.489974 0.289823 0.095258 0.173429
H22   H     H_    0.510027 0.710173 0.904739 0.173612
N3    N     N_3   0.499960 0.500030 0.863290 -0.093521
N4    N     N_3   0.500040 0.499970 0.136710 -0.093572
C53   C     C_3   0.459826 0.455575 0.951812 -0.058003
C54   C     C_3   0.540176 0.544422 0.048186 -0.059141
H23   H     H_    0.426016 0.418107 0.906310 0.149127
H24   H     H_    0.573983 0.581903 0.093692 0.149394
N5    N     N_R   0.648325 0.333778 0.690136 0.213989
O13   O     O_R   0.666534 0.312713 0.811085 -0.370835
O14   O     O_R   0.613184 0.261850 0.647807 -0.387874
N6    N     N_R   0.351420 0.658224 0.302260 0.213704
O15   O     O_R   0.333537 0.672437 0.179811 -0.375872
O16   O     O_R   0.385843 0.733976 0.341552 -0.385218
N7    N     N_R   0.584609 0.907289 0.613392 0.219344
O17   O     O_R   0.626118 0.931893 0.556920 -0.331178
O18   O     O_R   0.582814 0.838965 0.724836 -0.384127
N8    N     N_R   0.415382 0.092694 0.386575 0.218804
O19   O     O_R   0.373869 0.067989 0.442966 -0.330645
O20   O     O_R   0.417182 0.161058 0.275159 -0.384412

loop_
_geom_bond_atom_site_label_1
_geom_bond_atom_site_label_2
_geom_bond_distance
_ccdc_geom_bond_type
C16   C18   1.395272 A    
C13   C15   1.386843 A    
C42   H16   1.110427 S    
N1    C17   1.425798 S    
C41   C47   1.554416 S    
N5    O13   1.301415 A    
C51   N3    1.481282 S    
O5    C3    1.297491 A    
C49   N4    1.481837 S    
C19   C25   1.407869 A    
O1    C1    1.280209 A    
N1    C7    1.366160 A    
C50   C52   1.534852 S    
C32   C39   1.415248 A    
C52   H20   1.109850 S    
N3    C53   1.481467 S    
N8    O19   1.300307 A    
C49   C53   1.534789 S    
C40   H14   1.076455 S    
C14   C28   1.402335 A    
O4    Zn1   1.988353 S    
C4    C28   1.454430 S    
C38   H10   1.083694 S    
C50   N3    1.481793 S    
C23   H5    1.083677 S    
C24   H6    1.083684 S    
C6    N2    1.365020 A    
C51   H19   1.110059 S    
C53   H23   1.110257 S    
Zn1   N3    2.024113 S    
O2    C2    1.280175 A    
C31   C40   1.415368 A    
C50   H22   1.110098 S    
C5    C21   1.398952 A    
N5    O14   1.301492 A    
C32   C34   1.420165 A    
C45   C47   1.536400 S    
C49   H21   1.110097 S    
C7    O12   1.350290 S    
C42   C44   1.532571 S    
C11   C27   1.415559 A    
C8    O11   1.350293 S    
C47   H17   1.110335 S    
C2    C45   1.413641 S    
C29   C35   1.414975 A    
C25   C38   1.394631 A    
C14   H2    1.083820 S    
C30   C36   1.415077 A    
C42   C48   1.554405 S    
C15   H3    1.082977 S    
C31   C33   1.420314 A    
C9    C17   1.397721 A    
C5    N1    1.365635 A    
O7    Zn2   2.010326 S    
C10   C18   1.397127 A    
C42   C45   1.539501 S    
C52   C53   1.535201 S    
C44   N8    1.456878 S    
C51   C54   1.535253 S    
C13   C27   1.402648 A    
C11   N6    1.438081 S    
C23   C39   1.386054 A    
C7    C25   1.398178 A    
C43   N7    1.456887 S    
O6    C4    1.297110 A    
C29   C32   1.416537 A    
C8    C26   1.398069 A    
N4    C54   1.481501 S    
C30   C31   1.416923 A    
N7    O18   1.300311 A    
C6    O10   1.350111 S    
C50   C54   1.534764 S    
C54   H24   1.110257 S    
O7    C3    1.297037 A    
Zn2   N4    2.024114 S    
O3    Zn2   1.988355 S    
O8    C4    1.296559 A    
C48   H18   1.110340 S    
C9    H8    1.083368 S    
C49   C51   1.534929 S    
N2    C8    1.365472 A    
C10   H7    1.083358 S    
C44   C47   1.534665 S    
C35   C37   1.385746 A    
C20   C26   1.408149 A    
O4    C2    1.282704 A    
O1    Zn1   1.992103 S    
C12   C28   1.415473 A    
C41   C43   1.532579 S    
N6    O16   1.301582 A    
N2    C18   1.424267 S    
C39   H13   1.076619 S    
C19   C34   1.416858 A    
C5    O9    1.350120 S    
O6    Zn2   2.011263 S    
C26   C37   1.394521 A    
C21   C23   1.394576 A    
C16   H4    1.082972 S    
C10   C12   1.396035 A    
C37   H9    1.083692 S    
O3    C1    1.282680 A    
O8    Zn1   2.010329 S    
C35   H11   1.076594 S    
C22   C24   1.394444 A    
C30   C34   1.420729 A    
C36   H12   1.076457 S    
C6    C22   1.398978 A    
C41   H15   1.110425 S    
N8    O20   1.300314 A    
C29   C33   1.420553 A    
C14   C16   1.386958 A    
N6    O15   1.301360 A    
C19   C21   1.408485 A    
C43   C48   1.534664 S    
C36   C38   1.385794 A    
C3    C27   1.456045 S    
C46   C48   1.536423 S    
C9    C11   1.395916 A    
O2    Zn2   1.992101 S    
C12   N5    1.438508 S    
C13   H1    1.083761 S    
O5    Zn1   2.011258 S    
C20   C22   1.408590 A    
C20   C33   1.416814 A    
C15   C17   1.395781 A    
C44   C46   1.517722 S    
N7    O17   1.300313 A    
C43   C45   1.517724 S    
C52   N4    1.481261 S    
C1    C46   1.413666 S    
C41   C46   1.539503 S    
C24   C40   1.386145 A    
