data_mof_unit_18911.cif
_audit_creation_date              2012-10-26T18:52:45-0400
_audit_creation_method            fapswitch 2.2
_symmetry_space_group_name_H-M    P1
_symmetry_Int_Tables_number       1
_space_group_crystal_system       triclinic
_cell_length_a                    10.744784
_cell_length_b                    14.693658
_cell_length_c                    14.736422
_cell_angle_alpha                 65.157776
_cell_angle_beta                  103.398548
_cell_angle_gamma                 102.748755
_cell_volume                      2033.69852405

loop_
_atom_site_label
_atom_site_type_symbol
_atom_type_description
_atom_site_fract_x
_atom_site_fract_y
_atom_site_fract_z
_atom_type_partial_charge
C1    C     C_R   0.479134 0.119653 0.312355 0.540789
C2    C     C_R   0.506330 0.360705 0.079989 0.031601
C3    C     C_R   0.492397 0.321273 0.004767 0.050304
C4    C     C_R   0.260011 0.000406 0.499839 0.545924
C5    C     C_R   0.531798 0.467361 0.053596 0.030307
C6    C     C_R   0.530074 0.533351 0.949944 0.032335
C7    C     C_R   0.517932 0.490809 0.877514 -0.138760
C8    C     C_R   0.500362 0.386829 0.904834 -0.136401
C9    C     C_R   0.561874 0.510164 0.127486 -0.140828
C10   C     C_R   0.582410 0.614190 0.100300 -0.134288
C11   C     C_R   0.571304 0.679481 0.998820 0.049564
C12   C     C_3   0.877692 0.996727 0.501343 0.017789
C13   C     C_R   0.543033 0.639845 0.922497 0.031105
C14   C     C_R   0.587532 0.784388 0.972817 -0.136164
C15   C     C_R   0.573113 0.850729 0.871540 -0.142698
C16   C     C_R   0.522791 0.880317 0.687671 0.541280
C17   C     C_R   0.524853 0.708200 0.821079 -0.138364
C18   C     C_R   0.707265 0.280796 0.674199 -0.159202
C19   C     C_R   0.678159 0.201210 0.641693 0.038630
C20   C     C_R   0.519841 0.285736 0.508261 0.034987
C21   C     C_R   0.545952 0.370139 0.536672 0.001562
C22   C     C_R   0.640742 0.364912 0.622736 0.037505
C23   C     C_3   0.958886 0.988345 0.605881 -0.246031
C24   C     C_R   0.481125 0.458096 0.484181 0.018725
C25   C     C_R   0.511040 0.538338 0.520432 0.036520
C26   C     C_R   0.603387 0.527235 0.608570 -0.107085
C27   C     C_R   0.667505 0.442825 0.657784 -0.125999
C28   C     C_R   0.740011 0.998630 0.501011 0.540098
C29   C     C_R   0.388334 0.468927 0.396317 -0.144503
C30   C     C_R   0.326209 0.554354 0.345875 -0.128198
C31   C     C_R   0.354937 0.633239 0.379693 0.037036
C32   C     C_R   0.447921 0.627129 0.466896 0.016929
C33   C     C_R   0.292184 0.719180 0.325865 -0.157356
C34   C     C_3   0.931262 0.097742 0.419956 -0.247746
C35   C     C_R   0.323726 0.799821 0.356916 0.037891
C36   C     C_R   0.474833 0.711868 0.494867 0.072809
C37   C     C_3   0.037938 0.911515 0.472570 -0.224887
C38   C     C_3   0.894716 0.907570 0.475089 -0.076692
C39   C     C_3   0.101585 0.984635 0.606604 -0.240327
C40   C     C_3   0.076217 0.100563 0.421343 -0.243995
C41   C     C_3   0.121985 0.999714 0.500150 0.029098
C42   C     C_2   0.844128 0.803507 0.546694 0.219317
C43   C     C_R   0.475963 0.187195 0.205206 -0.006445
C44   C     C_R   0.540383 0.812722 0.795188 -0.006676
C45   C     C_R   0.471258 0.216260 0.030427 -0.136854
C46   C     C_R   0.464339 0.149517 0.130319 -0.142131
C47   C     C_R   0.492737 0.291756 0.179065 -0.135755
Cu1   Cu    Cu3+1 0.465900 0.918260 0.475680 0.938707
Cu2   Cu    Cu3+1 0.534100 0.081740 0.524320 0.915803
H1    H     H_    0.073439 0.838550 0.525659 0.141099
H2    H     H_    0.451307 0.068771 0.149028 0.127088
H3    H     H_    0.493365 0.317477 0.237589 0.115603
H4    H     H_    0.048867 0.922114 0.395229 0.117028
H5    H     H_    0.525583 0.535799 0.799047 0.094552
H6    H     H_    0.574283 0.465542 0.207708 0.108026
H7    H     H_    0.610604 0.815063 0.030937 0.107027
H8    H     H_    0.738515 0.438264 0.724628 0.110519
H9    H     H_    0.544844 0.714426 0.559242 0.144843
H10   H     H_    0.276959 0.866894 0.314425 0.121451
H11   H     H_    0.255685 0.559182 0.278725 0.110605
H12   H     H_    0.918630 0.163621 0.434087 0.141003
H13   H     H_    0.780300 0.276075 0.739950 0.090382
H14   H     H_    0.727805 0.135443 0.682380 0.119523
H15   H     H_    0.445913 0.281230 0.446496 0.114610
H16   H     H_    0.840703 0.918767 0.397612 0.153052
H17   H     H_    0.628929 0.582846 0.641820 0.113165
H18   H     H_    0.361842 0.412783 0.363682 0.088692
H19   H     H_    0.220472 0.724589 0.259251 0.092693
H20   H     H_    0.129275 0.910384 0.663298 0.111075
H21   H     H_    0.920238 0.920338 0.668049 0.095741
H22   H     H_    0.133038 0.165133 0.440321 0.129810
H23   H     H_    0.164223 0.044651 0.630200 0.134075
H24   H     H_    0.092377 0.113440 0.344681 0.108949
H25   H     H_    0.876667 0.105844 0.343510 0.109952
H26   H     H_    0.871172 0.780282 0.627981 0.096308
H27   H     H_    0.953172 0.055057 0.621457 0.132769
H28   H     H_    0.492102 0.357567 0.846964 0.111452
H29   H     H_    0.494797 0.681663 0.760516 0.117562
H30   H     H_    0.585936 0.931413 0.853109 0.124736
H31   H     H_    0.605478 0.643682 0.159351 0.118932
H32   H     H_    0.461599 0.185790 0.973326 0.104158
N1    N     N_R   0.585360 0.204570 0.560800 -0.232437
N2    N     N_R   0.414550 0.795430 0.439160 -0.235742
O1    O     O_R   0.455060 0.022100 0.338110 -0.508418
O2    O     O_R   0.512640 0.160150 0.379180 -0.512012
O3    O     O_R   0.288900 0.930980 0.479450 -0.511017
O4    O     O_R   0.346480 0.069030 0.520520 -0.507534
O5    O     O_R   0.487360 0.839850 0.620820 -0.517415
O6    O     O_R   0.544940 0.977900 0.661890 -0.508084
O7    O     O_R   0.653520 0.930970 0.479480 -0.481680
O8    O     O_R   0.711100 0.069020 0.520550 -0.508610
O9    O     O_2   0.775778 0.743099 0.512984 -0.532757

loop_
_geom_bond_atom_site_label_1
_geom_bond_atom_site_label_2
_ccdc_geom_bond_type
C14   H7    S    
C40   H22   S    
C20   N1    A    
Cu2   O4    S    
C23   H27   S    
C7    C8    A    
C39   C41   S    
C4    O4    A    
C45   C46   A    
C1    O1    A    
C12   C23   S    
C42   H26   S    
C37   C38   S    
C12   C28   S    
C34   C40   S    
C32   C36   A    
C15   C44   A    
C38   C42   S    
C36   H9    S    
C5    C6    A    
C11   C14   A    
C4    O3    A    
C4    C41   S    
C36   N2    A    
C40   H24   S    
C35   H10   S    
C18   C19   A    
C24   C29   A    
C29   H18   S    
C1    C43   S    
C15   H30   S    
C19   H14   S    
C30   H11   S    
C39   H23   S    
C31   C33   A    
C9    H6    S    
C19   N1    A    
C9    C10   A    
C16   C44   S    
C37   H4    S    
C25   C32   A    
C16   O6    A    
Cu1   O7    S    
C21   C22   A    
C12   C38   S    
C23   H21   S    
Cu2   O8    S    
C1    O2    A    
C26   H17   S    
Cu2   O2    S    
C24   C25   A    
C3    C8    A    
C27   H8    S    
C10   H31   S    
C18   H13   S    
C25   C26   A    
C46   H2    S    
C3    C45   A    
C34   H12   S    
Cu1   O1    S    
Cu2   N1    S    
C20   H15   S    
C5    C9    A    
C29   C30   A    
C31   C32   A    
C38   H16   S    
Cu1   O5    S    
C39   H20   S    
C6    C7    A    
C34   H25   S    
Cu1   Cu2   S    
C22   C27   A    
C26   C27   A    
C8    H28   S    
Cu1   O3    S    
C2    C5    A    
C12   C34   S    
C40   C41   S    
C35   N2    A    
C18   C22   A    
C45   H32   S    
Cu2   O6    S    
C47   H3    S    
C2    C47   A    
Cu1   N2    S    
C13   C17   A    
C2    C3    A    
C17   C44   A    
C6    C13   A    
C37   H1    S    
C11   C13   A    
C30   C31   A    
C23   C39   S    
C17   H29   S    
C33   C35   A    
C28   O8    A    
C42   O9    D    
C37   C41   S    
C43   C46   A    
C10   C11   A    
C20   C21   A    
C21   C24   A    
C16   O5    A    
C14   C15   A    
C28   O7    A    
C7    H5    S    
C43   C47   A    
C33   H19   S    
