data_mof_unit_41900.cif
_audit_creation_date              2012-12-10T18:57:44-0500
_audit_creation_method            fapswitch 2.2
_symmetry_space_group_name_H-M    P1
_symmetry_Int_Tables_number       1
_space_group_crystal_system       triclinic
_cell_length_a                    10.907166
_cell_length_b                    10.827097
_cell_length_c                    9.560858
_cell_angle_alpha                 89.662232
_cell_angle_beta                  89.690095
_cell_angle_gamma                 90.255212
_cell_volume                      1129.0223742

loop_
_atom_site_label
_atom_site_type_symbol
_atom_type_description
_atom_site_fract_x
_atom_site_fract_y
_atom_site_fract_z
_atom_type_partial_charge
C1    C     C_R   0.497223 0.262607 0.500525 0.824731
C2    C     C_R   0.395016 0.480410 0.074794 -0.081516
C3    C     C_R   0.394880 0.481043 0.926487 -0.081394
C4    C     C_R   0.265294 0.496392 0.500628 0.853584
C5    C     C_R   0.607991 0.505914 0.926202 0.222413
C6    C     C_3   0.703389 0.605918 0.920147 -0.274638
C7    C     C_3   0.696423 0.613055 0.078807 -0.523700
C8    C     C_R   0.495001 0.737685 0.499185 0.810556
C9    C     C_R   0.734741 0.497881 0.499027 0.854219
C10   C     C_2   0.934756 0.447163 0.393935 0.009592
C11   C     C_2   0.867484 0.502107 0.494820 -0.336237
C12   C     C_R   0.482952 0.130045 0.502035 -0.163357
C13   C     C_2   0.068317 0.462704 0.389199 -0.200401
C14   C     C_2   0.133305 0.483744 0.504934 -0.326302
C15   C     C_R   0.500826 0.062358 0.624583 0.090374
C16   C     C_1   0.880188 0.371424 0.286173 0.281126
C17   C     C_1   0.715937 0.120401 0.682711 0.283527
C18   C     C_1   0.823258 0.558823 0.874135 0.315556
C19   C     C_3   0.397237 0.877842 0.245256 -0.804160
C20   C     C_3   0.556647 0.119949 0.873462 -0.818443
C21   C     C_R   0.443138 0.068167 0.381891 -0.194138
C22   C     C_R   0.440013 0.938666 0.378180 0.149149
C23   C     C_R   0.479755 0.871131 0.498044 -0.106863
C24   C     C_R   0.499370 0.935565 0.622076 0.035812
C25   C     C_3   0.597784 0.924656 0.729795 -0.491385
C26   C     C_3   0.599554 0.065886 0.733583 0.130121
C27   C     C_R   0.606897 0.509221 0.073443 0.276572
Cu1   Cu    Cu3+1 0.499990 0.499980 0.640670 0.951546
Cu2   Cu    Cu3+1 0.500010 0.500020 0.359330 0.949555
H1    H     H_    0.309391 0.465535 0.129499 0.144890
H2    H     H_    0.562497 0.880487 0.827387 0.201104
H3    H     H_    0.682565 0.881812 0.687014 0.171504
H4    H     H_    0.325084 0.808155 0.269561 0.239082
H5    H     H_    0.357051 0.945778 0.171212 0.211874
H6    H     H_    0.475638 0.833727 0.190961 0.239147
H7    H     H_    0.624395 0.098402 0.956348 0.235667
H8    H     H_    0.547679 0.221800 0.865217 0.247733
H9    H     H_    0.466357 0.080629 0.905431 0.226724
H10   H     H_    0.309169 0.467030 0.872800 0.158474
H11   H     H_    0.673563 0.690685 0.864507 0.160856
H12   H     H_    0.781872 0.587037 0.134491 0.207290
H13   H     H_    0.653933 0.699904 0.116596 0.194621
H14   H     H_    0.910140 0.559338 0.573230 0.155920
H15   H     H_    0.114346 0.451859 0.288913 0.162262
H16   H     H_    0.090433 0.484491 0.607537 0.177066
H17   H     H_    0.418895 0.120511 0.289155 0.168593
N1    N     N_R   0.500780 0.500930 0.147930 -0.189392
N2    N     N_R   0.500780 0.500890 0.852020 -0.203120
N3    N     N_1   0.836764 0.310829 0.200102 -0.287875
N4    N     N_1   0.807021 0.163407 0.642742 -0.287452
N5    N     N_1   0.918043 0.521295 0.840566 -0.317771
O1    O     O_R   0.500000 0.319640 0.618810 -0.581253
O2    O     O_R   0.500010 0.319680 0.381230 -0.578165
O3    O     O_R   0.321940 0.499980 0.618760 -0.591617
O4    O     O_R   0.321950 0.500020 0.381180 -0.593183
O5    O     O_R   0.499990 0.680320 0.618770 -0.578265
O6    O     O_R   0.500000 0.680360 0.381190 -0.579913
O7    O     O_R   0.678050 0.499980 0.618820 -0.576059
O8    O     O_R   0.678060 0.500020 0.381240 -0.574639

loop_
_geom_bond_atom_site_label_1
_geom_bond_atom_site_label_2
_ccdc_geom_bond_type
C17   N4    T    
C25   H2    S    
C20   H9    S    
C23   C24   A    
C11   H14   S    
C6    C7    S    
Cu1   O7    S    
C8    O6    A    
Cu1   O1    S    
C8    C23   S    
C12   C15   A    
C5    C27   A    
C2    H1    S    
C8    O5    A    
C25   H3    S    
C2    C3    A    
Cu1   O5    S    
C3    H10   S    
C10   C16   S    
C13   C14   D    
C16   N3    T    
C1    O2    A    
C20   H8    S    
C9    C11   S    
C1    C12   S    
C20   C26   S    
Cu2   N1    S    
C6    C18   S    
C17   C26   S    
C15   C24   A    
C5    N2    A    
Cu2   O6    S    
C18   N5    T    
C9    O7    A    
C14   H16   S    
C7    H12   S    
C4    O4    A    
C4    C14   S    
C5    C6    S    
C2    N1    A    
C1    O1    A    
C6    H11   S    
C10   C11   D    
C20   H7    S    
C3    N2    A    
C19   C22   S    
C7    C27   S    
C24   C25   S    
C21   H17   S    
C19   H4    S    
C7    H13   S    
C27   N1    A    
Cu1   O3    S    
C22   C23   A    
Cu1   Cu2   S    
C15   C26   S    
C19   H6    S    
Cu2   O4    S    
C4    O3    A    
C25   C26   S    
C21   C22   A    
C12   C21   A    
C19   H5    S    
C13   H15   S    
Cu1   N2    S    
Cu2   O8    S    
Cu2   O2    S    
C9    O8    A    
C10   C13   S    
