data_mof_unit_55574.cif
_audit_creation_date              2012-10-26T18:50:05-0400
_audit_creation_method            fapswitch 2.2
_symmetry_space_group_name_H-M    P1
_symmetry_Int_Tables_number       1
_space_group_crystal_system       triclinic
_cell_length_a                    10.827909
_cell_length_b                    13.001599
_cell_length_c                    11.689494
_cell_angle_alpha                 100.615858
_cell_angle_beta                  95.160151
_cell_angle_gamma                 91.292239
_cell_volume                      1609.63993945

loop_
_atom_site_label
_atom_site_type_symbol
_atom_type_description
_atom_site_fract_x
_atom_site_fract_y
_atom_site_fract_z
_atom_type_partial_charge
Br1   Br    Br    0.180446 0.649148 0.964066 -0.606354
Br2   Br    Br    0.819575 0.350878 0.035913 -0.606247
Br3   Br    Br    0.708781 0.685485 0.796800 -0.477332
Br4   Br    Br    0.291217 0.314517 0.203203 -0.477361
C1    C     C_R   0.498179 0.298826 0.478055 0.558132
C2    C     C_R   0.494123 0.859699 0.434052 -0.126535
C3    C     C_R   0.505095 0.032181 0.556037 0.046175
C4    C     C_R   0.494834 0.967816 0.443965 0.046157
C5    C     C_R   0.389983 0.393534 0.015546 -0.019099
C6    C     C_R   0.610022 0.606461 0.984457 -0.019091
C7    C     C_R   0.397835 0.405595 0.138976 0.305519
C8    C     C_R   0.602171 0.594402 0.861027 0.305537
C9    C     C_R   0.546362 0.546036 0.160227 0.037123
C10   C     C_R   0.453639 0.453961 0.839773 0.037136
C11   C     C_R   0.539469 0.538706 0.036618 -0.010170
C12   C     C_R   0.501812 0.701173 0.521945 0.558127
C13   C     C_R   0.460527 0.461295 0.963383 -0.010168
C14   C     C_R   0.262690 0.512729 0.500410 0.545601
C15   C     C_R   0.737313 0.487278 0.499588 0.545607
C16   C     C_R   0.136758 0.588449 0.713977 -0.051643
C17   C     C_R   0.863246 0.411594 0.286002 -0.051648
C18   C     C_R   0.089916 0.583611 0.820135 0.162206
C19   C     C_R   0.910098 0.416424 0.179844 0.162229
C20   C     C_R   0.979340 0.527476 0.820866 -0.077545
C21   C     C_R   0.020689 0.472537 0.179114 -0.077514
C22   C     C_R   0.910197 0.484888 0.715815 -0.085137
C23   C     C_R   0.502808 0.814894 0.534649 0.004381
C24   C     C_R   0.089824 0.515129 0.284168 -0.085133
C25   C     C_R   0.950190 0.498903 0.607429 0.014383
C26   C     C_R   0.049819 0.501126 0.392556 0.014394
C27   C     C_R   0.072469 0.537853 0.606699 -0.021356
C28   C     C_R   0.927535 0.462183 0.393284 -0.021344
C29   C     C_R   0.873129 0.474133 0.500445 -0.036397
C30   C     C_R   0.126877 0.525892 0.499543 -0.036402
C31   C     C_R   0.308042 0.309537 0.941826 0.029952
C32   C     C_R   0.352200 0.208837 0.908139 -0.084450
C33   C     C_R   0.274776 0.130166 0.837421 -0.101003
C34   C     C_R   0.497155 0.185104 0.465351 0.004378
C35   C     C_R   0.153595 0.151873 0.799516 -0.078255
C36   C     C_R   0.109424 0.252164 0.832654 -0.078380
C37   C     C_R   0.186394 0.330715 0.903758 -0.065289
C38   C     C_R   0.691990 0.690437 0.058185 0.029965
C39   C     C_R   0.813695 0.669273 0.096071 -0.065143
C40   C     C_R   0.890700 0.747795 0.167175 -0.078382
C41   C     C_R   0.846498 0.848033 0.200520 -0.078296
C42   C     C_R   0.725252 0.869717 0.162828 -0.101037
C43   C     C_R   0.647799 0.791082 0.092092 -0.084574
C44   C     C_R   0.485563 0.012538 0.343564 -0.133681
C45   C     C_R   0.514360 0.987459 0.656438 -0.133648
C46   C     C_R   0.487413 0.120848 0.354193 -0.114353
C47   C     C_R   0.512532 0.879150 0.645808 -0.114363
C48   C     C_R   0.505820 0.140299 0.565949 -0.126519
Cu1   Cu    Cu3+1 0.509250 0.507730 0.615930 0.997206
Cu2   Cu    Cu3+1 0.490750 0.492270 0.384070 0.997187
H1    H     H_    0.054114 0.482280 0.097282 0.151998
H2    H     H_    0.481081 0.154093 0.275591 0.169251
H3    H     H_    0.476898 0.963873 0.257149 0.112150
H4    H     H_    0.523014 0.036125 0.742853 0.112172
H5    H     H_    0.392517 0.396045 0.782199 0.138480
H6    H     H_    0.607489 0.603948 0.217802 0.138500
H7    H     H_    0.446140 0.191495 0.936625 0.128559
H8    H     H_    0.308500 0.052344 0.812050 0.117146
H9    H     H_    0.093929 0.090966 0.744614 0.126705
H10   H     H_    0.015629 0.269042 0.803357 0.137946
H11   H     H_    0.151782 0.407912 0.929146 0.141432
H12   H     H_    0.945942 0.517700 0.902694 0.151943
H13   H     H_    0.848324 0.592106 0.070554 0.141424
H14   H     H_    0.984544 0.730930 0.196315 0.138057
H15   H     H_    0.906189 0.908913 0.255429 0.126706
H16   H     H_    0.691504 0.947494 0.188375 0.117147
H17   H     H_    0.553808 0.808406 0.063772 0.128523
H18   H     H_    0.222378 0.633621 0.716293 0.163223
H19   H     H_    0.777625 0.366422 0.283680 0.163234
H20   H     H_    0.827313 0.438776 0.720939 0.161357
H21   H     H_    0.172718 0.561229 0.279045 0.161352
H22   H     H_    0.486749 0.810687 0.347737 0.129550
H23   H     H_    0.513200 0.189311 0.652263 0.129570
H24   H     H_    0.518869 0.845904 0.724410 0.169255
N1    N     N_R   0.523180 0.519350 0.790130 -0.235754
N2    N     N_R   0.476820 0.480650 0.209870 -0.235767
O1    O     O_R   0.506570 0.354460 0.582000 -0.524551
O2    O     O_R   0.493430 0.645540 0.418000 -0.524556
O3    O     O_R   0.490940 0.341410 0.386200 -0.466619
O4    O     O_R   0.509060 0.658590 0.613800 -0.466616
O5    O     O_R   0.327470 0.506520 0.597900 -0.516877
O6    O     O_R   0.672530 0.493480 0.402100 -0.516883
O7    O     O_R   0.311840 0.493460 0.402100 -0.467803
O8    O     O_R   0.688160 0.506540 0.597900 -0.467798

loop_
_geom_bond_atom_site_label_1
_geom_bond_atom_site_label_2
_ccdc_geom_bond_type
C17   H19   S    
C6    C38   S    
C31   C32   A    
C15   O6    A    
C33   H8    S    
C3    C4    A    
C9    H6    S    
Cu1   Cu2   S    
C21   C24   A    
C10   H5    S    
Cu1   O4    S    
C32   C33   A    
Cu1   N1    S    
C20   C22   A    
C3    C48   A    
C6    C11   A    
Cu2   O7    S    
C1    O3    A    
C34   C48   A    
C8    N1    A    
C25   C29   A    
C12   O4    A    
Cu1   O1    S    
Br3   C8    S    
C45   C47   A    
C20   H12   S    
C12   C23   S    
C44   C46   A    
C9    N2    A    
Br1   C18   S    
C1    C34   S    
C10   C13   A    
Cu2   O3    S    
C23   C47   A    
Cu2   N2    S    
C14   C30   S    
C17   C28   A    
C14   O5    A    
C26   C30   A    
C41   H15   S    
C44   H3    S    
C3    C45   A    
C15   O8    A    
C15   C29   S    
C35   C36   A    
Cu2   O6    S    
C37   H11   S    
C41   C42   A    
C46   H2    S    
C45   H4    S    
C39   C40   A    
C4    C44   A    
C39   H13   S    
C1    O1    A    
C2    C23   A    
C12   O2    A    
C27   C30   A    
C10   N1    A    
Br4   C7    S    
C5    C7    A    
C43   H17   S    
C6    C8    A    
C5    C13   A    
C36   C37   A    
C16   C18   A    
C9    C11   A    
C18   C20   A    
C40   H14   S    
C38   C39   A    
C48   H23   S    
Cu2   O2    S    
C40   C41   A    
C11   C13   A    
C42   C43   A    
C21   H1    S    
C2    C4    A    
C2    H22   S    
C34   C46   A    
C35   H9    S    
C14   O7    A    
C36   H10   S    
C28   C29   A    
C17   C19   A    
C47   H24   S    
C33   C35   A    
C26   C28   A    
C24   C26   A    
C22   H20   S    
Cu1   O8    S    
C38   C43   A    
C19   C21   A    
C31   C37   A    
C42   H16   S    
C7    N2    A    
C22   C25   A    
C25   C27   A    
Br2   C19   S    
C5    C31   S    
C16   H18   S    
Cu1   O5    S    
C24   H21   S    
C32   H7    S    
C16   C27   A    
