data_mof_unit_53497.cif
_audit_creation_date              2012-12-10T17:34:58-0500
_audit_creation_method            fapswitch 2.2
_symmetry_space_group_name_H-M    P1
_symmetry_Int_Tables_number       1
_space_group_crystal_system       triclinic
_cell_length_a                    12.352813
_cell_length_b                    13.299195
_cell_length_c                    13.8736
_cell_angle_alpha                 105.49058
_cell_angle_beta                  73.632043
_cell_angle_gamma                 116.511271
_cell_volume                      1930.18782685

loop_
_atom_site_label
_atom_site_type_symbol
_atom_type_description
_atom_site_fract_x
_atom_site_fract_y
_atom_site_fract_z
_atom_type_partial_charge
C1    C     C_R   0.144165 0.713169 0.511326 0.804485
C2    C     C_1   0.975057 0.507373 0.791930 -0.151619
C3    C     C_R   0.735552 0.974882 0.383606 -0.196537
C4    C     C_R   0.773614 0.165596 0.475068 -0.145168
C5    C     C_R   0.177791 0.904991 0.607558 -0.276764
C6    C     C_R   0.256855 0.008681 0.651893 0.629070
C7    C     C_R   0.383429 0.044203 0.618748 -0.193911
C8    C     C_R   0.434070 0.981945 0.532842 0.003791
C9    C     C_R   0.352786 0.874976 0.488537 0.067044
C10   C     C_R   0.562927 0.019786 0.491945 -0.003055
C11   C     C_R   0.608609 0.943656 0.418297 0.095622
C12   C     C_R   0.984150 0.504375 0.686469 0.815144
C13   C     C_R   0.527116 0.840021 0.374971 -0.205425
C14   C     C_R   0.401336 0.809737 0.404923 -0.160099
C15   C     C_R   0.647131 0.132782 0.515934 0.518280
C16   C     C_R   0.817880 0.084763 0.413485 -0.290951
C17   C     C_R   0.224915 0.834435 0.530533 -0.189441
C18   C     C_R   0.641835 0.678059 0.660068 -0.288836
C19   C     C_R   0.257925 0.350597 0.362331 0.290838
C20   C     C_R   0.350041 0.310718 0.347556 -0.232609
C21   C     C_R   0.441299 0.363604 0.404290 -0.211696
C22   C     C_R   0.445943 0.460029 0.477184 0.002630
C23   C     C_R   0.855847 0.286757 0.487596 0.843393
C24   C     C_R   0.344619 0.493264 0.499562 0.263402
C25   C     C_R   0.547624 0.523121 0.529225 -0.023463
C26   C     C_R   0.543783 0.615138 0.607559 0.163885
C27   C     C_R   0.442349 0.643677 0.632701 -0.265412
C28   C     C_R   0.345251 0.584374 0.579921 -0.160350
C29   C     C_R   0.655091 0.500185 0.505201 0.079774
C30   C     C_R   0.743699 0.650167 0.633990 0.083498
C31   C     C_R   0.015819 0.495505 0.313516 0.799504
C32   C     C_1   0.024909 0.492049 0.207976 -0.172484
C33   C     C_2   0.039113 0.486285 0.013643 -0.151568
C34   C     C_2   0.960924 0.512421 0.986111 -0.161070
C35   C     C_1   0.967982 0.509839 0.880606 0.017358
C36   C     C_1   0.032085 0.489170 0.119204 0.003629
Cu1   Cu    Cu3+1 0.899780 0.525060 0.522890 0.976215
Cu2   Cu    Cu3+1 0.100220 0.474940 0.477110 0.921685
H1    H     H_    0.891345 0.535988 0.042619 0.157108
H2    H     H_    0.342933 0.733879 0.361765 0.163440
H3    H     H_    0.819358 0.698467 0.674560 0.126173
H4    H     H_    0.438426 0.713653 0.693375 0.154111
H5    H     H_    0.639855 0.748510 0.720731 0.144353
H6    H     H_    0.667813 0.434244 0.444510 0.127750
H7    H     H_    0.508297 0.327351 0.387780 0.153972
H8    H     H_    0.356367 0.240266 0.289174 0.147387
H9    H     H_    0.272571 0.613198 0.605209 0.202476
H10   H     H_    0.108730 0.462740 0.957172 0.168239
H11   H     H_    0.915153 0.108556 0.382217 0.182429
H12   H     H_    0.560783 0.784384 0.314178 0.140967
H13   H     H_    0.770811 0.915752 0.329735 0.152876
H14   H     H_    0.080306 0.875552 0.640068 0.178887
H15   H     H_    0.438670 0.117594 0.665534 0.234053
N1    N     N_R   0.748810 0.563010 0.557590 -0.184720
N2    N     N_R   0.250540 0.437620 0.443020 -0.219767
O1    O     O_R   0.025040 0.682470 0.528790 -0.584917
O2    O     O_R   0.194310 0.640150 0.490130 -0.606280
O3    O     O_R   0.903380 0.524130 0.659910 -0.565629
O4    O     O_R   0.072660 0.481800 0.621240 -0.587643
O5    O     O_R   0.805690 0.359850 0.509870 -0.509374
O6    O     O_R   0.974960 0.317530 0.471210 -0.611731
O7    O     O_R   0.927340 0.518200 0.378760 -0.579849
O8    O     O_R   0.096620 0.475870 0.340090 -0.609506
C37   C     C_3   0.178299 0.304602 0.280728 -0.368156
C38   C     C_3   0.175398 0.192775 0.209423 -0.464555
C39   C     C_3   0.080132 0.149315 0.141433 -0.791526
H16   H     H_    0.986122 0.129616 0.188316 0.242548
H17   H     H_    0.101115 0.214217 0.094818 0.266419
H18   H     H_    0.082145 0.070292 0.089502 0.256752
H19   H     H_    0.266770 0.207103 0.158857 0.236006
H20   H     H_    0.151558 0.126199 0.255223 0.231155
H21   H     H_    0.082128 0.287438 0.315576 0.247973
H22   H     H_    0.213146 0.370691 0.231866 0.209268
F1    F     F_    0.606458 0.214848 0.569157 -0.681281
F2    F     F_    0.211012 0.071535 0.732672 -0.658196

loop_
_geom_bond_atom_site_label_1
_geom_bond_atom_site_label_2
_ccdc_geom_bond_type
C2    C35   T    
C39   H17   S    
C28   H9    S    
C19   C20   A    
C18   C26   A    
C2    C12   S    
Cu1   O7    S    
C7    C8    A    
C24   N2    A    
C30   N1    A    
C26   C27   A    
C32   C36   T    
C1    O1    A    
C10   C15   A    
C5    C6    A    
C39   H18   S    
C5    C17   A    
C29   N1    A    
C38   H19   S    
C33   C36   S    
C34   C35   S    
C12   O4    A    
Cu2   N2    S    
C8    C9    A    
C22   C25   A    
C37   H22   S    
C5    H14   S    
C18   C30   A    
Cu1   O3    S    
Cu2   O6    S    
C12   O3    A    
C39   H16   S    
C13   C14   A    
Cu1   O1    S    
C31   O7    A    
C21   H7    S    
C25   C29   A    
C23   O5    A    
C34   H1    S    
C31   O8    A    
C6    F2    S    
C16   H11   S    
C4    C23   S    
C3    H13   S    
C25   C26   A    
C38   H20   S    
C13   H12   S    
C4    C16   A    
C9    C14   A    
Cu1   Cu2   S    
C1    O2    A    
Cu2   O2    S    
C31   C32   S    
C19   C37   S    
C33   C34   D    
C30   H3    S    
Cu1   N1    S    
C9    C17   A    
C29   H6    S    
C22   C24   A    
C7    H15   S    
Cu2   O8    S    
C19   N2    A    
C24   C28   A    
C6    C7    A    
C1    C17   S    
C37   C38   S    
C4    C15   A    
C18   H5    S    
C11   C13   A    
C27   H4    S    
C37   H21   S    
Cu1   O5    S    
C3    C11   A    
C10   C11   A    
C14   H2    S    
Cu2   O4    S    
C23   O6    A    
C15   F1    S    
C20   C21   A    
C8    C10   A    
C38   C39   S    
C27   C28   A    
C33   H10   S    
C21   C22   A    
C20   H8    S    
C3    C16   A    
