data_mof_unit_66242.cif
_audit_creation_date              2012-12-10T21:23:20-0500
_audit_creation_method            fapswitch 2.2
_symmetry_space_group_name_H-M    P1
_symmetry_Int_Tables_number       1
_space_group_crystal_system       monoclinic
_cell_length_a                    24.830139
_cell_length_b                    24.806477
_cell_length_c                    16.752424
_cell_angle_alpha                 89.996867
_cell_angle_beta                  90.0
_cell_angle_gamma                 90.0
_cell_volume                      10318.6265994

loop_
_atom_site_label
_atom_site_type_symbol
_atom_type_description
_atom_site_fract_x
_atom_site_fract_y
_atom_site_fract_z
_atom_type_partial_charge
C1    C     C_R   0.072997 0.426109 0.500013 0.879670
C2    C     C_R   0.926218 0.573110 0.500010 0.878047
C3    C     C_R   0.926218 0.426890 0.499990 0.878047
C4    C     C_R   0.072997 0.573891 0.499987 0.879669
C5    C     C_R   0.572997 0.926109 0.500013 0.879670
C6    C     C_R   0.426218 0.073110 0.500010 0.878048
C7    C     C_R   0.426218 0.926890 0.499990 0.878048
C8    C     C_R   0.572997 0.073891 0.499987 0.879670
C9    C     C_R   0.011006 0.453722 0.747558 -0.043527
C10   C     C_R   0.011005 0.546278 0.252442 -0.043527
C11   C     C_R   0.988994 0.546276 0.747556 -0.045211
C12   C     C_R   0.988995 0.453724 0.252444 -0.045210
C13   C     C_R   0.511006 0.953722 0.747558 -0.043527
C14   C     C_R   0.511007 0.046278 0.252441 -0.043526
C15   C     C_R   0.488994 0.046276 0.747556 -0.045210
C16   C     C_R   0.488993 0.953724 0.252444 -0.045210
C17   C     C_R   0.000003 0.499996 0.875543 -0.043661
C18   C     C_R   0.000003 0.500004 0.124457 -0.043663
C19   C     C_R   0.500003 0.999996 0.875543 -0.043664
C20   C     C_R   0.500003 0.000004 0.124457 -0.043663
C21   C     C_1   0.000004 0.499998 0.963502 0.198451
C22   C     C_1   0.000005 0.500002 0.036498 0.198451
C23   C     C_1   0.500005 0.999998 0.963502 0.198458
C24   C     C_1   0.500005 0.000002 0.036498 0.198458
C25   C     C_R   0.163002 0.684522 0.572308 -0.149718
C26   C     C_R   0.816156 0.336404 0.427235 -0.148936
C27   C     C_R   0.815493 0.337037 0.572272 -0.151691
C28   C     C_R   0.162701 0.684651 0.427264 -0.146587
C29   C     C_R   0.815493 0.662963 0.427727 -0.151690
C30   C     C_R   0.162701 0.315349 0.572735 -0.146587
C31   C     C_R   0.163002 0.315478 0.427692 -0.149718
C32   C     C_R   0.816156 0.663596 0.572765 -0.148936
C33   C     C_R   0.663002 0.184522 0.572308 -0.149718
C34   C     C_R   0.316156 0.836404 0.427235 -0.148936
C35   C     C_R   0.315493 0.837037 0.572272 -0.151691
C36   C     C_R   0.662701 0.184651 0.427264 -0.146586
C37   C     C_R   0.315493 0.162963 0.427727 -0.151691
C38   C     C_R   0.662701 0.815349 0.572735 -0.146586
C39   C     C_R   0.663002 0.815478 0.427692 -0.149718
C40   C     C_R   0.316156 0.163596 0.572765 -0.148936
C41   C     C_R   0.128489 0.640600 0.572512 -0.184918
C42   C     C_R   0.860058 0.370923 0.427223 -0.185283
C43   C     C_R   0.859395 0.371555 0.572505 -0.185111
C44   C     C_R   0.128190 0.640729 0.427223 -0.184998
C45   C     C_R   0.859395 0.628445 0.427494 -0.185111
C46   C     C_R   0.128190 0.359271 0.572777 -0.184998
C47   C     C_R   0.128489 0.359400 0.427488 -0.184918
C48   C     C_R   0.860058 0.629077 0.572777 -0.185283
C49   C     C_R   0.628489 0.140600 0.572512 -0.184918
C50   C     C_R   0.360057 0.870923 0.427223 -0.185282
C51   C     C_R   0.359395 0.871554 0.572505 -0.185111
C52   C     C_R   0.628190 0.140729 0.427223 -0.184998
C53   C     C_R   0.359395 0.128445 0.427494 -0.185112
C54   C     C_R   0.628190 0.859271 0.572777 -0.184998
C55   C     C_R   0.628489 0.859400 0.427488 -0.184918
C56   C     C_R   0.360057 0.129077 0.572777 -0.185283
C57   C     C_R   0.110963 0.618453 0.499912 -0.051743
C58   C     C_R   0.881852 0.388711 0.499923 -0.048631
C59   C     C_R   0.881853 0.611289 0.500077 -0.048631
C60   C     C_R   0.110963 0.381547 0.500088 -0.051743
C61   C     C_R   0.610963 0.118453 0.499912 -0.051743
C62   C     C_R   0.381852 0.888711 0.499923 -0.048632
C63   C     C_R   0.381852 0.111289 0.500077 -0.048631
C64   C     C_R   0.610963 0.881547 0.500088 -0.051743
C65   C     C_R   0.179816 0.706257 0.499747 0.152159
C66   C     C_R   0.794115 0.319816 0.499698 0.153194
C67   C     C_R   0.794115 0.680184 0.500302 0.153194
C68   C     C_R   0.179816 0.293743 0.500252 0.152159
C69   C     C_R   0.679816 0.206257 0.499747 0.152159
C70   C     C_R   0.294115 0.819816 0.499698 0.153194
C71   C     C_R   0.294115 0.180184 0.500302 0.153194
C72   C     C_R   0.679816 0.793743 0.500252 0.152159
C73   C     C_1   0.217877 0.748328 0.499663 -0.053208
C74   C     C_1   0.751814 0.282020 0.499646 -0.053244
C75   C     C_1   0.751814 0.717980 0.500354 -0.053244
C76   C     C_1   0.217877 0.251672 0.500337 -0.053208
C77   C     C_1   0.717877 0.248328 0.499663 -0.053208
C78   C     C_1   0.251814 0.782020 0.499646 -0.053244
C79   C     C_1   0.251814 0.217980 0.500354 -0.053244
C80   C     C_1   0.717877 0.751672 0.500337 -0.053208
C81   C     C_R   0.012207 0.452311 0.831957 -0.114051
C82   C     C_R   0.012206 0.547689 0.168043 -0.114052
C83   C     C_R   0.987799 0.547682 0.831954 -0.114107
C84   C     C_R   0.987800 0.452317 0.168046 -0.114106
C85   C     C_R   0.512207 0.952311 0.831957 -0.114053
C86   C     C_R   0.512208 0.047689 0.168043 -0.114054
C87   C     C_R   0.487799 0.047682 0.831954 -0.114107
C88   C     C_R   0.487798 0.952318 0.168046 -0.114109
H1    H     H_    0.176970 0.701161 0.628439 0.144289
H2    H     H_    0.799718 0.322325 0.371038 0.144208
H3    H     H_    0.798536 0.323452 0.628399 0.143678
H4    H     H_    0.176432 0.701388 0.371067 0.145121
H5    H     H_    0.798536 0.676548 0.371601 0.143678
H6    H     H_    0.176432 0.298612 0.628933 0.145121
H7    H     H_    0.176970 0.298839 0.371561 0.144289
H8    H     H_    0.799718 0.677675 0.628962 0.144209
H9    H     H_    0.676970 0.201161 0.628439 0.144288
H10   H     H_    0.299718 0.822325 0.371038 0.144209
H11   H     H_    0.298536 0.823452 0.628399 0.143678
H12   H     H_    0.676432 0.201388 0.371067 0.145121
H13   H     H_    0.298536 0.176548 0.371601 0.143678
H14   H     H_    0.676432 0.798612 0.628933 0.145121
H15   H     H_    0.676970 0.798839 0.371561 0.144288
H16   H     H_    0.299718 0.177675 0.628962 0.144209
H17   H     H_    0.115510 0.624157 0.629240 0.169113
H18   H     H_    0.876718 0.383753 0.370560 0.163721
H19   H     H_    0.875522 0.384899 0.629240 0.168693
H20   H     H_    0.114973 0.624395 0.370546 0.163880
H21   H     H_    0.875522 0.615101 0.370760 0.168693
H22   H     H_    0.114972 0.375605 0.629454 0.163879
H23   H     H_    0.115511 0.375843 0.370760 0.169113
H24   H     H_    0.876718 0.616247 0.629440 0.163721
H25   H     H_    0.615510 0.124158 0.629240 0.169113
H26   H     H_    0.376718 0.883753 0.370560 0.163721
H27   H     H_    0.375522 0.884899 0.629240 0.168692
H28   H     H_    0.614973 0.124395 0.370546 0.163880
H29   H     H_    0.375522 0.115101 0.370760 0.168692
H30   H     H_    0.614973 0.875605 0.629454 0.163880
H31   H     H_    0.615511 0.875843 0.370760 0.169113
H32   H     H_    0.376718 0.116247 0.629440 0.163721
H33   H     H_    0.019842 0.417722 0.713500 0.163437
H34   H     H_    0.019840 0.582279 0.286500 0.163439
H35   H     H_    0.980154 0.582278 0.713496 0.164180
H36   H     H_    0.980156 0.417722 0.286503 0.164179
H37   H     H_    0.519843 0.917722 0.713500 0.163440
H38   H     H_    0.519844 0.082278 0.286500 0.163440
H39   H     H_    0.480153 0.082277 0.713497 0.164181
H40   H     H_    0.480152 0.917723 0.286503 0.164182
N1    N     N_R   0.000000 0.500000 0.707230 -0.105000
N2    N     N_R   0.000000 0.500000 0.292770 -0.105000
N3    N     N_R   0.500000 0.000000 0.707230 -0.105001
N4    N     N_R   0.500000 0.000000 0.292770 -0.105001
O1    O     O_R   0.055440 0.444550 0.566570 -0.625644
O2    O     O_R   0.944560 0.555450 0.433430 -0.615494
O3    O     O_R   0.944560 0.555450 0.566570 -0.626699
O4    O     O_R   0.055440 0.444550 0.433430 -0.614583
O5    O     O_R   0.944560 0.444550 0.433430 -0.626699
O6    O     O_R   0.055440 0.555450 0.566570 -0.614582
O7    O     O_R   0.055440 0.555450 0.433430 -0.625643
O8    O     O_R   0.944560 0.444550 0.566570 -0.615493
O9    O     O_R   0.555440 0.944550 0.566570 -0.625644
O10   O     O_R   0.444560 0.055450 0.433430 -0.615493
O11   O     O_R   0.444560 0.055450 0.566570 -0.626700
O12   O     O_R   0.555440 0.944550 0.433430 -0.614582
O13   O     O_R   0.444560 0.944550 0.433430 -0.626700
O14   O     O_R   0.555440 0.055450 0.566570 -0.614582
O15   O     O_R   0.555440 0.055450 0.433430 -0.625644
O16   O     O_R   0.444560 0.944550 0.566570 -0.615493
Zn1   Zn    Zn3+2 0.000000 0.500000 0.588860 0.957673
Zn2   Zn    Zn3+2 0.000000 0.500000 0.411140 0.957673
Zn3   Zn    Zn3+2 0.500000 0.000000 0.588860 0.957673
Zn4   Zn    Zn3+2 0.500000 0.000000 0.411140 0.957673
C89   C     C_2   0.026739 0.400627 0.871822 0.923844
O17   O     O_2   0.019130 0.357832 0.837316 -0.632839
O18   O     O_R   0.050388 0.400482 0.947569 -0.796321
H41   H     H_    0.058304 0.362764 0.967715 0.356506
C90   C     C_2   0.026737 0.599374 0.128178 0.923844
O19   O     O_2   0.019129 0.642168 0.162686 -0.632840
O20   O     O_R   0.050384 0.599519 0.052430 -0.796321
H42   H     H_    0.058300 0.637238 0.032284 0.356507
C91   C     C_2   0.973282 0.599366 0.871819 0.923869
O21   O     O_2   0.980952 0.642164 0.837345 -0.632452
O22   O     O_R   0.949582 0.599506 0.947531 -0.796664
H43   H     H_    0.941683 0.637225 0.967685 0.356585
C92   C     C_2   0.973286 0.400634 0.128180 0.923868
O23   O     O_2   0.980958 0.357836 0.162653 -0.632450
O24   O     O_R   0.949585 0.400493 0.052469 -0.796667
H44   H     H_    0.941688 0.362774 0.032315 0.356586
C93   C     C_2   0.526740 0.900627 0.871822 0.923845
O25   O     O_2   0.519135 0.857833 0.837314 -0.632841
O26   O     O_R   0.550386 0.900483 0.947570 -0.796321
H45   H     H_    0.558304 0.862764 0.967716 0.356506
C94   C     C_2   0.526741 0.099372 0.128178 0.923843
O27   O     O_2   0.519136 0.142167 0.162687 -0.632840
O28   O     O_R   0.550386 0.099517 0.052429 -0.796322
H46   H     H_    0.558304 0.137236 0.032283 0.356507
C95   C     C_2   0.473282 0.099365 0.871820 0.923870
O29   O     O_2   0.480951 0.142163 0.837345 -0.632452
O30   O     O_R   0.449583 0.099506 0.947532 -0.796667
H47   H     H_    0.441685 0.137225 0.967686 0.356585
C96   C     C_2   0.473281 0.900635 0.128180 0.923869
O31   O     O_2   0.480949 0.857836 0.162656 -0.632452
O32   O     O_R   0.449583 0.900494 0.052467 -0.796667
H48   H     H_    0.441684 0.862775 0.032313 0.356586

loop_
_geom_bond_atom_site_label_1
_geom_bond_atom_site_label_2
_ccdc_geom_bond_type
C49   H25   S    
O26   H45   S    
C90   O19   D    
C40   C71   A    
C70   C78   S    
C93   O26   S    
C93   O25   D    
N3    Zn3   S    
O22   H43   S    
C76   C79   T    
C42   C58   A    
C71   C79   S    
C91   O21   D    
C81   C89   S    
C55   H31   S    
C94   O27   D    
O9    Zn3   S    
C92   O23   D    
C12   N2    A    
C31   C47   A    
C53   H29   S    
C19   C87   A    
C52   C61   A    
C45   H21   S    
C87   C95   S    
C33   C49   A    
O2    Zn2   S    
C65   C73   S    
C12   C84   A    
O10   Zn4   S    
C84   C92   S    
C37   H13   S    
C43   C58   A    
C18   C82   A    
C47   C60   A    
C29   C67   A    
C69   C77   S    
C39   C55   A    
C20   C24   S    
C35   C70   A    
C95   O30   S    
C74   C77   T    
C20   C86   A    
C4    C57   S    
N2    Zn2   S    
C9    H33   S    
C39   C72   A    
O16   Zn3   S    
C27   H3    S    
O8    Zn1   S    
C3    O5    A    
C6    O10   A    
C1    O4    A    
C75   C80   T    
C34   C70   A    
C33   H9    S    
C36   C52   A    
C33   C69   A    
C8    C61   S    
C38   H14   S    
C37   C53   A    
C52   H28   S    
C83   C91   S    
C90   O20   S    
C15   H39   S    
C21   C22   T    
C56   H32   S    
C51   C62   A    
C1    O1    A    
C11   N1    A    
C91   O22   S    
C44   H20   S    
O6    Zn1   S    
C31   C68   A    
C38   C72   A    
C34   C50   A    
C49   C61   A    
C26   C66   A    
O1    Zn1   S    
C14   C86   A    
C28   H4    S    
C16   C88   A    
C96   O32   S    
C25   C41   A    
O24   H44   S    
C82   C90   S    
C2    C59   S    
C30   H6    S    
C5    O12   A    
C14   N4    A    
C11   C83   A    
C96   O31   D    
C4    O6    A    
C28   C44   A    
C51   H27   S    
O14   Zn3   S    
C5    C64   S    
C29   C45   A    
C17   C83   A    
C6    C63   S    
C19   C23   S    
O32   H48   S    
C10   N2    A    
C7    C62   S    
N1    Zn1   S    
C40   H16   S    
C16   H40   S    
C5    O9    A    
O20   H42   S    
C38   C54   A    
C44   C57   A    
C73   C78   T    
C55   C64   A    
C17   C21   S    
C13   N3    A    
C56   C63   A    
C25   C65   A    
C36   H12   S    
C40   C56   A    
C43   H19   S    
C35   H11   S    
C89   O18   S    
C94   O28   S    
C41   H17   S    
C32   C67   A    
C10   H34   S    
C32   H8    S    
C37   C71   A    
C35   C51   A    
C50   C62   A    
O5    Zn2   S    
C1    C60   S    
C8    O15   A    
C67   C75   S    
C36   C69   A    
C26   C42   A    
C48   C59   A    
C15   C87   A    
C7    O16   A    
C11   H35   S    
C45   C59   A    
C46   C60   A    
C18   C22   S    
C30   C46   A    
C8    O14   A    
C19   C85   A    
O4    Zn2   S    
C2    O2    A    
C39   H15   S    
C9    N1    A    
C68   C76   S    
O7    Zn2   S    
C25   H1    S    
C2    O3    A    
C14   H38   S    
C47   H23   S    
C86   C94   S    
N4    Zn4   S    
C54   H30   S    
C28   C65   A    
C6    O11   A    
C13   H37   S    
C18   C84   A    
C72   C80   S    
O28   H46   S    
O3    Zn1   S    
C4    O7    A    
C29   H5    S    
C53   C63   A    
C88   C96   S    
C32   C48   A    
C54   C64   A    
C31   H7    S    
C20   C88   A    
O11   Zn3   S    
C34   H10   S    
C10   C82   A    
O15   Zn4   S    
C17   C81   A    
C16   N4    A    
C85   C93   S    
O13   Zn4   S    
C23   C24   T    
C41   C57   A    
O30   H47   S    
C42   H18   S    
C3    C58   S    
C27   C43   A    
C15   N3    A    
C92   O24   S    
C95   O29   D    
C13   C85   A    
O18   H41   S    
C27   C66   A    
C48   H24   S    
C46   H22   S    
C3    O8    A    
C26   H2    S    
C50   H26   S    
C89   O17   D    
C12   H36   S    
C30   C68   A    
O12   Zn4   S    
C9    C81   A    
C7    O13   A    
C66   C74   S    
