data_mof_unit_58948.cif
_audit_creation_date              2012-12-10T16:49:31-0500
_audit_creation_method            fapswitch 2.2
_symmetry_space_group_name_H-M    P1
_symmetry_Int_Tables_number       1
_space_group_crystal_system       triclinic
_cell_length_a                    7.830926
_cell_length_b                    8.69363
_cell_length_c                    12.914633
_cell_angle_alpha                 87.357432
_cell_angle_beta                  89.622734
_cell_angle_gamma                 94.632597
_cell_volume                      875.36638259

loop_
_atom_site_label
_atom_site_type_symbol
_atom_type_description
_atom_site_fract_x
_atom_site_fract_y
_atom_site_fract_z
_atom_type_partial_charge
C1    C     C_R   0.454361 0.205871 0.498584 0.833879
C2    C     C_R   0.686081 0.421041 0.148137 -0.255838
C3    C     C_R   0.573879 0.447201 0.872179 -0.289178
C4    C     C_R   0.426836 0.553846 0.127583 -0.286469
C5    C     C_R   0.568474 0.462684 0.978255 0.135700
C6    C     C_R   0.432830 0.538907 0.021477 0.137839
C7    C     C_2   0.430123 0.042301 0.505307 0.130841
C8    C     C_2   0.568394 0.957844 0.492908 0.116354
C9    C     C_3   0.075599 0.668959 0.320054 0.246262
C10   C     C_3   0.985500 0.770248 0.243023 -0.943200
C11   C     C_3   0.918758 0.264589 0.651990 0.228483
C12   C     C_R   0.545287 0.794255 0.501583 0.855956
C13   C     C_3   0.999463 0.311335 0.753519 -0.959069
C14   C     C_3   0.236662 0.959266 0.632642 0.136356
C15   C     C_3   0.075070 0.852822 0.654440 -0.728306
C16   C     C_3   0.748666 0.057160 0.363035 0.161704
C17   C     C_3   0.918312 0.151662 0.340688 -0.724002
C18   C     C_R   0.468143 0.502653 0.699239 0.845620
C19   C     C_R   0.532156 0.498079 0.300685 0.849729
C20   C     C_R   0.550246 0.492546 0.190316 -0.078980
C21   C     C_R   0.451052 0.509553 0.809461 -0.075170
C22   C     C_R   0.305572 0.597939 0.957749 0.106041
C23   C     C_R   0.696194 0.404281 0.041926 0.102045
C24   C     C_R   0.317059 0.583491 0.851450 -0.253061
H1    H     H_    0.326059 0.613074 0.162125 0.161635
H2    H     H_    0.204872 0.726723 0.332529 0.178885
H3    H     H_    0.002794 0.890742 0.265862 0.259086
H4    H     H_    0.045074 0.767752 0.165643 0.229196
H5    H     H_    0.847560 0.730766 0.238200 0.269008
H6    H     H_    0.918969 0.137887 0.648198 0.159705
H7    H     H_    0.783867 0.287526 0.651530 0.180326
H8    H     H_    0.982875 0.434931 0.765324 0.254838
H9    H     H_    0.936694 0.238520 0.817833 0.227234
H10   H     H_    0.137926 0.292860 0.753448 0.269594
H11   H     H_    0.220041 0.073552 0.664532 0.141169
H12   H     H_    0.674070 0.387377 0.837503 0.179247
H13   H     H_    0.344634 0.907148 0.673596 0.097752
H14   H     H_    0.098236 0.732874 0.636201 0.263116
H15   H     H_    0.038282 0.854799 0.737519 0.161852
H16   H     H_    0.967915 0.889557 0.605940 0.291319
H17   H     H_    0.644420 0.125969 0.332432 0.106166
H18   H     H_    0.743264 0.948424 0.321242 0.132328
H19   H     H_    0.024762 0.096659 0.380351 0.295266
H20   H     H_    0.944391 0.160853 0.255953 0.155811
H21   H     H_    0.912571 0.269626 0.368707 0.263877
H22   H     H_    0.782439 0.375921 0.197996 0.157365
H23   H     H_    0.222816 0.631831 0.801431 0.157265
H24   H     H_    0.089016 0.588444 0.042791 0.173322
H25   H     H_    0.090042 0.717161 0.942247 0.181963
H26   H     H_    0.913308 0.410579 0.957526 0.182120
H27   H     H_    0.908746 0.281115 0.057686 0.181904
H28   H     H_    0.082712 0.554780 0.285035 0.124885
N1    N     N_2   0.054030 0.541640 0.471970 0.149215
N2    N     N_2   0.945970 0.458360 0.528030 0.157630
N3    N     N_3   0.166560 0.673107 0.000807 -0.486562
N4    N     N_3   0.833802 0.326924 0.998969 -0.483511
O1    O     O_R   0.609680 0.261530 0.506880 -0.625162
O2    O     O_3   0.017069 0.332698 0.568235 -0.511884
O3    O     O_3   0.264697 0.976359 0.524390 -0.577780
O4    O     O_3   0.732950 0.023322 0.470912 -0.597801
O5    O     O_R   0.390320 0.738470 0.493120 -0.604881
O6    O     O_R   0.323330 0.288220 0.488910 -0.551045
O7    O     O_R   0.676670 0.711780 0.511090 -0.555210
O8    O     O_R   0.619510 0.488830 0.661140 -0.665202
O9    O     O_R   0.380490 0.511170 0.338860 -0.681859
O10   O     O_R   0.333160 0.515520 0.643180 -0.607946
O11   O     O_R   0.666840 0.484480 0.356820 -0.604586
O12   O     O_3   0.983197 0.651622 0.413824 -0.502367
Zn1   Zn    Zn3+2 0.691200 0.482180 0.511990 1.009447
Zn2   Zn    Zn3+2 0.308800 0.517820 0.488010 1.009732

loop_
_geom_bond_atom_site_label_1
_geom_bond_atom_site_label_2
_ccdc_geom_bond_type
C10   H3    S    
O5    Zn2   S    
H24   N3    S    
C17   H19   S    
C15   H14   S    
C19   O11   A    
C22   N3    S    
C14   O3    S    
C1    O1    A    
C18   O10   A    
C11   O2    S    
H26   N4    S    
C9    C10   S    
C13   H8    S    
C19   C20   S    
C5    C23   A    
C8    C12   S    
C18   O8    A    
C1    O6    A    
C2    C23   A    
C6    C22   A    
C4    H1    S    
C17   H20   S    
C11   H7    S    
C7    C8    D    
C9    H28   S    
O8    Zn1   S    
C8    O4    S    
C14   H13   S    
C13   H9    S    
C12   O5    A    
C11   C13   S    
C10   H5    S    
C15   H15   S    
O10   Zn2   S    
N2    Zn1   S    
C3    H12   S    
C11   H6    S    
N1    Zn2   S    
C7    O3    S    
C17   H21   S    
C9    H2    S    
C19   O9    A    
C16   O4    S    
C5    C6    A    
C22   C24   A    
C15   H16   S    
C9    O12   S    
C3    C21   A    
C2    C20   A    
O9    Zn2   S    
C18   C21   S    
C16   H18   S    
C23   N4    S    
O6    Zn2   S    
C4    C6    A    
H27   N4    S    
N2    O2    S    
C21   C24   A    
C10   H4    S    
C14   H11   S    
C12   O7    A    
N1    O12   S    
C14   C15   S    
C13   H10   S    
C3    C5    A    
O1    Zn1   S    
C1    C7    S    
C24   H23   S    
C16   H17   S    
C2    H22   S    
O7    Zn1   S    
N1    N2    D    
C16   C17   S    
O11   Zn1   S    
H25   N3    S    
C4    C20   A    
