data_mof_unit_25083.cif
_audit_creation_date              2012-12-10T17:46:30-0500
_audit_creation_method            fapswitch 2.2
_symmetry_space_group_name_H-M    P1
_symmetry_Int_Tables_number       1
_space_group_crystal_system       triclinic
_cell_length_a                    21.041484
_cell_length_b                    21.50492
_cell_length_c                    14.712353
_cell_angle_alpha                 90.35074
_cell_angle_beta                  128.315842
_cell_angle_gamma                 89.076536
_cell_volume                      5222.58712002

loop_
_atom_site_label
_atom_site_type_symbol
_atom_type_description
_atom_site_fract_x
_atom_site_fract_y
_atom_site_fract_z
_atom_type_partial_charge
C1    C     C_R   0.601793 0.912997 0.630526 0.804760
C2    C     C_R   0.394937 0.084100 0.365198 0.802644
C3    C     C_R   0.399289 0.913448 0.370194 0.800688
C4    C     C_R   0.601040 0.086477 0.630314 0.805410
C5    C     C_R   0.101666 0.412796 0.630279 0.801695
C6    C     C_R   0.895212 0.584527 0.365765 0.809586
C7    C     C_R   0.899139 0.413298 0.369909 0.796564
C8    C     C_R   0.102521 0.585714 0.631917 0.816234
C9    C     C_R   0.273630 0.801859 0.870967 0.388634
C10   C     C_R   0.737375 0.190196 0.138049 0.350288
C11   C     C_R   0.629851 0.739173 0.018187 0.415930
C12   C     C_R   0.320796 0.215152 0.911159 0.358470
C13   C     C_R   0.764344 0.308208 0.863671 0.419283
C14   C     C_R   0.239799 0.690366 0.143397 0.351682
C15   C     C_R   0.129164 0.233739 0.012689 0.332123
C16   C     C_R   0.819408 0.715251 0.912910 0.353064
C17   C     C_R   0.325342 0.021539 0.665590 -0.236398
C18   C     C_R   0.674476 0.978238 0.334126 -0.229922
C19   C     C_R   0.824895 0.519510 0.665462 -0.232534
C20   C     C_R   0.175274 0.481664 0.334689 -0.243297
C21   C     C_R   0.353564 0.012205 0.602485 0.093338
C22   C     C_R   0.646355 0.987572 0.397360 0.092288
C23   C     C_R   0.853132 0.509987 0.602354 0.095264
C24   C     C_R   0.146541 0.488430 0.397548 0.080646
C25   C     C_R   0.487150 0.994074 0.775235 0.043058
C26   C     C_R   0.512832 0.006133 0.224726 0.039140
C27   C     C_R   0.987826 0.497311 0.775551 0.046920
C28   C     C_R   0.013080 0.507317 0.224916 0.047340
C29   C     C_R   0.461773 0.001147 0.844530 0.013360
C30   C     C_R   0.538117 0.998992 0.155278 0.003118
C31   C     C_R   0.962704 0.505150 0.845076 -0.032293
C32   C     C_R   0.038913 0.502618 0.155851 0.028225
C33   C     C_R   0.379352 0.017150 0.786625 0.217260
C34   C     C_R   0.620472 0.982788 0.213082 0.189521
C35   C     C_R   0.879413 0.517825 0.786745 0.181918
C36   C     C_R   0.121674 0.487883 0.213870 0.214650
C37   C     C_R   0.514946 0.994340 0.968100 0.097771
C38   C     C_R   0.484929 0.005859 0.031669 0.111794
C39   C     C_R   0.016546 0.500804 0.969070 0.114313
C40   C     C_R   0.985859 0.510136 0.032329 0.126436
C41   C     C_R   0.403173 0.024644 0.969712 -0.179518
C42   C     C_R   0.596845 0.975790 0.030100 -0.124490
C43   C     C_R   0.903125 0.526064 0.969805 -0.132184
C44   C     C_R   0.099555 0.485990 0.031703 -0.139977
C45   C     C_R   0.351517 0.029564 0.849713 -0.065100
C46   C     C_R   0.648352 0.970514 0.149980 -0.043708
C47   C     C_R   0.851094 0.529235 0.849596 -0.052926
C48   C     C_R   0.150606 0.479267 0.151303 -0.077988
C49   C     C_R   0.647001 0.142260 0.691122 -0.083755
C50   C     C_R   0.353856 0.857600 0.310458 -0.084553
C51   C     C_R   0.325660 0.123129 0.276103 -0.088891
C52   C     C_R   0.655126 0.859373 0.697953 -0.095577
C53   C     C_R   0.158939 0.635654 0.703947 -0.093883
C54   C     C_R   0.853448 0.357195 0.309414 -0.083433
C55   C     C_R   0.826748 0.625220 0.279169 -0.090398
C56   C     C_R   0.154879 0.358791 0.696854 -0.094084
C57   C     C_R   0.675028 0.249309 0.679023 0.196502
C58   C     C_R   0.321045 0.752664 0.323752 0.195939
C59   C     C_R   0.184112 0.153241 0.167721 0.193948
C60   C     C_R   0.749500 0.778430 0.731249 0.186345
C61   C     C_R   0.247387 0.718179 0.734137 0.186067
C62   C     C_R   0.823573 0.250631 0.321728 0.182867
C63   C     C_R   0.687024 0.659741 0.177785 0.188952
C64   C     C_R   0.250416 0.278878 0.729892 0.189784
C65   C     C_R   0.644861 0.191273 0.628036 -0.174288
C66   C     C_R   0.350469 0.811074 0.372395 -0.182620
C67   C     C_R   0.253812 0.123114 0.262304 -0.193276
C68   C     C_R   0.700178 0.830316 0.669116 -0.185782
C69   C     C_R   0.200080 0.666697 0.671746 -0.187503
C70   C     C_R   0.853717 0.308872 0.372071 -0.181016
C71   C     C_R   0.756361 0.627397 0.269049 -0.187442
C72   C     C_R   0.200926 0.330870 0.668630 -0.187771
C73   C     C_R   0.678387 0.150947 0.805727 -0.198522
C74   C     C_R   0.328522 0.846241 0.199557 -0.200503
C75   C     C_R   0.326992 0.151425 0.192425 -0.233988
C76   C     C_R   0.655036 0.833730 0.784687 -0.225086
C77   C     C_R   0.172370 0.651877 0.806326 -0.212115
C78   C     C_R   0.823909 0.347521 0.195843 -0.200412
C79   C     C_R   0.827398 0.654130 0.195701 -0.218842
C80   C     C_R   0.153785 0.331560 0.781667 -0.228111
C81   C     C_R   0.709388 0.208775 0.860703 0.041459
C82   C     C_R   0.297112 0.788343 0.145958 0.040205
C83   C     C_R   0.257845 0.181297 0.095241 0.034461
C84   C     C_R   0.701971 0.780543 0.847092 0.035517
C85   C     C_R   0.221432 0.702439 0.873198 0.037464
C86   C     C_R   0.793206 0.289464 0.141594 0.046361
C87   C     C_R   0.758433 0.685393 0.100487 0.030416
C88   C     C_R   0.201371 0.278368 0.843589 0.033191
C89   C     C_R   0.715988 0.256411 0.800075 0.001392
C90   C     C_R   0.285905 0.743045 0.205177 0.026873
C91   C     C_R   0.188851 0.189324 0.091178 0.022111
C92   C     C_R   0.757903 0.757536 0.830119 0.027328
C93   C     C_R   0.249008 0.741232 0.826413 0.037718
C94   C     C_R   0.784830 0.242501 0.201477 0.027685
C95   C     C_R   0.690364 0.695082 0.098732 0.002069
C96   C     C_R   0.258423 0.256879 0.827842 0.024902
C97   C     C_R   0.733116 0.220499 0.973558 0.030871
C98   C     C_R   0.277170 0.774289 0.035957 0.029940
C99   C     C_R   0.257460 0.205560 0.005074 0.023685
C100  C     C_R   0.697117 0.751878 0.929746 0.000596
C101  C     C_R   0.240366 0.716949 0.982153 0.027255
C102  C     C_R   0.770643 0.277232 0.029547 0.003894
C103  C     C_R   0.757389 0.708524 0.009177 0.025420
C104  C     C_R   0.196181 0.248249 0.924786 0.015574
C105  C     C_R   0.291693 0.816115 0.977098 -0.242320
C106  C     C_R   0.714995 0.179058 0.028231 -0.292947
C107  C     C_R   0.633210 0.765004 0.934256 -0.276956
C108  C     C_R   0.317010 0.188278 0.993621 -0.313628
C109  C     C_R   0.789328 0.318391 0.975157 -0.242557
C110  C     C_R   0.223031 0.675876 0.038312 -0.304709
C111  C     C_R   0.131657 0.259961 0.928360 -0.297345
C112  C     C_R   0.815369 0.689183 0.995577 -0.311946
Cu1   Cu    Cu3+1 0.526640 1.000000 0.436960 0.956463
Cu2   Cu    Cu3+1 0.473360 0.000000 0.563040 0.957067
Cu3   Cu    Cu3+1 0.026640 0.500000 0.436960 0.960967
Cu4   Cu    Cu3+1 0.973360 0.500000 0.563040 0.956936
H1    H     H_    0.376980 0.036193 0.011571 0.109253
H2    H     H_    0.623165 0.964505 0.988322 0.124648
H3    H     H_    0.876285 0.536003 0.011293 0.110464
H4    H     H_    0.127144 0.478162 0.990722 0.107605
H5    H     H_    0.334645 0.884097 0.158263 0.141212
H6    H     H_    0.678289 0.111168 0.849861 0.140892
H7    H     H_    0.620020 0.857519 0.805397 0.163743
H8    H     H_    0.383886 0.151052 0.206826 0.161876
H9    H     H_    0.825065 0.386785 0.151719 0.139217
H10   H     H_    0.140560 0.626018 0.828928 0.159585
H11   H     H_    0.117532 0.354163 0.801321 0.159463
H12   H     H_    0.883746 0.652823 0.208580 0.163480
H13   H     H_    0.377644 0.818544 0.462736 0.162515
H14   H     H_    0.613125 0.185777 0.535833 0.159715
H15   H     H_    0.695072 0.846884 0.595343 0.163328
H16   H     H_    0.250208 0.095799 0.320655 0.150425
H17   H     H_    0.883862 0.315045 0.463691 0.163750
H18   H     H_    0.195709 0.650885 0.597948 0.172179
H19   H     H_    0.196465 0.348366 0.595873 0.163186
H20   H     H_    0.753779 0.600520 0.328781 0.148168
H21   H     H_    0.315819 0.861483 0.009866 0.141862
H22   H     H_    0.678477 0.138875 0.983867 0.176782
H23   H     H_    0.583270 0.794872 0.870603 0.200827
H24   H     H_    0.362172 0.153164 0.048805 0.184854
H25   H     H_    0.827473 0.357767 0.020412 0.196360
H26   H     H_    0.195091 0.631678 0.001883 0.174200
H27   H     H_    0.081619 0.290243 0.865975 0.196225
H28   H     H_    0.859233 0.653063 0.049268 0.179999
H29   H     H_    0.289008 0.043704 0.805759 0.146096
H30   H     H_    0.710972 0.956735 0.193917 0.145067
H31   H     H_    0.787743 0.540624 0.805225 0.138622
H32   H     H_    0.213808 0.467374 0.195487 0.133333
H33   H     H_    0.450437 0.014299 0.187554 0.114151
H34   H     H_    0.549567 0.986104 0.812412 0.118039
H35   H     H_    0.950594 0.514996 0.187637 0.114700
H36   H     H_    0.050387 0.490843 0.812430 0.117184
H37   H     H_    0.687680 0.982662 0.490636 0.131869
H38   H     H_    0.312252 0.016939 0.509179 0.124371
H39   H     H_    0.187697 0.482820 0.490698 0.127192
H40   H     H_    0.811369 0.512706 0.508787 0.119222
H41   H     H_    0.261915 0.033067 0.620157 0.148646
H42   H     H_    0.737871 0.966617 0.379502 0.150958
H43   H     H_    0.760927 0.528820 0.619738 0.141024
H44   H     H_    0.238948 0.471103 0.380196 0.143752
N1    N     N_R   0.433280 0.000000 0.657760 -0.188414
N2    N     N_R   0.566720 1.000000 0.342240 -0.185993
N3    N     N_R   0.933280 0.500000 0.657760 -0.185581
N4    N     N_R   0.066720 0.500000 0.342240 -0.185876
O1    O     O_R   0.600040 0.935040 0.546740 -0.591428
O2    O     O_R   0.399960 0.064960 0.453260 -0.587461
O3    O     O_R   0.399960 0.935040 0.453260 -0.581940
O4    O     O_R   0.600040 0.064960 0.546740 -0.574955
O5    O     O_R   0.100040 0.435040 0.546740 -0.591282
O6    O     O_R   0.899960 0.564960 0.453260 -0.586093
O7    O     O_R   0.899960 0.435040 0.453260 -0.582534
O8    O     O_R   0.100040 0.564960 0.546740 -0.582277
O9    O     O_R   0.555010 0.935070 0.653220 -0.592632
O10   O     O_R   0.444990 0.064930 0.346780 -0.590388
O11   O     O_R   0.444990 0.935070 0.346780 -0.584630
O12   O     O_R   0.555010 0.064930 0.653220 -0.577028
O13   O     O_R   0.055010 0.435070 0.653220 -0.591896
O14   O     O_R   0.944990 0.564930 0.346780 -0.588202
O15   O     O_R   0.944990 0.435070 0.346780 -0.576795
O16   O     O_R   0.055010 0.564930 0.653220 -0.582508
S1    S     S_3+6 0.259897 0.866154 0.784601 -0.009069
O17   O     O_2   0.339549 0.883391 0.813888 -0.333981
O18   O     O_2   0.200764 0.851364 0.657787 -0.249222
O19   O     O_3   0.222207 0.927384 0.810170 -0.511443
H45   H     H_    0.268544 0.944453 0.885375 0.326935
S2    S     S_3+6 0.686751 0.146026 0.176869 0.010199
O20   O     O_2   0.739323 0.091941 0.251775 -0.312093
O21   O     O_2   0.666401 0.185607 0.240442 -0.258432
O22   O     O_3   0.600244 0.118261 0.057079 -0.482553
H46   H     H_    0.573220 0.154486 0.004284 0.396772
S3    S     S_3+6 0.559806 0.775609 0.032448 -0.037828
O23   O     O_2   0.487758 0.735137 0.983643 -0.327122
O24   O     O_2   0.600928 0.788756 0.158006 -0.313206
O25   O     O_3   0.526226 0.843419 0.959543 -0.548339
H47   H     H_    0.495875 0.863596 0.983119 0.391647
S4    S     S_3+6 0.416130 0.208311 0.940238 -0.025690
O26   O     O_2   0.413280 0.160159 0.863535 -0.310980
O27   O     O_2   0.439712 0.269670 0.921417 -0.301167
O28   O     O_3   0.487405 0.186312 0.078905 -0.469448
H48   H     H_    0.493603 0.222578 0.125514 0.359435
S5    S     S_3+6 0.811975 0.353122 0.821291 0.002136
O29   O     O_2   0.829556 0.314087 0.753862 -0.254812
O30   O     O_2   0.759010 0.407814 0.749431 -0.357904
O31   O     O_3   0.899819 0.379420 0.940121 -0.491357
H49   H     H_    0.926701 0.396680 0.910035 0.402535
S6    S     S_3+6 0.183021 0.650771 0.176087 0.010305
O32   O     O_2   0.231882 0.596875 0.255256 -0.322259
O33   O     O_2   0.160165 0.693761 0.232855 -0.255184
O34   O     O_3   0.097874 0.624001 0.053012 -0.475658
H50   H     H_    0.074210 0.659950 0.999104 0.392899
S7    S     S_3+6 0.065833 0.273442 0.035957 0.017345
O35   O     O_2   0.982206 0.246908 0.959869 -0.210477
O36   O     O_2   0.099425 0.270483 0.160567 -0.289892
O37   O     O_3   0.060138 0.348302 0.000219 -0.534802
H51   H     H_    0.117322 0.360562 0.043746 0.326755
S8    S     S_3+6 0.914654 0.707182 0.941962 -0.017806
O38   O     O_2   0.911021 0.659312 0.864262 -0.308887
O39   O     O_2   0.939632 0.768324 0.924783 -0.289914
O40   O     O_3   0.985250 0.684035 0.080071 -0.463254
H52   H     H_    0.991590 0.719882 0.127556 0.364917
C113  C     C_3   0.302703 0.740659 0.709084 -0.672805
H53   H     H_    0.335269 0.700283 0.706717 0.200287
H54   H     H_    0.267158 0.764308 0.623508 0.252846
H55   H     H_    0.350119 0.771625 0.777624 0.294023
C114  C     C_3   0.850842 0.196844 0.404530 -0.701056
H56   H     H_    0.910046 0.206712 0.489637 0.196391
H57   H     H_    0.806904 0.188399 0.420840 0.281635
H58   H     H_    0.861678 0.154549 0.372227 0.249680
C115  C     C_3   0.608810 0.643683 0.155244 -0.717926
H59   H     H_    0.614577 0.599065 0.197713 0.186251
H60   H     H_    0.591251 0.679441 0.190610 0.287705
H61   H     H_    0.560539 0.636135 0.061364 0.250592
C116  C     C_3   0.279861 0.242242 0.674334 -0.724100
H62   H     H_    0.238892 0.249603 0.578962 0.200046
H63   H     H_    0.340970 0.257085 0.707567 0.283993
H64   H     H_    0.278575 0.191646 0.687123 0.242268
C117  C     C_3   0.645509 0.303772 0.596906 -0.721435
H65   H     H_    0.585106 0.294213 0.513431 0.192081
H66   H     H_    0.636254 0.345580 0.632067 0.248128
H67   H     H_    0.687283 0.312895 0.576822 0.282514
C118  C     C_3   0.345174 0.700059 0.407634 -0.732841
H68   H     H_    0.403259 0.710186 0.494040 0.192081
H69   H     H_    0.298971 0.693316 0.420155 0.278128
H70   H     H_    0.356831 0.656689 0.378732 0.248489
C119  C     C_3   0.105058 0.135132 0.140802 -0.721692
H71   H     H_    0.104611 0.084018 0.151039 0.198607
H72   H     H_    0.097590 0.157993 0.201507 0.263570
H73   H     H_    0.052625 0.145362 0.049764 0.261203
C120  C     C_3   0.778564 0.740871 0.676071 -0.723409
H74   H     H_    0.738448 0.748589 0.580821 0.199040
H75   H     H_    0.840299 0.754551 0.710406 0.288564
H76   H     H_    0.775660 0.690416 0.688077 0.238871

loop_
_geom_bond_atom_site_label_1
_geom_bond_atom_site_label_2
_ccdc_geom_bond_type
C79   H12   S    
C88   C96   A    
C27   H36   S    
C7    O7    A    
C58   C118  S    
S5    O30   D    
S5    O29   D    
Cu4   N3    S    
C53   C77   A    
C67   H16   S    
S8    O40   S    
C6    C55   S    
Cu3   O5    S    
C53   C69   A    
C76   C84   A    
Cu1   O4    S    
C79   C87   A    
C65   H14   S    
C3    O3    A    
Cu2   O3    S    
C61   C69   A    
S1    O17   D    
C99   C108  A    
O37   H51   S    
C1    O9    A    
C120  H74   S    
C69   H18   S    
C98   C105  A    
C57   C89   A    
C45   H29   S    
C32   C36   A    
C37   C38   A    
S8    O39   D    
C113  H55   S    
C50   C74   A    
Cu1   O1    S    
C22   N2    A    
S6    O33   D    
S4    O26   D    
C106  H22   S    
C10   C94   A    
C9    C105  A    
Cu3   Cu4   S    
C117  H66   S    
C63   C95   A    
C37   C42   A    
C114  H58   S    
C33   C45   A    
O19   H45   S    
C30   C38   A    
C110  H26   S    
C118  H68   S    
C42   C46   A    
Cu3   N4    S    
C16   S8    S    
C44   H4    S    
C14   C90   A    
C13   C109  A    
C86   C94   A    
C77   C85   A    
C59   C67   A    
Cu1   N2    S    
C85   C93   A    
C58   C66   A    
Cu2   O9    S    
C20   C24   A    
C29   C33   A    
C25   N1    A    
C56   C72   A    
C61   C113  S    
C87   C95   A    
C70   H17   S    
C15   S7    S    
C21   H38   S    
C36   C48   A    
C34   C46   A    
C20   H44   S    
C17   H41   S    
C116  H62   S    
C2    O2    A    
C11   S3    S    
C97   C102  A    
C52   C68   A    
C24   H39   S    
C111  H27   S    
C63   C115  S    
C66   H13   S    
C27   N3    A    
C78   C86   A    
S1    O18   D    
C99   C104  A    
C35   C47   A    
O28   H48   S    
C83   C99   A    
C119  H71   S    
C6    O14   A    
C82   C98   A    
C62   C70   A    
C24   N4    A    
C17   C33   A    
C74   C82   A    
S4    O28   S    
C73   C81   A    
C88   C104  A    
C3    C50   S    
Cu2   O2    S    
C23   N3    A    
C60   C92   A    
C25   C29   A    
C114  H57   S    
C47   H31   S    
C120  H75   S    
C21   N1    A    
C30   C34   A    
C27   C31   A    
S3    O23   D    
C84   C100  A    
C15   C111  A    
C28   C32   A    
C8    O8    A    
S8    O38   D    
C64   C96   A    
C38   C41   A    
S4    O27   D    
C117  H67   S    
C71   H20   S    
C108  H24   S    
C14   S6    S    
S6    O32   D    
C42   H2    S    
C72   H19   S    
C51   C67   A    
C25   H34   S    
C52   C76   A    
C101  C110  A    
C15   C91   A    
C26   N2    A    
C100  C103  A    
C17   C21   A    
C75   H8    S    
Cu4   O7    S    
C103  C112  A    
C118  H69   S    
C20   C36   A    
C68   H15   S    
C19   C23   A    
S3    O24   D    
C62   C94   A    
C113  H53   S    
C18   H42   S    
C55   C79   A    
C116  H64   S    
C8    O16   A    
S7    O35   D    
C54   C70   A    
C1    O1    A    
C56   C80   A    
C40   C43   A    
O34   H50   S    
Cu4   O6    S    
C59   C119  S    
C59   C91   A    
C116  H63   S    
C5    O13   A    
C49   C65   A    
C58   C90   A    
C87   C103  A    
C97   C106  A    
C3    O11   A    
S7    O36   D    
C63   C71   A    
C26   C30   A    
C5    C56   S    
C119  H72   S    
C11   C107  A    
C60   C120  S    
S5    O31   S    
C49   C73   A    
C10   C106  A    
S2    O21   D    
C86   C102  A    
C98   C101  A    
C9    C93   A    
O40   H52   S    
C32   C40   A    
C85   C101  A    
C16   C112  A    
C12   C108  A    
Cu1   Cu2   S    
C6    O6    A    
S1    O19   S    
C11   C95   A    
C14   C110  A    
C28   N4    A    
C100  C107  A    
C5    O5    A    
C13   C89   A    
C18   C22   A    
C76   H7    S    
C26   H33   S    
C57   C65   A    
Cu3   O8    S    
Cu2   N1    S    
C82   C90   A    
C8    C53   S    
C57   C117  S    
C104  C111  A    
C50   C66   A    
C16   C92   A    
C39   C44   A    
C80   H11   S    
C115  H61   S    
C62   C114  S    
C83   C91   A    
C80   C88   A    
C115  H59   S    
C51   C75   A    
Cu1   O11   S    
C4    C49   S    
C7    O15   A    
C118  H70   S    
C19   H43   S    
C112  H28   S    
S2    O22   S    
Cu4   O16   S    
C74   H5    S    
S3    O25   S    
C81   C89   A    
C64   C116  S    
C115  H60   S    
C19   C35   A    
C2    O10   A    
S6    O34   S    
C75   C83   A    
C46   H30   S    
C81   C97   A    
C18   C34   A    
C117  H65   S    
C48   H32   S    
C31   C35   A    
Cu2   O12   S    
C10   S2    S    
C54   C78   A    
C13   S5    S    
O25   H47   S    
C61   C93   A    
C64   C72   A    
C107  H23   S    
O22   H46   S    
C1    C52   S    
Cu3   O15   S    
C120  H76   S    
Cu3   O14   S    
C9    S1    S    
C2    C51   S    
C105  H21   S    
C39   C40   A    
C4    O4    A    
S7    O37   S    
C23   H40   S    
O31   H49   S    
C60   C68   A    
C28   H35   S    
C113  H54   S    
C73   H6    S    
C4    O12   A    
C119  H73   S    
C29   C37   A    
C31   C39   A    
C41   C45   A    
C12   C96   A    
C102  C109  A    
C109  H25   S    
C12   S4    S    
C84   C92   A    
C7    C54   S    
C41   H1    S    
S2    O20   D    
Cu4   O13   S    
C78   H9    S    
C43   C47   A    
C55   C71   A    
C77   H10   S    
C44   C48   A    
C43   H3    S    
Cu1   O10   S    
C114  H56   S    
C22   H37   S    
