data_mof_unit_24420.cif
_audit_creation_date              2013-03-05T15:49:42-0500
_audit_creation_method            fapswitch 2.2
_symmetry_space_group_name_H-M    P1
_symmetry_Int_Tables_number       1
_space_group_crystal_system       triclinic
_cell_length_a                    13.587329
_cell_length_b                    13.618653
_cell_length_c                    27.350253
_cell_angle_alpha                 90.675194
_cell_angle_beta                  90.249161
_cell_angle_gamma                 60.215648
_cell_volume                      4392.067925

loop_
_atom_site_label
_atom_site_type_symbol
_atom_site_description
_atom_site_fract_x
_atom_site_fract_y
_atom_site_fract_z
_atom_type_partial_charge
O1    O     O_R   0.301780 0.195490 0.553940 -0.476918
O2    O     O_R   0.522450 0.158840 0.550250 -0.482360
C1    C     C_R   0.621446 0.101073 0.569381 0.570982
O3    O     O_R   0.694460 0.003360 0.553820 -0.474445
O4    O     O_R   0.657750 0.819520 0.549120 -0.468473
C2    C     C_R   0.600819 0.776737 0.567426 0.543686
O5    O     O_R   0.501990 0.803120 0.552700 -0.525887
O6    O     O_R   0.318230 0.023430 0.549370 -0.506480
C3    C     C_R   0.279048 0.121563 0.569533 0.556700
O7    O     O_R   0.302950 0.194150 0.446980 -0.465763
O8    O     O_R   0.523540 0.157600 0.451100 -0.456116
C4    C     C_R   0.618396 0.094307 0.429150 0.584537
O9    O     O_R   0.695630 0.002030 0.446860 -0.540154
O10   O     O_R   0.658840 0.818280 0.449970 -0.543843
C5    C     C_R   0.602531 0.774448 0.431016 0.528749
O11   O     O_R   0.503160 0.801780 0.445740 -0.442915
O12   O     O_R   0.319320 0.022190 0.450230 -0.475752
C6    C     C_R   0.333801 0.096613 0.425663 0.586631
Cr1   Cr    Cr6+3 0.417550 0.169090 0.500530 1.092605
Cr2   Cr    Cr6+3 0.669180 0.913420 0.499920 1.048306
Cr3   Cr    Cr6+3 0.413260 0.917540 0.499520 1.042514
O13   O     O_3   0.499990 0.000010 0.499990 -0.303699
C7    C     C_3   0.757003 0.562213 0.735902 -0.098699
C8    C     C_3   0.782026 0.641251 0.768335 0.278002
H1    H     H_    0.817534 0.480719 0.718301 0.167064
C9    C     C_1   0.697875 0.612976 0.899022 0.027614
C10   C     C_1   0.636000 0.719516 0.613064 0.028284
C11   C     C_3   0.658971 0.585375 0.771160 0.264721
C12   C     C_3   0.685762 0.661471 0.803831 0.049848
C13   C     C_3   0.573171 0.688018 0.741594 -0.105205
C14   C     C_3   0.671138 0.666998 0.707056 -0.024470
C15   C     C_3   0.600175 0.766177 0.774319 -0.176419
C16   C     C_3   0.698106 0.744855 0.738850 0.016102
C17   C     C_1   0.691972 0.642292 0.857011 0.044087
C18   C     C_1   0.656110 0.685931 0.654351 0.006915
H2    H     H_    0.538063 0.849440 0.790115 0.197199
H3    H     H_    0.490431 0.699271 0.729879 0.119948
C19   C     C_3   0.078501 0.175170 0.737147 -0.078506
C20   C     C_3   0.146397 0.072788 0.771183 -0.004623
C21   C     C_1   0.103464 0.192639 0.902836 0.078129
C22   C     C_1   0.234964 0.138809 0.618141 0.055390
C23   C     C_3   0.088087 0.254405 0.775589 -0.030124
C24   C     C_3   0.156426 0.152165 0.809100 0.025506
C25   C     C_3   0.199307 0.235103 0.752241 -0.006343
C26   C     C_3   0.189968 0.155909 0.713614 0.036954
C27   C     C_3   0.267324 0.132826 0.785975 0.008942
C28   C     C_3   0.257363 0.053776 0.747485 0.265396
C29   C     C_1   0.133461 0.166258 0.861393 0.106197
C30   C     C_1   0.210481 0.150123 0.660830 0.087043
C31   C     C_3   0.631305 0.269077 0.739696 0.273075
C32   C     C_3   0.546093 0.259859 0.774234 -0.137762
H4    H     H_    0.460559 0.327852 0.785562 0.098949
C33   C     C_1   0.682747 0.206215 0.903585 0.043210
C34   C     C_1   0.641064 0.131533 0.617070 0.060193
C35   C     C_3   0.729915 0.199265 0.775016 0.042995
C36   C     C_3   0.646268 0.188000 0.809227 -0.025457
C37   C     C_3   0.755080 0.089116 0.748220 0.009012
C38   C     C_3   0.657444 0.159767 0.712556 0.039341
C39   C     C_3   0.671392 0.077848 0.782582 -0.043227
C40   C     C_3   0.573174 0.148293 0.746749 -0.061593
C41   C     C_1   0.658483 0.197783 0.862010 0.002513
C42   C     C_1   0.653405 0.146787 0.659480 0.067878
C43   C     C_R   0.645924 0.700913 0.387070 -0.071264
C44   C     C_R   0.751134 0.671099 0.366712 -0.155866
C45   C     C_R   0.774170 0.632568 0.318123 0.068164
C46   C     C_R   0.682910 0.645966 0.288213 -0.035758
C47   C     C_R   0.595151 0.636633 0.312564 0.288997
C48   C     C_R   0.580389 0.659997 0.363775 0.291065
C49   C     C_R   0.576212 0.702274 0.206866 0.047128
C50   C     C_R   0.581818 0.678697 0.156281 0.003673
C51   C     C_R   0.772665 0.651380 0.155186 -0.013559
C52   C     C_R   0.766218 0.671392 0.206977 0.228629
C53   C     C_R   0.678291 0.666774 0.233169 -0.006887
C54   C     C_R   0.686634 0.637960 0.131791 -0.105459
H5    H     H_    0.814929 0.676379 0.388668 0.181081
C55   C     C_R   0.314663 0.101930 0.372245 -0.018251
C56   C     C_R   0.291639 0.023233 0.347819 0.216644
C57   C     C_R   0.259601 0.039361 0.298423 0.265565
C58   C     C_R   0.262011 0.126528 0.272245 -0.027917
C59   C     C_R   0.296559 0.196182 0.295228 -0.153365
C60   C     C_R   0.319528 0.187657 0.345336 0.198283
C61   C     C_R   0.130126 0.265239 0.213740 -0.164634
C62   C     C_R   0.077548 0.292855 0.168690 -0.169676
C63   C     C_R   0.195150 0.098392 0.140352 0.240907
C64   C     C_R   0.252346 0.072676 0.185222 -0.035251
C65   C     C_R   0.216949 0.154846 0.222513 0.014495
C66   C     C_R   0.108979 0.210022 0.131953 0.037559
H6    H     H_    0.100949 0.329526 0.242269 0.126032
H7    H     H_    0.009336 0.378571 0.163031 0.174314
H8    H     H_    0.322425 0.988855 0.191196 0.188759
H9    H     H_    0.303743 0.258728 0.273829 0.138305
C67   C     C_R   0.627842 0.118436 0.377526 0.004186
C68   C     C_R   0.598054 0.228268 0.362429 0.061221
C69   C     C_R   0.595824 0.249937 0.311942 -0.066220
C70   C     C_R   0.589493 0.174044 0.277797 -0.001124
C71   C     C_R   0.598226 0.072767 0.294676 0.099559
C72   C     C_R   0.642830 0.036663 0.341533 -0.072602
C73   C     C_R   0.710617 0.094944 0.203869 0.313044
C74   C     C_R   0.737498 0.105106 0.155800 0.227481
C75   C     C_R   0.565061 0.288871 0.150546 0.216017
C76   C     C_R   0.535155 0.273945 0.197705 -0.158104
C77   C     C_R   0.610292 0.180880 0.225347 -0.017295
C78   C     C_R   0.671391 0.207740 0.130721 -0.023527
H10   H     H_    0.456548 0.338671 0.213948 0.124582
O14   O     O_R   0.819250 0.149410 0.965240 -0.480086
O15   O     O_R   0.006940 0.180310 0.968270 -0.478089
C79   C     C_R   0.051367 0.233610 0.949048 0.555889
O16   O     O_R   0.028420 0.332670 0.963010 -0.490662
O17   O     O_R   0.810130 0.520390 0.966030 -0.479696
C80   C     C_R   0.712111 0.562343 0.946433 0.541791
O18   O     O_R   0.636050 0.541380 0.962520 -0.512303
O19   O     O_R   0.666480 0.323610 0.968170 -0.509949
C81   C     C_R   0.721154 0.223847 0.949874 0.545984
O20   O     O_R   0.817280 0.156800 0.072180 -0.480717
O21   O     O_R   0.005110 0.187160 0.067410 -0.487402
C82   C     C_R   0.048023 0.244392 0.085928 0.572048
O22   O     O_R   0.026450 0.340060 0.069950 -0.491756
O23   O     O_R   0.808300 0.527240 0.065170 -0.477390
C83   C     C_R   0.708927 0.572778 0.084789 0.520659
O24   O     O_R   0.634070 0.548770 0.069460 -0.486228
O25   O     O_R   0.664650 0.330470 0.067300 -0.448246
C84   C     C_R   0.718546 0.231982 0.086786 0.560607
Cr4   Cr    Cr6+3 0.909770 0.175810 0.018240 1.078843
Cr5   Cr    Cr6+3 0.913300 0.427650 0.016090 1.088042
Cr6   Cr    Cr6+3 0.657770 0.431010 0.016900 1.070095
O26   O     O_3   0.826940 0.344820 0.017080 -0.280575
O27   O     O_3   0.887337 0.620799 0.787129 -0.503827
C85   C     C_3   0.962184 0.608336 0.749005 -0.011893
H11   H     H_    0.952096 0.691832 0.739768 0.193441
H12   H     H_    0.953374 0.564921 0.715897 0.136667
H13   H     H_    0.050117 0.556428 0.762482 0.162231
C86   C     C_2   0.365187 0.110365 0.818457 0.193444
H14   H     H_    0.395743 0.170230 0.820430 0.082256
O28   O     O_2   0.408023 0.026765 0.844197 -0.520115
C87   C     C_2   0.222927 0.329748 0.743361 0.267801
H15   H     H_    0.243952 0.367488 0.773869 0.090731
O29   O     O_2   0.216908 0.365925 0.702209 -0.470289
C88   C     C_2   0.998000 0.363402 0.797149 0.253397
H16   H     H_    0.910276 0.394289 0.788712 0.129459
O30   O     O_2   0.023362 0.413725 0.827335 -0.478522
O31   O     O_3   0.619529 0.366601 0.716730 -0.530544
C89   C     C_3   0.512966 0.424862 0.693711 -0.073431
H17   H     H_    0.442555 0.455310 0.720630 0.113294
H18   H     H_    0.503056 0.371983 0.665054 0.146732
H19   H     H_    0.506262 0.500397 0.675589 0.137456
C90   C     C_2   0.491116 0.116362 0.725475 0.181127
H20   H     H_    0.486964 0.044593 0.739415 0.127585
O32   O     O_2   0.432037 0.167969 0.690814 -0.475762
C91   C     C_2   0.689981 0.976859 0.811340 0.193563
H21   H     H_    0.619991 0.979050 0.831027 0.145239
O33   O     O_2   0.783801 0.892968 0.813538 -0.474170
C92   C     C_2   0.869842 0.993218 0.735043 0.249779
H22   H     H_    0.929057 0.945968 0.763810 0.168803
O34   O     O_2   0.896502 0.966734 0.692359 -0.497888
C93   C     C_2   0.814303 0.231828 0.792102 0.232883
H23   H     H_    0.814962 0.303065 0.775721 0.166151
O35   O     O_2   0.882500 0.178194 0.823962 -0.498775
C94   C     C_2   0.466780 0.782918 0.230680 0.276351
H24   H     H_    0.466467 0.832958 0.261889 0.108317
O36   O     O_2   0.376929 0.792315 0.217197 -0.474332
C95   C     C_2   0.478740 0.702169 0.128247 0.328811
H25   H     H_    0.457825 0.751541 0.095080 0.102220
O37   O     O_2   0.421246 0.660303 0.140191 -0.431511
C96   C     C_2   0.893422 0.561099 0.302529 0.285027
H26   H     H_    0.913033 0.507773 0.270170 0.085628
O38   O     O_2   0.971165 0.558228 0.326247 -0.546473
O39   O     O_3   0.813231 0.730590 0.230020 -0.518476
C97   C     C_3   0.929298 0.688496 0.220236 -0.021192
H27   H     H_    0.939667 0.735212 0.189578 0.154753
H28   H     H_    0.977294 0.595347 0.214205 0.127054
H29   H     H_    0.967569 0.706323 0.252616 0.181300
C98   C     C_2   0.858617 0.655758 0.123670 0.232335
H30   H     H_    0.831325 0.719555 0.095604 0.083560
O40   O     O_2   0.958153 0.582207 0.125452 -0.534458
O41   O     O_3   0.539204 0.590837 0.285866 -0.545839
C99   C     C_3   0.426680 0.628221 0.301101 -0.034872
H31   H     H_    0.381464 0.718343 0.313383 0.197702
H32   H     H_    0.425207 0.571501 0.329512 0.135622
H33   H     H_    0.379009 0.621425 0.269452 0.160148
O42   O     O_3   0.501152 0.646542 0.390206 -0.565137
C100  C     C_3   0.557263 0.563213 0.426216 -0.079905
H34   H     H_    0.590159 0.593316 0.456594 0.132993
H35   H     H_    0.628597 0.484565 0.410298 0.175757
H36   H     H_    0.495074 0.543238 0.442796 0.148477
O43   O     O_3   0.311053 0.925045 0.370847 -0.521640
C101  C     C_3   0.207459 0.933502 0.385387 -0.043793
H37   H     H_    0.178624 0.894122 0.357278 0.130923
H38   H     H_    0.139224 0.021833 0.393652 0.098696
H39   H     H_    0.222564 0.884236 0.419335 0.151577
C102  C     C_2   0.721059 0.829206 0.714112 0.278519
H40   H     H_    0.670571 0.917324 0.722378 0.106314
O44   O     O_2   0.793720 0.799132 0.682474 -0.483684
O45   O     O_3   0.232039 0.965197 0.275723 -0.534283
C103  C     C_3   0.113158 0.015131 0.272525 -0.124038
H41   H     H_    0.080931 0.066057 0.238875 0.126772
H42   H     H_    0.067239 0.068069 0.305050 0.095547
H43   H     H_    0.093455 0.945584 0.269960 0.126046
O46   O     O_3   0.228432 0.017303 0.103705 -0.574668
C104  C     C_3   0.186309 0.944038 0.114744 -0.096523
H44   H     H_    0.209032 0.881721 0.084386 0.156053
H45   H     H_    0.092179 0.990891 0.118119 0.151467
H46   H     H_    0.224884 0.895967 0.148673 0.181351
O47   O     O_3   0.357505 0.254657 0.368023 -0.557764
C105  C     C_3   0.287844 0.370196 0.356805 -0.098840
H47   H     H_    0.196178 0.395951 0.355420 0.171916
H48   H     H_    0.315524 0.390357 0.322026 0.093108
H49   H     H_    0.298139 0.421476 0.386055 0.138552
C106  C     C_2   0.568806 0.321013 0.398197 0.283382
H50   H     H_    0.507285 0.406455 0.387871 0.091358
O48   O     O_2   0.613166 0.303580 0.438476 -0.521043
O49   O     O_3   0.781379 0.997667 0.229254 -0.499255
C107  C     C_3   0.867877 0.011084 0.251155 -0.090422
H51   H     H_    0.832964 0.084221 0.277131 0.116682
H52   H     H_    0.921286 0.020586 0.223019 0.125686
H53   H     H_    0.922821 0.933895 0.272353 0.157673
O50   O     O_3   0.835725 0.017752 0.135750 -0.547054
C108  C     C_3   0.808076 0.942237 0.112082 -0.086533
H54   H     H_    0.747647 0.984034 0.081478 0.112803
H55   H     H_    0.772601 0.905822 0.138267 0.157198
H56   H     H_    0.886778 0.871371 0.096305 0.137758
C109  C     C_2   0.615129 0.342476 0.295326 0.192156
H57   H     H_    0.579710 0.385895 0.261421 0.160576
O51   O     O_2   0.675875 0.368022 0.318845 -0.494243
O52   O     O_3   0.495480 0.388109 0.126163 -0.504922
C110  C     C_3   0.401771 0.382182 0.107321 -0.065454
H58   H     H_    0.346408 0.382060 0.137180 0.125753
H59   H     H_    0.429248 0.306703 0.083019 0.106976
H60   H     H_    0.350244 0.458350 0.084940 0.160654
C111  C     C_2   0.570264 0.999545 0.263119 0.308379
H61   H     H_    0.586723 0.917780 0.276000 0.124025
O53   O     O_2   0.524091 0.031385 0.223497 -0.539533
C112  C     C_2   0.721423 0.914598 0.349236 0.178732
H62   H     H_    0.733062 0.876558 0.384265 0.162565
O54   O     O_2   0.781368 0.855177 0.315835 -0.461160
O55   O     O_3   0.643463 0.497338 0.789292 -0.551734
C113  C     C_3   0.534482 0.541651 0.809987 -0.079202
H63   H     H_    0.468392 0.573256 0.781170 0.116738
H64   H     H_    0.515459 0.609891 0.837276 0.123997
H65   H     H_    0.530338 0.472516 0.829198 0.144184
C114  C     C_2   0.119039 0.981668 0.782312 0.261788
H66   H     H_    0.109860 0.933460 0.752644 0.077480
O56   O     O_2   0.107375 0.960952 0.824475 -0.444387
C115  C     C_2   0.978450 0.197485 0.706331 0.193595
H67   H     H_    0.948365 0.137400 0.705441 0.138599
O57   O     O_2   0.932698 0.281449 0.680897 -0.500506
O58   O     O_3   0.350347 0.950033 0.731918 -0.573271
C116  C     C_3   0.313970 0.892907 0.699465 -0.127382
H68   H     H_    0.234839 0.948585 0.679067 0.100366
H69   H     H_    0.300938 0.830515 0.719983 0.116849
H70   H     H_    0.381407 0.846468 0.671813 0.148084

loop_
_geom_bond_atom_site_label_1
_geom_bond_atom_site_label_2
_geom_bond_distance
_ccdc_geom_bond_type
C38   C42   1.464367 S    
C103  H42   1.114976 S    
O47   C105  1.412486 S    
C50   C95   1.484358 S    
C76   C77   1.396628 A    
C36   C41   1.464493 S    
C93   O35   1.219436 D    
C56   O43   1.386482 S    
C74   C78   1.414518 A    
C70   C71   1.407649 A    
C63   C66   1.404399 A    
C91   H21   1.082159 S    
C35   C36   1.541616 S    
O52   C110  1.410202 S    
C95   H25   1.085358 S    
O43   C101  1.412572 S    
C39   C91   1.500872 S    
C61   C65   1.397689 A    
C87   H15   1.084296 S    
C60   O47   1.391218 S    
O4    Cr2   1.926095 S    
C56   C57   1.403501 A    
C113  H63   1.109364 S    
C108  H56   1.109071 S    
C35   C93   1.491751 S    
C54   C83   1.497201 S    
O8    Cr1   1.927229 S    
C96   O38   1.221369 D    
O11   Cr3   2.046654 S    
C23   C25   1.539582 S    
C15   H2    1.107056 S    
O14   C81   1.282033 A    
C96   H26   1.084602 S    
O22   Cr5   2.038694 S    
C19   C23   1.548695 S    
C12   C15   1.552008 S    
C91   O33   1.219824 D    
C27   C86   1.497641 S    
O4    C2    1.283163 A    
C1    C34   1.427728 S    
C100  H36   1.108240 S    
C72   C112  1.480149 S    
C23   C88   1.493310 S    
O15   C79   1.270722 A    
C75   O52   1.382549 S    
C38   C40   1.549358 S    
O21   C82   1.282037 A    
C37   C92   1.495859 S    
C110  H60   1.109329 S    
C82   O22   1.267785 A    
O14   Cr4   2.038315 S    
C21   C29   1.195365 T    
C32   C36   1.553615 S    
C26   C28   1.545623 S    
C8    C12   1.541436 S    
C20   C114  1.496288 S    
C19   C26   1.544899 S    
C110  H59   1.114702 S    
O25   Cr6   1.923496 S    
C80   O18   1.281861 A    
C33   C41   1.202537 T    
C9    C17   1.210068 T    
C99   H33   1.109119 S    
C2    C10   1.428794 S    
C98   O40   1.220462 D    
C86   H14   1.083980 S    
C115  O57   1.219290 D    
O15   Cr4   1.926861 S    
C50   C54   1.413961 A    
C104  H46   1.110669 S    
C102  O44   1.220070 D    
O55   C113  1.410192 S    
C14   C16   1.541483 S    
C49   C53   1.417152 A    
O46   C104  1.410752 S    
C13   C15   1.559285 S    
C24   C29   1.455236 S    
C9    C80   1.442464 S    
O45   C103  1.410008 S    
C70   C77   1.476208 S    
C52   C53   1.423916 A    
C25   C87   1.497450 S    
C97   H28   1.111696 S    
C103  H41   1.108886 S    
O2    Cr1   1.920979 S    
C39   C40   1.549424 S    
C107  H51   1.112965 S    
Cr3   O13   1.991156 S    
O23   C83   1.289254 A    
C94   O36   1.218514 D    
C105  H47   1.114280 S    
C89   H19   1.109370 S    
C105  H48   1.110633 S    
C69   C70   1.418669 A    
C40   C90   1.496937 S    
O16   Cr5   2.047634 S    
C25   C27   1.545788 S    
C22   C30   1.202426 T    
O19   C81   1.277748 A    
C95   O37   1.221139 D    
C111  H61   1.084071 S    
C33   C81   1.429830 S    
C67   C72   1.414684 A    
C110  H58   1.113290 S    
C90   O32   1.218868 D    
C116  H69   1.108971 S    
C62   H7    1.083421 S    
C64   H8    1.076871 S    
O1    Cr1   2.045294 S    
O21   Cr4   1.920781 S    
C5    O11   1.275003 A    
C47   C48   1.425385 A    
C31   C38   1.531093 S    
O10   Cr2   1.924146 S    
Cr1   O13   1.998494 S    
O1    C3    1.269278 A    
C63   C64   1.401450 A    
C85   H11   1.107808 S    
C100  H35   1.112423 S    
C47   O41   1.398383 S    
O39   C97   1.410389 S    
O58   C116  1.413956 S    
O6    C3    1.285286 A    
Cr4   O26   1.998322 S    
C20   C24   1.543153 S    
C49   C94   1.486769 S    
C34   C42   1.201644 T    
C63   O46   1.382179 S    
C108  H54   1.113412 S    
C100  H34   1.108579 S    
C46   C53   1.530456 S    
C12   C17   1.475419 S    
C48   O42   1.386064 S    
C75   C78   1.417349 A    
O12   Cr3   1.923744 S    
C1    O3    1.270798 A    
C32   H4    1.109647 S    
C13   H3    1.103119 S    
C85   H12   1.113837 S    
C16   C102  1.500239 S    
C57   O45   1.380148 S    
O20   C84   1.279858 A    
C94   H24   1.084639 S    
C55   C60   1.416462 A    
C102  H40   1.067209 S    
O18   Cr6   2.041235 S    
C109  H57   1.080491 S    
C19   C115  1.495453 S    
C69   C109  1.485446 S    
O41   C99   1.413360 S    
C105  H49   1.109132 S    
C26   C30   1.465271 S    
O7    Cr1   2.037188 S    
C7    C8    1.549041 S    
O50   C108  1.408493 S    
C71   C72   1.401250 A    
C114  O56   1.219902 D    
O12   C6    1.316337 A    
C66   C82   1.452339 S    
C31   C32   1.550888 S    
C68   C69   1.412466 A    
O23   Cr5   1.930853 S    
C71   C111  1.495631 S    
C55   C56   1.416757 A    
C83   O24   1.280872 A    
C67   C68   1.408280 A    
C106  H50   1.082520 S    
C64   C65   1.402312 A    
C88   O30   1.220201 D    
C21   C79   1.417262 S    
O20   Cr4   2.042322 S    
C20   C28   1.541793 S    
C106  O48   1.221259 D    
C99   H31   1.113384 S    
C92   O34   1.219880 D    
C73   C74   1.392718 A    
C76   H10   1.083841 S    
C35   C37   1.539799 S    
Cr6   O26   1.995203 S    
C111  O53   1.221006 D    
C52   O39   1.396910 S    
C14   C18   1.462879 S    
C58   C59   1.393208 A    
C37   C39   1.544613 S    
C7    C11   1.546031 S    
C23   C24   1.542452 S    
C79   O16   1.278282 A    
C101  H38   1.115860 S    
O27   C85   1.408476 S    
C11   C12   1.534630 S    
C85   H13   1.107384 S    
C98   H30   1.083862 S    
Cr5   O26   1.991496 S    
C90   H20   1.080550 S    
C116  H70   1.109322 S    
C87   O29   1.220016 D    
C27   C28   1.549941 S    
C97   H27   1.109222 S    
C6    C55   1.479144 S    
O9    Cr2   2.041580 S    
C112  O54   1.219429 D    
O24   Cr6   2.044203 S    
C107  H53   1.108811 S    
C4    C67   1.473902 S    
C25   C26   1.550277 S    
C31   C35   1.541797 S    
Cr2   O13   1.995513 S    
C59   C60   1.397530 A    
O6    Cr3   1.929971 S    
C62   C66   1.401019 A    
C51   C54   1.418527 A    
O8    C4    1.286600 A    
O25   C84   1.287225 A    
O17   Cr5   1.923523 S    
C2    O5    1.270382 A    
C32   C40   1.558548 S    
O3    Cr2   2.040218 S    
C108  H55   1.113579 S    
C73   O49   1.382745 S    
C43   C48   1.410306 A    
C78   C84   1.479747 S    
C3    C22   1.428697 S    
C8    C16   1.536799 S    
C36   C39   1.538045 S    
C10   C18   1.201795 T    
C15   C16   1.554558 S    
C101  H39   1.109324 S    
C11   C13   1.538319 S    
O2    C1    1.286180 A    
C51   C52   1.434114 A    
C109  O51   1.221251 D    
C73   C77   1.406695 A    
O31   C89   1.408849 S    
C44   C45   1.401218 A    
O5    Cr3   2.041801 S    
C57   C58   1.407744 A    
C13   C14   1.540153 S    
C37   C38   1.542703 S    
C19   C20   1.551424 S    
O7    C6    1.307963 A    
C59   H9    1.082808 S    
C61   H6    1.083639 S    
C45   C96   1.477867 S    
O49   C107  1.406459 S    
C114  H66   1.083010 S    
C8    O27   1.410780 S    
C44   H5    1.083274 S    
C113  H64   1.110958 S    
C46   C47   1.428644 A    
C89   H18   1.110476 S    
C58   C65   1.464327 S    
C49   C50   1.410366 A    
C51   C98   1.479729 S    
C24   C27   1.532946 S    
C104  H45   1.113700 S    
C31   O31   1.411312 S    
C88   H16   1.073630 S    
C107  H52   1.111757 S    
C11   O55   1.411996 S    
C43   C44   1.394032 A    
C103  H43   1.106266 S    
C104  H44   1.109187 S    
C7    H1    1.106310 S    
C4    O9    1.270788 A    
C113  H65   1.109187 S    
C86   O28   1.219673 D    
C61   C62   1.380694 A    
C74   O50   1.382329 S    
C93   H23   1.077456 S    
C89   H17   1.110895 S    
C5    C43   1.478653 S    
O10   C5    1.285838 A    
C75   C76   1.401010 A    
C92   H22   1.082824 S    
C97   H29   1.109039 S    
O19   Cr6   1.926940 S    
C101  H37   1.108408 S    
O17   C80   1.277688 A    
C68   C106  1.478468 S    
C45   C46   1.417727 A    
C28   O58   1.410927 S    
O42   C100  1.413974 S    
C115  H67   1.081217 S    
C116  H68   1.112216 S    
C112  H62   1.067832 S    
C99   H32   1.109296 S    
C7    C14   1.544178 S    
