data_mof_unit_63214.cif
_audit_creation_date              2012-12-10T17:57:08-0500
_audit_creation_method            fapswitch 2.2
_symmetry_space_group_name_H-M    P1
_symmetry_Int_Tables_number       1
_space_group_crystal_system       triclinic
_cell_length_a                    18.679694
_cell_length_b                    18.697857
_cell_length_c                    18.662111
_cell_angle_alpha                 109.437933
_cell_angle_beta                  109.467012
_cell_angle_gamma                 109.373981
_cell_volume                      5025.9747537

loop_
_atom_site_label
_atom_site_type_symbol
_atom_type_description
_atom_site_fract_x
_atom_site_fract_y
_atom_site_fract_z
_atom_type_partial_charge
C1    C     C_R   0.379782 0.379796 0.500114 0.860326
C2    C     C_3   0.808777 0.498188 0.806973 0.178000
C3    C     C_3   0.847004 0.543894 0.761883 -0.375187
C4    C     C_3   0.769709 0.547810 0.850215 -0.413288
C5    C     C_R   0.241966 0.321878 0.500056 -0.184092
C6    C     C_R   0.177242 0.257119 0.498480 -0.185512
C7    C     C_R   0.186293 0.186289 0.499880 -0.009053
C8    C     C_R   0.258798 0.178940 0.501569 -0.185324
C9    C     C_R   0.322182 0.242334 0.500438 -0.192009
C10   C     C_R   0.313738 0.313780 0.500302 -0.008164
C11   C     C_R   0.298102 0.570457 0.330961 -0.179836
C12   C     C_R   0.619231 0.498614 0.620989 0.832478
C13   C     C_R   0.234568 0.569863 0.265916 -0.242343
C14   C     C_R   0.183962 0.497375 0.181578 -0.000432
C15   C     C_R   0.196923 0.424723 0.160476 0.193522
C16   C     C_R   0.261439 0.426376 0.226361 -0.188535
C17   C     C_R   0.311677 0.498823 0.311196 -0.074083
C18   C     C_R   0.739119 0.770757 0.571339 -0.187035
C19   C     C_R   0.803446 0.833417 0.570751 -0.242972
C20   C     C_R   0.814506 0.811766 0.497612 0.001808
C21   C     C_R   0.762500 0.726791 0.424331 0.192238
C22   C     C_R   0.698345 0.664254 0.425934 -0.188852
C23   C     C_R   0.620395 0.620344 0.499808 0.884105
C24   C     C_R   0.686703 0.686234 0.499006 -0.073414
C25   C     C_R   0.997971 0.379785 0.877660 0.846829
C26   C     C_R   0.876676 0.498135 0.874591 0.829634
C27   C     C_R   0.996717 0.620151 0.117015 0.860383
C28   C     C_R   0.117914 0.499321 0.117330 0.868764
C29   C     C_R   0.000750 0.879991 0.380250 0.847681
C30   C     C_R   0.120174 0.120101 0.499876 0.857718
C31   C     C_R   0.999339 0.120028 0.619599 0.855992
C32   C     C_R   0.880140 0.879432 0.499383 0.866941
C33   C     C_R   0.078324 0.320216 0.822436 -0.188905
C34   C     C_R   0.378761 0.499717 0.378702 0.882675
C35   C     C_R   0.078594 0.255380 0.759517 -0.183234
C36   C     C_R   0.999099 0.186109 0.685712 -0.009614
C37   C     C_R   0.919297 0.180273 0.674961 -0.187621
C38   C     C_R   0.918925 0.243753 0.739103 -0.189704
C39   C     C_R   0.998460 0.313725 0.812062 -0.002470
C40   C     C_R   0.001346 0.759892 0.178337 -0.190586
C41   C     C_R   0.001667 0.823585 0.242933 -0.182202
C42   C     C_R   0.000634 0.814138 0.313802 -0.003744
C43   C     C_R   0.997928 0.741081 0.320174 -0.189951
C44   C     C_R   0.995032 0.676128 0.254248 -0.185829
C45   C     C_3   0.661897 0.403245 0.667452 -0.401262
C46   C     C_R   0.997390 0.686186 0.183989 -0.010027
C47   C     C_3   0.735123 0.402886 0.736151 -0.397611
C48   C     C_3   0.774351 0.541990 0.690377 -0.412044
C49   C     C_3   0.699236 0.550153 0.780747 -0.373288
C50   C     C_3   0.687067 0.498609 0.688712 0.177107
H1    H     H_    0.651494 0.363948 0.601426 0.184770
H2    H     H_    0.822058 0.615819 0.902715 0.157474
H3    H     H_    0.898730 0.613163 0.810872 0.183145
H4    H     H_    0.235538 0.377259 0.499590 0.143541
H5    H     H_    0.121108 0.262785 0.497617 0.144212
H6    H     H_    0.265411 0.123727 0.502340 0.143224
H7    H     H_    0.378200 0.236554 0.501040 0.137779
H8    H     H_    0.224148 0.625511 0.281387 0.142331
H9    H     H_    0.599510 0.371472 0.666907 0.153840
H10   H     H_    0.272150 0.370904 0.211353 0.162898
H11   H     H_    0.730930 0.788048 0.628392 0.160008
H12   H     H_    0.844076 0.899075 0.626841 0.142596
H13   H     H_    0.657382 0.598509 0.369973 0.162538
H14   H     H_    0.139786 0.374419 0.879552 0.144475
H15   H     H_    0.857749 0.126217 0.617857 0.144242
H16   H     H_    0.857178 0.239249 0.731378 0.135918
H17   H     H_    0.002823 0.767257 0.123561 0.139931
H18   H     H_    0.706833 0.367631 0.766150 0.185773
H19   H     H_    0.996431 0.733827 0.374993 0.144390
H20   H     H_    0.992434 0.619029 0.258587 0.143893
H21   H     H_    0.762243 0.366601 0.703846 0.153558
H22   H     H_    0.877549 0.510400 0.732293 0.166452
H23   H     H_    0.719234 0.619482 0.798539 0.180979
H24   H     H_    0.636390 0.521191 0.780275 0.168827
H25   H     H_    0.740259 0.515076 0.881314 0.178385
O1    O     O_R   0.408680 0.356690 0.448540 -0.623142
O2    O     O_R   0.049540 0.460010 0.906120 -0.620700
O3    O     O_R   0.853500 0.448290 0.905220 -0.630733
O4    O     O_R   0.956960 0.551660 0.905160 -0.632231
O5    O     O_R   0.945110 0.539900 0.088450 -0.621790
O6    O     O_R   0.048570 0.643270 0.088390 -0.622307
O7    O     O_R   0.037700 0.448250 0.089410 -0.615921
O8    O     O_R   0.141150 0.551620 0.089350 -0.619082
O9    O     O_R   0.948590 0.908340 0.356800 -0.622938
O10   O     O_R   0.052580 0.908350 0.460820 -0.621650
O11   O     O_R   0.039640 0.091520 0.447910 -0.622408
O12   O     O_R   0.408060 0.460070 0.551440 -0.622738
O13   O     O_R   0.143620 0.091540 0.551930 -0.623359
O14   O     O_R   0.947420 0.091470 0.539000 -0.624032
O15   O     O_R   0.051410 0.091490 0.643030 -0.622873
O16   O     O_R   0.856380 0.908290 0.447890 -0.615700
O17   O     O_R   0.960370 0.908300 0.551910 -0.621340
O18   O     O_R   0.592410 0.448290 0.540650 -0.631232
O19   O     O_R   0.591790 0.551670 0.643550 -0.632013
O20   O     O_R   0.591940 0.539930 0.448560 -0.627069
O21   O     O_R   0.591320 0.643310 0.551460 -0.625534
O22   O     O_R   0.408210 0.448330 0.356450 -0.627096
O23   O     O_R   0.407590 0.551710 0.459350 -0.625756
O24   O     O_R   0.946090 0.356640 0.906180 -0.624031
Zn1   Zn    Zn3+2 0.500420 0.430970 0.431290 0.939666
Zn2   Zn    Zn3+2 0.499580 0.569030 0.568710 0.940592
Zn3   Zn    Zn3+2 0.928250 0.430930 0.997320 0.946052
Zn4   Zn    Zn3+2 0.066410 0.568980 0.997240 0.947035
Zn5   Zn    Zn3+2 0.930570 0.999900 0.430450 0.953512
Zn6   Zn    Zn3+2 0.069430 0.999920 0.569370 0.951424
H26   H     H_    0.792389 0.609895 0.703454 0.158514
H27   H     H_    0.337033 0.627052 0.396241 0.162127
C51   C     C_3   0.145655 0.345972 0.069663 -0.924562
H28   H     H_    0.098618 0.352114 0.020516 0.241769
H29   H     H_    0.191493 0.336558 0.047060 0.237803
H30   H     H_    0.108590 0.286840 0.071354 0.247738
C52   C     C_3   0.773982 0.699650 0.344987 -0.923687
H31   H     H_    0.829630 0.752410 0.351393 0.242070
H32   H     H_    0.786130 0.643741 0.334494 0.237047
H33   H     H_    0.713398 0.678903 0.286202 0.248211
H34   H     H_    0.140376 0.259858 0.767464 0.145113
H35   H     H_    0.003868 0.880518 0.238433 0.142260
H36   H     H_    0.767785 0.505036 0.625685 0.179835

loop_
_geom_bond_atom_site_label_1
_geom_bond_atom_site_label_2
_ccdc_geom_bond_type
C1    O12   A    
C29   C42   S    
O3    Zn3   S    
C3    H3    S    
C41   C42   A    
C35   C36   A    
O16   Zn5   S    
O11   Zn5   S    
C8    H6    S    
C52   H32   S    
C7    C8    A    
C51   H28   S    
C40   C46   A    
C26   O3    A    
O8    Zn4   S    
C4    H2    S    
C18   C24   A    
C36   C37   A    
C20   C32   S    
C5    C6    A    
C32   O16   A    
C45   H1    S    
C19   H12   S    
C15   C16   A    
C3    C48   S    
C34   O22   A    
C23   O21   A    
C18   C19   A    
C16   H10   S    
C9    H7    S    
C25   O2    A    
C4    H25   S    
C33   C35   A    
C22   H13   S    
O12   Zn2   S    
C25   O24   A    
C48   H26   S    
C38   H16   S    
O19   Zn2   S    
C51   H29   S    
C8    C9    A    
C31   O14   A    
C40   H17   S    
C37   H15   S    
C23   C24   S    
C44   H20   S    
C30   O11   A    
C9    C10   A    
C6    H5    S    
C29   O10   A    
O4    Zn4   S    
C48   C50   S    
C43   H19   S    
C7    C30   S    
C21   C22   A    
C28   O8    A    
C12   O19   A    
O10   Zn6   S    
C52   H31   S    
C44   C46   A    
C45   C47   S    
C38   C39   A    
C28   O7    A    
C5    H4    S    
C27   O6    A    
O21   Zn2   S    
C29   O9    A    
C27   O5    A    
O20   Zn1   S    
C16   C17   A    
C48   H36   S    
C13   H8    S    
O5    Zn3   S    
C15   C51   S    
C2    C4    S    
C43   C44   A    
C37   C38   A    
C14   C15   A    
C31   O15   A    
O7    Zn3   S    
C35   H34   S    
C2    C26   S    
C33   C39   A    
O18   Zn1   S    
C47   H21   S    
C27   C46   S    
C40   C41   A    
O14   Zn5   S    
C11   H27   S    
O9    Zn5   S    
C49   H23   S    
C12   O18   A    
O2    Zn4   S    
C42   C43   A    
C30   O13   A    
C47   H18   S    
O22   Zn1   S    
O6    Zn4   S    
C11   C17   A    
C31   C36   S    
C1    O1    A    
C1    C10   S    
O15   Zn6   S    
C12   C50   S    
C18   H11   S    
C6    C7    A    
C2    C47   S    
O1    Zn1   S    
O23   Zn2   S    
C26   O4    A    
C51   H30   S    
C4    C49   S    
C41   H35   S    
C21   C52   S    
C19   C20   A    
C2    C3    S    
C5    C10   A    
C25   C39   S    
O13   Zn6   S    
C11   C13   A    
C32   O17   A    
C45   C50   S    
C33   H14   S    
C34   O23   A    
C23   O20   A    
C3    H22   S    
C22   C24   A    
O17   Zn6   S    
O24   Zn3   S    
C20   C21   A    
C45   H9    S    
C49   C50   S    
C17   C34   S    
C49   H24   S    
C14   C28   S    
C13   C14   A    
C52   H33   S    
