data_mof_unit_28774.cif
_audit_creation_date              2012-12-10T17:23:13-0500
_audit_creation_method            fapswitch 2.2
_symmetry_space_group_name_H-M    P1
_symmetry_Int_Tables_number       1
_space_group_crystal_system       triclinic
_cell_length_a                    15.83641
_cell_length_b                    10.862781
_cell_length_c                    9.616378
_cell_angle_alpha                 89.121956
_cell_angle_beta                  89.232098
_cell_angle_gamma                 93.154013
_cell_volume                      1651.41310804

loop_
_atom_site_label
_atom_site_type_symbol
_atom_type_description
_atom_site_fract_x
_atom_site_fract_y
_atom_site_fract_z
_atom_type_partial_charge
C1    C     C_R   0.501420 0.261879 0.502493 0.795636
C2    C     C_3   0.082658 0.499696 0.501072 0.138875
C3    C     C_3   0.969947 0.488883 0.632099 -0.146797
C4    C     C_3   0.916925 0.498404 0.500143 0.165307
C5    C     C_3   0.030375 0.595270 0.574483 -0.192016
C6    C     C_3   0.975644 0.605156 0.442599 -0.171457
C7    C     C_1   0.174477 0.499946 0.502084 -0.081535
C8    C     C_1   0.825245 0.497773 0.499493 -0.078977
C9    C     C_R   0.483098 0.105707 0.771238 -0.191208
C10   C     C_R   0.447800 0.039037 0.884814 -0.170657
C11   C     C_R   0.411200 0.921598 0.866399 -0.118693
C12   C     C_R   0.339948 0.499613 0.500747 0.821007
C13   C     C_R   0.417380 0.866287 0.737438 -0.146228
C14   C     C_R   0.459415 0.929257 0.624063 0.094499
C15   C     C_R   0.481215 0.056446 0.635130 0.100044
C16   C     C_R   0.500169 0.126431 0.509762 -0.113618
C17   C     C_R   0.509059 0.064988 0.383856 -0.222098
C18   C     C_R   0.502411 0.937936 0.380341 -0.229491
C19   C     C_R   0.481172 0.868912 0.500403 -0.109765
C20   C     C_R   0.586952 0.704215 0.129521 0.187557
C21   C     C_R   0.590805 0.812947 0.047841 -0.256020
C22   C     C_R   0.603701 0.802018 0.906555 -0.202845
C23   C     C_R   0.492256 0.736192 0.499615 0.764242
C24   C     C_R   0.591531 0.687179 0.847856 -0.130078
C25   C     C_R   0.545746 0.591957 0.921536 0.180404
C26   C     C_R   0.544768 0.595563 0.070782 0.180893
C27   C     C_R   0.456550 0.411643 0.076407 -0.070261
C28   C     C_R   0.455636 0.412740 0.928793 -0.086433
C29   C     C_R   0.659925 0.498382 0.499550 0.812059
C30   C     C_3   0.968899 0.402511 0.426692 -0.166628
C31   C     C_3   0.028851 0.509136 0.370661 0.206919
C32   C     C_1   0.250131 0.499863 0.502148 -0.181543
C33   C     C_1   0.749637 0.497741 0.498969 -0.184000
C34   C     C_3   0.023627 0.393329 0.558637 -0.191830
Cu1   Cu    Cu3+1 0.499990 0.499990 0.640660 0.922204
Cu2   Cu    Cu3+1 0.500010 0.500010 0.359340 0.934609
H1    H     H_    0.381099 0.871324 0.953388 0.135951
H2    H     H_    0.388230 0.774554 0.727305 0.156993
H3    H     H_    0.610268 0.900879 0.092485 0.137092
H4    H     H_    0.615965 0.677928 0.744744 0.192656
H5    H     H_    0.418181 0.342067 0.876042 0.139342
H6    H     H_    0.942472 0.323770 0.365773 0.127824
H7    H     H_    0.448505 0.079065 0.987275 0.128532
N1    N     N_R   0.500800 0.501210 0.147910 -0.195059
N2    N     N_R   0.500830 0.501290 0.852040 -0.193879
O1    O     O_R   0.499990 0.319640 0.618810 -0.595862
O2    O     O_R   0.500000 0.319660 0.381240 -0.584120
O3    O     O_R   0.379070 0.499980 0.618770 -0.575781
O4    O     O_R   0.379080 0.500000 0.381190 -0.571325
O5    O     O_R   0.500000 0.680340 0.618760 -0.602525
O6    O     O_R   0.500010 0.680360 0.381190 -0.590479
O7    O     O_R   0.620920 0.500000 0.618810 -0.594285
O8    O     O_R   0.620930 0.500020 0.381230 -0.570351
C35   C     C_3   0.064245 0.520697 0.222179 -0.411840
C36   C     C_3   0.993694 0.528782 0.116422 -0.855675
H8    H     H_    0.950523 0.444717 0.122803 0.250486
H9    H     H_    0.956857 0.611089 0.135706 0.249251
H10   H     H_    0.021530 0.536727 0.009841 0.243403
H11   H     H_    0.107252 0.604806 0.213060 0.204869
H12   H     H_    0.101241 0.439165 0.199730 0.204530
H13   H     H_    0.514542 0.893594 0.283224 0.165858
H14   H     H_    0.420569 0.339333 0.133261 0.137242
C37   C     C_3   0.666565 0.701252 0.216700 -0.312113
C38   C     C_3   0.728142 0.608294 0.162227 -0.812014
H15   H     H_    0.698653 0.513401 0.159647 0.265962
H16   H     H_    0.749195 0.634994 0.054744 0.234625
H17   H     H_    0.784852 0.608706 0.228772 0.235063
H18   H     H_    0.703899 0.791315 0.211287 0.160843
H19   H     H_    0.652717 0.696682 0.328793 0.205390
H20   H     H_    0.628469 0.880287 0.844635 0.160342
H21   H     H_    0.954641 0.691698 0.394609 0.126001
H22   H     H_    0.056835 0.673995 0.635381 0.137120
H23   H     H_    0.944171 0.480548 0.739978 0.133583
H24   H     H_    0.044570 0.306741 0.606569 0.137643
H25   H     H_    0.523468 0.115071 0.287365 0.160508
H26   H     H_    0.515487 0.191853 0.795898 0.172118

loop_
_geom_bond_atom_site_label_1
_geom_bond_atom_site_label_2
_ccdc_geom_bond_type
C36   H8    S    
C2    C7    S    
C12   O3    A    
C12   O4    A    
C26   N1    A    
C35   H12   S    
C20   C26   A    
C5    H22   S    
C5    C6    S    
C1    O1    A    
C15   C16   A    
C29   C33   S    
C28   H5    S    
Cu2   O2    S    
C18   C19   A    
C11   H1    S    
Cu2   O8    S    
C35   C36   S    
C27   N1    A    
C37   H19   S    
C16   C17   A    
C9    H26   S    
C9    C10   A    
C4    C8    S    
C2    C34   S    
C6    C31   S    
C13   C14   A    
C12   C32   S    
Cu1   O3    S    
C35   H11   S    
C6    H21   S    
C28   N2    A    
C30   C34   S    
C38   H17   S    
C24   C25   A    
C4    C6    S    
C1    O2    A    
C23   O5    A    
C3    C34   S    
C25   C26   A    
C2    C31   S    
Cu1   Cu2   S    
C38   H16   S    
C19   C23   S    
C27   H14   S    
C23   O6    A    
C21   H3    S    
Cu1   O5    S    
C17   C18   A    
C1    C16   S    
C13   H2    S    
Cu2   O6    S    
C34   H24   S    
C36   H9    S    
C22   C24   A    
Cu2   N1    S    
C2    C5    S    
C3    C4    S    
Cu1   N2    S    
C25   N2    A    
Cu1   O7    S    
C37   H18   S    
C7    C32   T    
C10   H7    S    
C14   C19   A    
C3    C5    S    
C18   H13   S    
C38   H15   S    
C20   C37   S    
C9    C15   A    
C11   C13   A    
C30   C31   S    
C29   O8    A    
C24   H4    S    
C8    C33   T    
C31   C35   S    
C3    H23   S    
C10   C11   A    
C37   C38   S    
C20   C21   A    
C36   H10   S    
C27   C28   A    
C17   H25   S    
C14   C15   A    
C30   H6    S    
C21   C22   A    
Cu1   O1    S    
C22   H20   S    
C4    C30   S    
Cu2   O4    S    
C29   O7    A    
