data_mof_unit_8987.cif
_audit_creation_date              2012-10-26T21:21:55-0400
_audit_creation_method            fapswitch 2.2
_symmetry_space_group_name_H-M    P1
_symmetry_Int_Tables_number       1
_space_group_crystal_system       triclinic
_cell_length_a                    18.30516
_cell_length_b                    18.186487
_cell_length_c                    11.739551
_cell_angle_alpha                 90.871835
_cell_angle_beta                  75.519525
_cell_angle_gamma                 90.337888
_cell_volume                      3783.57526223

loop_
_atom_site_label
_atom_site_type_symbol
_atom_type_description
_atom_site_fract_x
_atom_site_fract_y
_atom_site_fract_z
_atom_type_partial_charge
C1    C     C_R   0.401221 0.102250 0.522463 0.541158
C2    C     C_R   0.464274 0.995941 0.039489 -0.027402
C3    C     C_R   0.488105 0.682659 0.540805 -0.120761
C4    C     C_R   0.380160 0.220132 0.722634 0.024247
C5    C     C_R   0.458688 0.210694 0.696228 -0.043820
C6    C     C_R   0.497389 0.212455 0.784876 -0.099836
C7    C     C_R   0.458171 0.225112 0.901587 -0.109320
C8    C     C_R   0.380390 0.236823 0.929398 -0.124208
C9    C     C_R   0.341627 0.234990 0.840665 -0.129362
C10   C     C_R   0.619880 0.779912 0.277319 0.024262
C11   C     C_R   0.658437 0.765113 0.159281 -0.129304
C12   C     C_R   0.619692 0.763308 0.070527 -0.124182
C13   C     C_R   0.035727 0.504043 0.960508 -0.027382
C14   C     C_R   0.541906 0.774989 0.098322 -0.109285
C15   C     C_R   0.502665 0.787589 0.215038 -0.099813
C16   C     C_R   0.541348 0.789322 0.303709 -0.043823
C17   C     C_R   0.056057 0.757439 0.403519 0.000814
C18   C     C_R   0.011917 0.817356 0.459145 -0.120704
C19   C     C_R   0.948044 0.839158 0.423516 -0.109255
C20   C     C_R   0.927560 0.801972 0.331351 -0.094791
C21   C     C_R   0.970624 0.742668 0.275306 -0.107481
C22   C     C_R   0.034597 0.720834 0.310677 -0.073509
C23   C     C_R   0.943937 0.242577 0.596507 0.000847
C24   C     C_R   0.964279 0.495887 0.039483 -0.027372
C25   C     C_R   0.965377 0.279181 0.689369 -0.073442
C26   C     C_R   0.029358 0.257368 0.724733 -0.107438
C27   C     C_R   0.072448 0.198085 0.668668 -0.094794
C28   C     C_R   0.051981 0.160896 0.576491 -0.109264
C29   C     C_R   0.988099 0.182677 0.540868 -0.120737
C30   C     C_R   0.880225 0.720220 0.722562 0.024201
C31   C     C_R   0.958743 0.710712 0.696143 -0.043849
C32   C     C_R   0.997471 0.712538 0.784757 -0.099906
C33   C     C_R   0.958291 0.725336 0.901447 -0.109394
C34   C     C_R   0.880522 0.737119 0.929269 -0.124241
C35   C     C_R   0.409704 0.990987 0.869215 0.120776
C36   C     C_R   0.841734 0.735219 0.840570 -0.129440
C37   C     C_R   0.119841 0.279871 0.277367 0.024244
C38   C     C_R   0.158373 0.265015 0.159335 -0.129374
C39   C     C_R   0.119609 0.263180 0.070605 -0.124209
C40   C     C_R   0.041827 0.274886 0.098419 -0.109317
C41   C     C_R   0.002610 0.287541 0.215131 -0.099848
C42   C     C_R   0.041313 0.289305 0.303777 -0.043845
C43   C     C_R   0.324464 0.981304 0.073194 0.005814
C44   C     C_R   0.277235 0.042591 0.106220 -0.102128
C45   C     C_R   0.204124 0.033570 0.177258 -0.115906
C46   C     C_R   0.590296 0.009002 0.130781 0.120809
C47   C     C_R   0.177856 0.963457 0.214961 -0.104890
C48   C     C_R   0.224799 0.902336 0.182166 -0.113088
C49   C     C_R   0.298229 0.911239 0.112737 -0.104630
C50   C     C_R   0.675547 0.018608 0.926802 0.005816
C51   C     C_R   0.701791 0.088649 0.887143 -0.104642
C52   C     C_R   0.775239 0.097523 0.817765 -0.113094
C53   C     C_R   0.822191 0.036394 0.785129 -0.104873
C54   C     C_R   0.795915 0.966302 0.822948 -0.115947
C55   C     C_R   0.722786 0.957313 0.893940 -0.102138
C56   C     C_R   0.824491 0.481090 0.073179 0.005810
C57   C     C_R   0.909710 0.490939 0.869207 0.120687
C58   C     C_R   0.777262 0.542349 0.106512 -0.102103
C59   C     C_R   0.704181 0.533250 0.177614 -0.115841
C60   C     C_R   0.677944 0.463087 0.215083 -0.104928
C61   C     C_R   0.724890 0.401994 0.181990 -0.113082
C62   C     C_R   0.798289 0.410973 0.112485 -0.104617
C63   C     C_R   0.175525 0.518768 0.926807 0.005815
C64   C     C_R   0.201736 0.588848 0.887303 -0.104635
C65   C     C_R   0.275156 0.597780 0.817855 -0.113087
C66   C     C_R   0.322114 0.536674 0.785001 -0.104901
C67   C     C_R   0.295870 0.466546 0.822663 -0.115892
C68   C     C_R   0.090291 0.509047 0.130786 0.120753
C69   C     C_R   0.222769 0.457497 0.893720 -0.102115
C70   C     C_R   0.400786 0.989910 0.993089 -0.062923
C71   C     C_R   0.599219 0.010042 0.006905 -0.062899
C72   C     C_R   0.900798 0.489794 0.993076 -0.062968
C73   C     C_R   0.598782 0.897754 0.477535 0.541157
C74   C     C_R   0.099209 0.510126 0.006913 -0.062924
C75   C     C_R   0.542130 0.006013 0.836899 0.024404
C76   C     C_R   0.457873 0.993958 0.163098 0.024409
C77   C     C_R   0.042126 0.506043 0.836902 0.024424
C78   C     C_R   0.957879 0.493905 0.163093 0.024442
C79   C     C_R   0.645750 0.167269 0.469982 -0.001946
C80   C     C_R   0.354252 0.832731 0.530012 -0.001977
C81   C     C_R   0.347795 0.163090 0.536816 0.003590
C82   C     C_R   0.652219 0.836925 0.463168 0.003571
C83   C     C_R   0.145753 0.667267 0.469981 -0.001996
C84   C     C_R   0.595236 0.104604 0.479889 0.541112
C85   C     C_R   0.854248 0.332734 0.530014 -0.002058
C86   C     C_R   0.847813 0.663110 0.536805 0.003642
C87   C     C_R   0.152207 0.336912 0.463184 0.003593
C88   C     C_R   0.324116 0.702968 0.553695 -0.142687
C89   C     C_R   0.675904 0.297025 0.446248 -0.142666
C90   C     C_R   0.713888 0.725779 0.370219 -0.141794
C91   C     C_R   0.286135 0.274243 0.629752 -0.141792
C92   C     C_R   0.824113 0.202972 0.553702 -0.142685
C93   C     C_R   0.175893 0.797029 0.446289 -0.142672
C94   C     C_R   0.213869 0.225761 0.370247 -0.141814
C95   C     C_R   0.404764 0.895396 0.520110 0.541137
C96   C     C_R   0.786177 0.774287 0.629688 -0.141798
C97   C     C_R   0.372898 0.761268 0.562302 -0.041653
C98   C     C_R   0.627112 0.238729 0.437669 -0.041654
C99   C     C_R   0.662081 0.782326 0.371496 -0.020546
C100  C     C_R   0.337942 0.217697 0.628477 -0.020523
C101  C     C_R   0.872888 0.261275 0.562326 -0.041658
C102  C     C_R   0.127110 0.738729 0.437680 -0.041647
C103  C     C_R   0.162061 0.282307 0.371522 -0.020533
C104  C     C_R   0.837981 0.717740 0.628434 -0.020474
C105  C     C_R   0.288715 0.843876 0.492281 -0.137229
C106  C     C_R   0.901227 0.602256 0.522461 0.541172
C107  C     C_R   0.711289 0.156124 0.507711 -0.137220
C108  C     C_R   0.694701 0.833775 0.546913 -0.140909
C109  C     C_R   0.305322 0.166248 0.453057 -0.140887
C110  C     C_R   0.788721 0.343874 0.492254 -0.137263
C111  C     C_R   0.211290 0.656122 0.507713 -0.137230
C112  C     C_R   0.194680 0.333754 0.546943 -0.140882
C113  C     C_R   0.805333 0.666261 0.453050 -0.140858
C114  C     C_R   0.241045 0.785410 0.484700 0.022652
C115  C     C_R   0.758963 0.214588 0.515280 0.022650
C116  C     C_R   0.745318 0.777179 0.544200 0.021330
C117  C     C_R   0.098779 0.397751 0.477538 0.541170
C118  C     C_R   0.254711 0.222850 0.455759 0.021343
C119  C     C_R   0.741053 0.285409 0.484672 0.022653
C120  C     C_R   0.258961 0.714587 0.515289 0.022650
C121  C     C_R   0.245292 0.277153 0.544241 0.021345
C122  C     C_R   0.754729 0.722867 0.455734 0.021346
C123  C     C_R   0.659918 0.020276 0.172839 0.101555
C124  C     C_R   0.700699 0.959858 0.196053 -0.059765
C125  C     C_R   0.768221 0.969743 0.229606 -0.120661
C126  C     C_R   0.797866 0.040343 0.234135 -0.109073
C127  C     C_R   0.761138 0.100606 0.201526 -0.104277
C128  C     C_R   0.095241 0.604601 0.479887 0.541065
C129  C     C_R   0.693453 0.090449 0.168457 -0.072159
C130  C     C_R   0.340071 0.979804 0.827155 0.101559
C131  C     C_R   0.299328 0.040285 0.804071 -0.059805
C132  C     C_R   0.231785 0.030503 0.770543 -0.120626
C133  C     C_R   0.202084 0.959938 0.765901 -0.109111
C134  C     C_R   0.238776 0.899606 0.798376 -0.104318
C135  C     C_R   0.306480 0.909662 0.831430 -0.072070
C136  C     C_R   0.159927 0.520216 0.172844 0.101546
C137  C     C_R   0.200658 0.459722 0.195913 -0.059800
C138  C     C_R   0.268204 0.469483 0.229439 -0.120624
C139  C     C_R   0.904761 0.395399 0.520111 0.541121
C140  C     C_R   0.297920 0.540040 0.234096 -0.109117
C141  C     C_R   0.261239 0.600386 0.201636 -0.104311
C142  C     C_R   0.193532 0.590351 0.168583 -0.072071
C143  C     C_R   0.840054 0.479945 0.827142 0.101568
C144  C     C_R   0.806344 0.409867 0.831193 -0.071893
C145  C     C_R   0.738605 0.400025 0.798157 -0.104386
C146  C     C_R   0.701993 0.460502 0.765953 -0.109179
C147  C     C_R   0.731812 0.530994 0.770839 -0.120554
C148  C     C_R   0.799394 0.540559 0.804327 -0.059877
C149  C     C_R   0.556052 0.257442 0.403532 0.000810
C150  C     C_R   0.535730 0.004019 0.960506 -0.027408
C151  C     C_R   0.511921 0.317362 0.459164 -0.120753
C152  C     C_R   0.448037 0.339162 0.423564 -0.109271
C153  C     C_R   0.427535 0.301969 0.331419 -0.094766
C154  C     C_R   0.470591 0.242664 0.275366 -0.107466
C155  C     C_R   0.534574 0.220833 0.310710 -0.073522
C156  C     C_R   0.443955 0.742565 0.596450 0.000831
C157  C     C_R   0.465415 0.779171 0.689291 -0.073479
C158  C     C_R   0.529405 0.757358 0.724628 -0.107442
C159  C     C_R   0.572484 0.698071 0.668556 -0.094764
C160  C     C_R   0.551995 0.660877 0.576402 -0.109270
Cu1   Cu    Cu3+1 0.507800 0.000000 0.383250 0.927679
Cu2   Cu    Cu3+1 0.492200 0.000000 0.616750 0.927686
Cu3   Cu    Cu3+1 0.007800 0.500000 0.383250 0.927701
Cu4   Cu    Cu3+1 0.992200 0.500000 0.616750 0.927700
H1    H     H_    0.837489 0.147811 0.575720 0.104581
H2    H     H_    0.797958 0.922586 0.250535 0.098115
H3    H     H_    0.203230 0.403138 0.923861 0.098825
H4    H     H_    0.850225 0.048125 0.259837 0.105264
H5    H     H_    0.785462 0.155062 0.200629 0.107041
H6    H     H_    0.668211 0.137004 0.137049 0.073376
H7    H     H_    0.319782 0.094878 0.813112 0.127558
H8    H     H_    0.202075 0.077711 0.749724 0.098140
H9    H     H_    0.149706 0.952236 0.740220 0.105257
H10   H     H_    0.214405 0.845176 0.799187 0.107066
H11   H     H_    0.331693 0.863051 0.862739 0.073412
H12   H     H_    0.180192 0.405134 0.186861 0.127574
H13   H     H_    0.162520 0.852190 0.424267 0.104602
H14   H     H_    0.297905 0.422265 0.250245 0.098138
H15   H     H_    0.350300 0.547726 0.259775 0.105256
H16   H     H_    0.285621 0.654810 0.200836 0.107081
H17   H     H_    0.168330 0.636972 0.137285 0.073423
H18   H     H_    0.831489 0.363141 0.862302 0.073481
H19   H     H_    0.714140 0.345649 0.798783 0.107127
H20   H     H_    0.649584 0.452968 0.740302 0.105234
H21   H     H_    0.702164 0.578309 0.750243 0.098160
H22   H     H_    0.819951 0.595087 0.813556 0.127545
H23   H     H_    0.403424 0.988262 0.224764 0.142096
H24   H     H_    0.221577 0.182803 0.303308 0.097010
H25   H     H_    0.596579 0.011705 0.775233 0.142083
H26   H     H_    0.903434 0.488160 0.224753 0.142115
H27   H     H_    0.096571 0.511777 0.775239 0.142104
H28   H     H_    0.724414 0.101571 0.533261 0.112030
H29   H     H_    0.275586 0.898430 0.466743 0.112046
H30   H     H_    0.311857 0.124280 0.384503 0.120109
H31   H     H_    0.688166 0.875745 0.615464 0.120114
H32   H     H_    0.224418 0.601568 0.533255 0.112055
H33   H     H_    0.775597 0.398427 0.466699 0.112087
H34   H     H_    0.811857 0.624282 0.384513 0.120091
H35   H     H_    0.778488 0.817268 0.696586 0.097036
H36   H     H_    0.188144 0.375723 0.615498 0.120107
H37   H     H_    0.526742 0.347028 0.530926 0.102232
H38   H     H_    0.414374 0.384882 0.467568 0.104759
H39   H     H_    0.378073 0.318805 0.303866 0.106652
H40   H     H_    0.454643 0.213770 0.203927 0.098765
H41   H     H_    0.567599 0.176599 0.263362 0.131385
H42   H     H_    0.432370 0.823388 0.736657 0.131325
H43   H     H_    0.545343 0.786253 0.796077 0.098758
H44   H     H_    0.621954 0.681252 0.696101 0.106638
H45   H     H_    0.585675 0.615169 0.532385 0.104763
H46   H     H_    0.337491 0.647807 0.575714 0.104616
H47   H     H_    0.473296 0.652995 0.469032 0.102219
H48   H     H_    0.489834 0.200778 0.607157 0.126037
H49   H     H_    0.557810 0.203849 0.762940 0.111638
H50   H     H_    0.488083 0.226155 0.970315 0.099854
H51   H     H_    0.350116 0.246995 0.019867 0.094442
H52   H     H_    0.281169 0.243043 0.864645 0.088706
H53   H     H_    0.718900 0.757084 0.135318 0.088716
H54   H     H_    0.649983 0.753179 0.980053 0.094410
H55   H     H_    0.512007 0.773969 0.029577 0.099843
H56   H     H_    0.442242 0.796174 0.236960 0.111631
H57   H     H_    0.662540 0.352183 0.424198 0.104661
H58   H     H_    0.510185 0.799200 0.392783 0.126027
H59   H     H_    0.026723 0.847017 0.530923 0.102250
H60   H     H_    0.914376 0.884878 0.467515 0.104767
H61   H     H_    0.878107 0.818812 0.303775 0.106644
H62   H     H_    0.954691 0.713780 0.203848 0.098775
H63   H     H_    0.067629 0.676604 0.263330 0.131344
H64   H     H_    0.932323 0.323394 0.736735 0.131241
H65   H     H_    0.045280 0.286258 0.796199 0.098755
H66   H     H_    0.121909 0.181263 0.696237 0.106647
H67   H     H_    0.085669 0.115193 0.532478 0.104778
H68   H     H_    0.721598 0.682825 0.303272 0.096952
H69   H     H_    0.973306 0.153016 0.469078 0.102226
H70   H     H_    0.989862 0.700707 0.607087 0.126091
H71   H     H_    0.057884 0.703878 0.762810 0.111700
H72   H     H_    0.988225 0.726433 0.970150 0.099874
H73   H     H_    0.850277 0.747404 0.019719 0.094524
H74   H     H_    0.781284 0.743334 0.864569 0.088700
H75   H     H_    0.218832 0.256964 0.135354 0.088709
H76   H     H_    0.149882 0.253011 0.980135 0.094448
H77   H     H_    0.011913 0.273841 0.029693 0.099851
H78   H     H_    0.942188 0.296143 0.237070 0.111682
H79   H     H_    0.278429 0.317202 0.696689 0.096997
H80   H     H_    0.010167 0.299220 0.392849 0.126040
H81   H     H_    0.296792 0.096938 0.076044 0.098833
H82   H     H_    0.167538 0.080761 0.202052 0.107513
H83   H     H_    0.121031 0.956408 0.269016 0.106987
H84   H     H_    0.204149 0.847916 0.209447 0.112016
H85   H     H_    0.334104 0.863521 0.087573 0.092204
H86   H     H_    0.665912 0.136374 0.912190 0.092227
H87   H     H_    0.795897 0.151928 0.790410 0.112018
H88   H     H_    0.879030 0.043421 0.731113 0.106982
H89   H     H_    0.832509 0.919107 0.798284 0.107581
H90   H     H_    0.680295 0.905233 0.187097 0.127557
H91   H     H_    0.703227 0.902986 0.924219 0.098846
H92   H     H_    0.796799 0.596739 0.076535 0.098790
H93   H     H_    0.667596 0.580420 0.202652 0.107409
H94   H     H_    0.621144 0.455979 0.269198 0.107006
H95   H     H_    0.704268 0.347541 0.209119 0.112017
H96   H     H_    0.834169 0.363278 0.087098 0.092175
H97   H     H_    0.165848 0.636553 0.912508 0.092196
H98   H     H_    0.295787 0.652209 0.790598 0.112018
H99   H     H_    0.378932 0.543745 0.730930 0.106990
H100  H     H_    0.332466 0.419367 0.797817 0.107490
N1    N     N_R   0.519530 1.000000 0.207810 -0.246740
N2    N     N_R   0.480470 1.000000 0.792190 -0.246737
N3    N     N_R   0.019530 0.500000 0.207810 -0.246743
N4    N     N_R   0.980470 0.500000 0.792190 -0.246749
O1    O     O_R   0.430030 0.075530 0.417420 -0.508246
O2    O     O_R   0.583140 0.924490 0.385390 -0.499624
O3    O     O_R   0.583140 0.075510 0.385390 -0.499430
O4    O     O_R   0.416860 0.924490 0.614610 -0.499444
O5    O     O_R   0.916860 0.575510 0.614610 -0.499522
O6    O     O_R   0.083140 0.424490 0.385390 -0.499583
O7    O     O_R   0.083140 0.575510 0.385390 -0.499449
O8    O     O_R   0.916860 0.424490 0.614610 -0.499475
O9    O     O_R   0.569970 0.924470 0.582580 -0.508230
O10   O     O_R   0.569970 0.075530 0.582580 -0.514525
O11   O     O_R   0.430030 0.924470 0.417420 -0.514507
O12   O     O_R   0.930030 0.575530 0.417420 -0.508234
O13   O     O_R   0.069970 0.424470 0.582580 -0.508214
O14   O     O_R   0.069970 0.575530 0.582580 -0.514552
O15   O     O_R   0.930030 0.424470 0.417420 -0.514511
O16   O     O_R   0.416860 0.075510 0.614610 -0.499584

loop_
_geom_bond_atom_site_label_1
_geom_bond_atom_site_label_2
_ccdc_geom_bond_type
C2    C150  A    
C96   H35   S    
C157  C158  A    
C83   C102  A    
C80   C97   A    
C141  H16   S    
C82   C99   A    
C90   C99   A    
C79   C98   A    
C16   H58   S    
C130  C135  A    
C78   H26   S    
C128  O14   A    
C83   C128  S    
C50   C71   S    
C8    H51   S    
C86   C104  A    
C28   C29   A    
C65   H98   S    
C127  C129  A    
C67   H100  S    
Cu2   O10   S    
C2    C76   A    
C95   O4    A    
Cu3   O7    S    
C53   C54   A    
C147  H21   S    
C105  H29   S    
C160  H45   S    
Cu4   N4    S    
C131  H7    S    
C26   C27   A    
C126  C127  A    
C125  C126  A    
C116  C122  A    
C86   C113  A    
C107  C115  A    
C158  H43   S    
C23   C29   A    
C35   N2    A    
C21   C22   A    
C156  C157  A    
C75   H25   S    
C37   C38   A    
C94   H24   S    
C87   C117  S    
C126  H4    S    
C73   O2    A    
C149  C151  A    
C159  C160  A    
C89   H57   S    
C5    C6    A    
C143  C144  A    
C71   C150  A    
C1    O1    A    
Cu3   O12   S    
C75   C150  A    
C68   C74   A    
C15   C16   A    
C140  H15   S    
C112  C121  A    
C18   C19   A    
C41   C42   A    
C97   C156  S    
C60   H94   S    
C37   C42   A    
C51   H86   S    
C34   H73   S    
C68   N3    A    
C136  C142  A    
C38   H75   S    
C32   H71   S    
C92   H1    S    
C7    H50   S    
C113  C122  A    
C147  C148  A    
C57   N4    A    
Cu1   N1    S    
C132  C133  A    
C56   C72   S    
C84   O10   A    
C107  H28   S    
C151  C152  A    
C58   H92   S    
C82   C108  A    
C91   C100  A    
C88   C120  A    
C134  H10   S    
C85   C139  S    
C34   C36   A    
C40   H77   S    
C145  H19   S    
C111  H32   S    
C49   H85   S    
C139  O15   A    
C66   C67   A    
C110  C119  A    
C59   C60   A    
C26   H65   S    
C88   H46   S    
C76   N1    A    
C123  C129  A    
C110  H33   S    
C36   H74   S    
C90   C122  A    
C90   H68   S    
C86   C106  S    
C106  O5    A    
C151  H37   S    
C30   C36   A    
C12   H54   S    
C39   H76   S    
C52   H87   S    
Cu2   O9    S    
C109  C118  A    
C145  C146  A    
C148  H22   S    
C13   C77   A    
C45   C47   A    
C9    H52   S    
C3    H47   S    
C38   C39   A    
C31   H70   S    
C144  H18   S    
C44   C45   A    
C95   O11   A    
C57   C143  S    
C79   C107  A    
C51   C52   A    
C77   H27   S    
C89   C119  A    
C105  C114  A    
C123  C124  A    
C33   C34   A    
C140  C141  A    
C35   C70   A    
C137  H12   S    
C124  H90   S    
C85   C110  A    
Cu1   O11   S    
C96   C116  A    
C39   C40   A    
C37   C103  S    
C93   H13   S    
C64   H97   S    
C43   C49   A    
C22   H63   S    
Cu1   O1    S    
C25   C26   A    
C89   C98   A    
C80   C105  A    
Cu2   N2    S    
Cu1   O3    S    
C20   H61   S    
C13   C24   A    
C60   C61   A    
C80   C95   S    
C53   H88   S    
C135  H11   S    
C158  C159  A    
C45   H82   S    
C17   C102  S    
C69   H3    S    
C128  O7    A    
C10   C99   S    
C79   C84   S    
C21   H62   S    
Cu4   O5    S    
C27   H66   S    
C47   C48   A    
C35   C130  S    
C68   C136  S    
C30   C31   A    
C113  H34   S    
C50   C55   A    
Cu2   O4    S    
Cu3   O6    S    
C17   C18   A    
C8    C9    A    
C1    C81   S    
Cu4   O14   S    
C109  H30   S    
C50   C51   A    
C20   C21   A    
C108  H31   S    
C18   H59   S    
C33   H72   S    
C28   H67   S    
C29   H69   S    
C154  C155  A    
C6    C7    A    
C76   H23   S    
C138  C140  A    
C44   H81   S    
C87   C103  A    
C92   C101  A    
C24   C78   A    
C40   C41   A    
C81   C100  A    
C152  C153  A    
C81   C109  A    
C94   C103  A    
C43   C70   S    
C115  C119  A    
C153  H39   S    
C4    C100  S    
C43   C44   A    
C133  C134  A    
C54   H89   S    
C56   C62   A    
C46   C123  S    
C58   C59   A    
C46   C71   A    
C61   H95   S    
C15   H56   S    
C66   H99   S    
C138  H14   S    
C62   H96   S    
C73   C82   S    
C85   C101  A    
C52   C53   A    
C24   C72   A    
C146  C147  A    
C5    H48   S    
C11   H53   S    
C54   C55   A    
C48   C49   A    
C152  H38   S    
C84   O3    A    
Cu3   N3    S    
Cu4   O8    S    
C31   C32   A    
C59   H93   S    
C157  H42   S    
C117  O6    A    
C12   C14   A    
C136  C137  A    
C155  H41   S    
C93   C102  A    
C1    O16   A    
C154  H40   S    
C11   C12   A    
C19   H60   S    
C134  C135  A    
C87   C112  A    
C63   C74   S    
Cu2   O16   S    
Cu1   O2    S    
C127  H5    S    
C112  H36   S    
C132  H8    S    
C137  C138  A    
C91   H79   S    
C25   H64   S    
C17   C22   A    
C77   N4    A    
C146  H20   S    
C41   H78   S    
C144  C145  A    
C73   O9    A    
C78   N3    A    
C108  C116  A    
C19   C20   A    
C96   C104  A    
C130  C131  A    
C149  C155  A    
C88   C97   A    
C63   C69   A    
C48   H84   S    
Cu1   Cu2   S    
C141  C142  A    
C32   C33   A    
C94   C118  A    
C159  H44   S    
C3    C160  A    
C23   C101  S    
C6    H49   S    
C46   N1    A    
C4    C5    A    
C64   C65   A    
C42   H80   S    
C3    C156  A    
C55   H91   S    
Cu4   O13   S    
C125  H2    S    
C83   C111  A    
C93   C114  A    
C23   C25   A    
C57   C72   A    
C117  O13   A    
C61   C62   A    
C139  O8    A    
C92   C115  A    
C143  C148  A    
Cu3   Cu4   S    
C7    C8    A    
C10   C11   A    
C63   C64   A    
C14   H55   S    
C118  C121  A    
C142  H17   S    
C106  O12   A    
C13   C74   A    
C56   C58   A    
C65   C66   A    
C91   C121  A    
C30   C104  S    
C27   C28   A    
C14   C15   A    
C111  C120  A    
C10   C16   A    
C129  H6    S    
Cu3   O15   S    
C67   C69   A    
C4    C9    A    
C2    C70   A    
C133  H9    S    
C98   C149  S    
C114  C120  A    
C131  C132  A    
C124  C125  A    
C153  C154  A    
C75   N2    A    
C47   H83   S    
