data_mof_unit_29278.cif
_audit_creation_date              2012-12-10T17:49:42-0500
_audit_creation_method            fapswitch 2.2
_symmetry_space_group_name_H-M    P1
_symmetry_Int_Tables_number       1
_space_group_crystal_system       triclinic
_cell_length_a                    10.624859
_cell_length_b                    10.900099
_cell_length_c                    10.073928
_cell_angle_alpha                 92.015005
_cell_angle_beta                  89.995404
_cell_angle_gamma                 88.931543
_cell_volume                      1165.75744362

loop_
_atom_site_label
_atom_site_type_symbol
_atom_type_description
_atom_site_fract_x
_atom_site_fract_y
_atom_site_fract_z
_atom_type_partial_charge
C1    C     C_R   0.510892 0.260513 0.498996 0.891865
C2    C     C_R   0.557138 0.064918 0.617666 -0.074465
C3    C     C_R   0.533683 0.127398 0.498057 -0.156382
C4    C     C_R   0.258396 0.503386 0.499805 0.886536
C5    C     C_R   0.509109 0.056244 0.381795 0.004043
C6    C     C_R   0.537663 0.931338 0.383083 0.433337
C7    C     C_R   0.513130 0.873000 0.503097 -0.230874
C8    C     C_R   0.346851 0.337131 0.132573 -0.132512
C9    C     C_R   0.275114 0.252340 0.061179 -0.192146
C10   C     C_R   0.277803 0.249194 0.924007 -0.218326
C11   C     C_R   0.349814 0.332814 0.857403 -0.196383
C12   C     C_3   0.955085 0.585854 0.412630 -0.260916
C13   C     C_R   0.426402 0.417830 0.925633 0.156175
C14   C     C_R   0.425476 0.418993 0.069015 0.139530
C15   C     C_R   0.569944 0.577611 0.073750 -0.114094
C16   C     C_R   0.501725 0.739876 0.501730 0.886274
C17   C     C_R   0.568917 0.579233 0.932033 -0.157555
C18   C     C_R   0.742343 0.500693 0.500210 0.865404
C19   C     C_3   0.045049 0.427450 0.585928 0.041231
C20   C     C_3   0.965000 0.391739 0.466087 0.465048
C21   C     C_3   0.878113 0.502482 0.501282 -0.086558
C22   C     C_3   0.958963 0.538091 0.623445 -0.233769
C23   C     C_3   0.041515 0.474204 0.378783 0.027352
C24   C     C_3   0.039109 0.619392 0.534131 -0.200762
C25   C     C_3   0.027509 0.195507 0.394276 0.091620
C26   C     C_3   0.009350 0.064571 0.439004 -0.293779
C27   C     C_3   0.111185 0.976984 0.382437 -1.021243
C28   C     C_3   0.705431 0.834117 0.273776 0.053767
C29   C     C_3   0.767161 0.834561 0.134221 -0.341351
C30   C     C_3   0.874199 0.740888 0.112016 -1.014139
C31   C     C_3   0.751583 0.282602 0.754586 0.122980
C32   C     C_3   0.815020 0.297200 0.889583 -0.358048
C33   C     C_3   0.861755 0.426391 0.920683 -1.026260
C34   C     C_3   0.123904 0.507129 0.498551 -0.038837
C35   C     C_3   0.646190 0.110981 0.073421 0.044733
C36   C     C_3   0.755024 0.150939 0.165829 -0.423379
C37   C     C_3   0.739514 0.280482 0.224629 -0.702930
C38   C     C_R   0.624727 0.110444 0.730525 0.407487
C39   C     C_R   0.602679 0.055927 0.854349 0.442809
C40   C     C_R   0.509537 0.964496 0.861418 -0.029114
C41   C     C_R   0.467892 0.906847 0.744387 -0.242992
C42   C     C_R   0.510409 0.946032 0.622013 -0.038622
H1    H     H_    0.403892 0.831396 0.751189 0.191447
H2    H     H_    0.913286 0.654272 0.348105 0.161882
H3    H     H_    0.121145 0.226538 0.431139 0.138964
H4    H     H_    0.028309 0.195620 0.283971 0.148116
H5    H     H_    0.011789 0.063674 0.549291 0.238841
H6    H     H_    0.916023 0.032105 0.405707 0.220567
H7    H     H_    0.114941 0.981051 0.272462 0.263752
H8    H     H_    0.089698 0.881601 0.408609 0.268835
H9    H     H_    0.204350 0.000904 0.424911 0.267925
H10   H     H_    0.369082 0.935024 0.989614 0.182516
H11   H     H_    0.483008 0.825504 0.985691 0.213398
H12   H     H_    0.627530 0.639564 0.129067 0.187974
H13   H     H_    0.713134 0.740777 0.313300 0.181711
H14   H     H_    0.760453 0.894940 0.342227 0.095603
H15   H     H_    0.695749 0.819505 0.055580 0.254016
H16   H     H_    0.809295 0.923982 0.117843 0.246118
H17   H     H_    0.956913 0.767314 0.173241 0.272127
H18   H     H_    0.903553 0.739888 0.006147 0.278388
H19   H     H_    0.844160 0.647151 0.134715 0.263838
H20   H     H_    0.124657 0.391763 0.761664 0.202577
H21   H     H_    0.028005 0.281627 0.705107 0.212519
H22   H     H_    0.014044 0.419925 0.185982 0.176910
H23   H     H_    0.337864 0.337145 0.237545 0.220431
H24   H     H_    0.127241 0.522464 0.208679 0.219947
H25   H     H_    0.349896 0.137020 0.319370 0.161385
H26   H     H_    0.405505 0.032767 0.212260 0.209596
H27   H     H_    0.659938 0.331035 0.763073 0.180864
H28   H     H_    0.810588 0.327783 0.681960 0.205289
H29   H     H_    0.740167 0.285882 0.961472 0.257934
H30   H     H_    0.892229 0.228307 0.901338 0.252854
H31   H     H_    0.800713 0.495899 0.874178 0.281426
H32   H     H_    0.960029 0.435553 0.888312 0.271573
H33   H     H_    0.859214 0.445981 0.029089 0.262690
H34   H     H_    0.215869 0.189744 0.112707 0.138702
H35   H     H_    0.601394 0.035762 0.121858 0.239890
H36   H     H_    0.574648 0.185590 0.060367 0.150181
H37   H     H_    0.762192 0.088672 0.250125 0.203855
H38   H     H_    0.846626 0.142604 0.112662 0.232054
H39   H     H_    0.828803 0.329705 0.216859 0.236296
H40   H     H_    0.716664 0.275320 0.331078 0.296857
H41   H     H_    0.666194 0.334945 0.174815 0.250837
H42   H     H_    0.220436 0.184233 0.868641 0.160836
H43   H     H_    0.338756 0.331625 0.752785 0.229958
H44   H     H_    0.625958 0.644939 0.882507 0.156359
H45   H     H_    0.924697 0.573215 0.721123 0.168615
H46   H     H_    0.073626 0.712167 0.562242 0.147029
N1    N     N_R   0.498800 0.498800 0.142780 -0.140160
N2    N     N_R   0.498760 0.498720 0.857170 -0.138582
N3    N     N_3   0.466523 0.920218 0.984996 -0.459158
N4    N     N_3   0.098729 0.340565 0.677159 -0.490107
N5    N     N_3   0.089996 0.442781 0.246496 -0.472681
N6    N     N_3   0.434088 0.104212 0.276419 -0.447614
O1    O     O_R   0.500000 0.316780 0.614690 -0.680920
O2    O     O_3   0.575314 0.869008 0.266319 -0.637795
O3    O     O_3   0.742816 0.158934 0.708765 -0.629550
O4    O     O_3   0.695486 0.066399 0.950652 -0.649983
O5    O     O_R   0.499990 0.316750 0.385360 -0.629193
O6    O     O_R   0.313960 0.499980 0.614650 -0.630535
O7    O     O_R   0.313940 0.499960 0.385310 -0.635860
O8    O     O_R   0.500010 0.683250 0.614640 -0.623966
O9    O     O_R   0.500000 0.683220 0.385310 -0.574773
O10   O     O_R   0.686060 0.500040 0.614690 -0.655738
O11   O     O_R   0.686040 0.500020 0.385350 -0.642866
O12   O     O_3   0.925621 0.270240 0.441577 -0.671098
Zn1   Zn    Zn3+2 0.500010 0.500020 0.653130 0.905147
Zn2   Zn    Zn3+2 0.499990 0.499980 0.346870 0.927197

loop_
_geom_bond_atom_site_label_1
_geom_bond_atom_site_label_2
_ccdc_geom_bond_type
C40   C41   A    
C13   N2    A    
C18   C21   S    
C41   C42   A    
C35   C36   S    
C1    O5    A    
C5    N6    S    
C28   H14   S    
C32   H30   S    
O5    Zn2   S    
C12   C23   S    
C26   C27   S    
C28   C29   S    
C11   H43   S    
H22   N5    S    
C38   C39   A    
C7    C42   A    
C19   N4    S    
C33   H33   S    
C31   H28   S    
C19   C20   S    
C8    C9    A    
H20   N4    S    
H21   N4    S    
H11   N3    S    
H25   N6    S    
O9    Zn2   S    
C9    H34   S    
C35   O4    S    
C9    C10   A    
C27   H8    S    
C26   H6    S    
O7    Zn2   S    
C8    H23   S    
C21   C22   S    
C30   H17   S    
C41   H1    S    
C37   H39   S    
C38   O3    S    
C28   H13   S    
C27   H9    S    
C25   O12   S    
C32   H29   S    
C20   O12   S    
O11   Zn2   S    
C4    C34   S    
C17   H44   S    
C15   H12   S    
C19   C22   S    
C36   H38   S    
C39   C40   A    
C39   O4    S    
C25   C26   S    
C12   C21   S    
C35   H35   S    
C24   C34   S    
C23   N5    S    
C30   H18   S    
C1    C3    S    
C14   N1    A    
C29   C30   S    
C15   N1    A    
C2    C38   A    
C16   O9    A    
C31   C32   S    
C20   C23   S    
C1    O1    A    
C23   C34   S    
C4    O7    A    
O8    Zn1   S    
C18   O10   A    
C22   H45   S    
C29   H16   S    
C24   H46   S    
O1    Zn1   S    
C26   H5    S    
C36   H37   S    
H24   N5    S    
C16   O8    A    
C7    C16   S    
C29   H15   S    
C6    O2    S    
C4    O6    A    
C22   C24   S    
C37   H40   S    
C25   H3    S    
C33   H31   S    
C15   C17   A    
C36   C37   S    
O6    Zn1   S    
C8    C14   A    
C17   N2    A    
C3    C5    A    
C19   C34   S    
N2    Zn1   S    
C6    C7    A    
C12   C24   S    
C35   H36   S    
C28   O2    S    
C32   C33   S    
C2    C3    A    
C18   O11   A    
C12   H2    S    
C11   C13   A    
C5    C6    A    
C2    C42   A    
N1    Zn2   S    
C10   H42   S    
C31   O3    S    
C40   N3    S    
H26   N6    S    
C10   C11   A    
C33   H32   S    
C31   H27   S    
C20   C21   S    
C30   H19   S    
C37   H41   S    
H10   N3    S    
C13   C14   A    
C25   H4    S    
O10   Zn1   S    
C27   H7    S    
