data_mof_unit_54432.cif
_audit_creation_date              2012-10-26T19:06:29-0400
_audit_creation_method            fapswitch 2.2
_symmetry_space_group_name_H-M    P1
_symmetry_Int_Tables_number       1
_space_group_crystal_system       triclinic
_cell_length_a                    12.35635
_cell_length_b                    13.234542
_cell_length_c                    14.339056
_cell_angle_alpha                 78.315171
_cell_angle_beta                  100.887577
_cell_angle_gamma                 116.711249
_cell_volume                      2038.35662422

loop_
_atom_site_label
_atom_site_type_symbol
_atom_type_description
_atom_site_fract_x
_atom_site_fract_y
_atom_site_fract_z
_atom_type_partial_charge
C1    C     C_R   0.854770 0.286473 0.510374 0.525631
C2    C     C_R   0.442495 0.969561 0.511752 0.032999
C3    C     C_R   0.412305 0.026255 0.569786 0.053281
C4    C     C_R   0.000015 0.499708 0.668702 0.533893
C5    C     C_R   0.503921 0.115532 0.614951 -0.126334
C6    C     C_R   0.623508 0.158662 0.595351 -0.117255
C7    C     C_R   0.348000 0.871814 0.476461 -0.122507
C8    C     C_R   0.199425 0.893207 0.550027 -0.132567
C9    C     C_R   0.773742 0.165298 0.502094 0.002841
C10   C     C_R   0.347834 0.336102 0.653650 -0.148083
C11   C     C_R   0.759883 0.639692 0.371408 0.023832
C12   C     C_1   0.999725 0.500287 0.228843 -0.030921
C13   C     C_R   0.657725 0.657279 0.330387 -0.133388
C14   C     C_R   0.547359 0.594989 0.370365 0.000985
C15   C     C_R   0.545892 0.526346 0.461418 -0.039714
C16   C     C_R   0.145258 0.712823 0.489496 0.545977
C17   C     C_R   0.652097 0.506960 0.497242 0.176639
C18   C     C_R   0.444612 0.473301 0.517633 -0.021268
C19   C     C_R   0.448073 0.395586 0.601228 0.044283
C20   C     C_R   0.552400 0.379251 0.633477 -0.171364
C21   C     C_R   0.650552 0.431112 0.581132 -0.087580
C22   C     C_R   0.342859 0.498842 0.499377 0.032987
C23   C     C_R   0.291018 0.990080 0.585746 -0.127507
C24   C     C_R   0.245617 0.356856 0.625331 0.050616
C25   C     C_R   0.999984 0.500279 0.331298 0.545447
C26   C     C_1   0.000220 0.499618 0.771156 -0.043021
C27   C     C_1   0.000171 0.499673 0.856608 -0.039403
C28   C     C_1   0.000033 0.499834 0.957292 0.005310
C29   C     C_1   0.999902 0.500000 0.042716 0.009564
C30   C     C_1   0.999761 0.500185 0.143395 -0.028588
C31   C     C_2   0.435519 0.589799 0.307320 0.198014
C32   C     C_R   0.228867 0.831253 0.499101 0.002721
C33   C     C_R   0.809542 0.107261 0.451547 -0.129825
C34   C     C_R   0.726452 0.002489 0.423255 -0.132168
C35   C     C_R   0.605391 0.956053 0.441592 -0.110847
C36   C     C_R   0.566133 0.011263 0.493814 0.034190
C37   C     C_R   0.654637 0.112992 0.529931 0.031669
Cu1   Cu    Cu3+1 0.098280 0.475420 0.520190 0.931087
Cu2   Cu    Cu3+1 0.901720 0.524580 0.479810 0.922779
H1    H     H_    0.107789 0.861714 0.568814 0.129732
H2    H     H_    0.364765 0.821720 0.435201 0.116038
H3    H     H_    0.900656 0.145428 0.430092 0.131242
H4    H     H_    0.545601 0.876478 0.414789 0.125643
H5    H     H_    0.754897 0.958935 0.383451 0.126935
H6    H     H_    0.692704 0.225810 0.633967 0.101178
H7    H     H_    0.167173 0.311538 0.664991 0.126452
H8    H     H_    0.350913 0.512819 0.312324 0.112515
H9    H     H_    0.558947 0.326390 0.700674 0.099762
H10   H     H_    0.348840 0.274525 0.716094 0.090151
H11   H     H_    0.340139 0.569564 0.448234 0.129779
H12   H     H_    0.842134 0.683218 0.336197 0.136727
H13   H     H_    0.662772 0.712726 0.262847 0.151090
H14   H     H_    0.723179 0.407899 0.608547 0.168862
H15   H     H_    0.482179 0.150221 0.666908 0.103108
H16   H     H_    0.267849 0.034166 0.629202 0.108398
N1    N     N_R   0.246290 0.438200 0.550780 -0.230721
N2    N     N_R   0.754310 0.561180 0.449760 -0.231901
O1    O     O_R   0.972510 0.318130 0.525390 -0.503216
O2    O     O_R   0.806530 0.359650 0.491290 -0.498475
O3    O     O_R   0.083010 0.479240 0.641000 -0.475925
O4    O     O_R   0.917030 0.520750 0.606900 -0.504989
O5    O     O_R   0.193470 0.640350 0.508710 -0.494513
O6    O     O_R   0.027490 0.681870 0.474610 -0.501952
O7    O     O_R   0.082970 0.479250 0.393100 -0.483281
O8    O     O_R   0.916990 0.520760 0.359000 -0.482812
O9    O     O_2   0.437245 0.670425 0.247420 -0.512234

loop_
_geom_bond_atom_site_label_1
_geom_bond_atom_site_label_2
_ccdc_geom_bond_type
C17   N2    A    
C15   C18   A    
C9    C33   A    
C23   H16   S    
C29   C30   S    
C16   O6    A    
C16   C32   S    
C13   H13   S    
Cu2   O6    S    
C12   C25   S    
C12   C30   T    
C3    C23   A    
C19   C20   A    
C14   C31   S    
C22   H11   S    
Cu2   O2    S    
C35   H4    S    
C4    O3    A    
C9    C37   A    
C2    C3    A    
C6    C37   A    
Cu1   N1    S    
C31   H8    S    
C13   C14   A    
C21   H14   S    
C5    C6    A    
Cu2   O8    S    
C28   C29   T    
C26   C27   T    
C20   H9    S    
C16   O5    A    
C18   C22   A    
Cu1   O3    S    
C33   H3    S    
C36   C37   A    
C6    H6    S    
C10   C19   A    
C33   C34   A    
Cu1   O7    S    
C7    H2    S    
C11   H12   S    
C3    C5    A    
Cu1   Cu2   S    
Cu2   O4    S    
C8    H1    S    
C4    C26   S    
C24   N1    A    
C10   H10   S    
C8    C32   A    
C1    O1    A    
C5    H15   S    
C11   C13   A    
C8    C23   A    
C1    C9    S    
C20   C21   A    
C34   C35   A    
C2    C36   A    
C1    O2    A    
C15   C17   A    
C25   O8    A    
C14   C15   A    
C18   C19   A    
C22   N1    A    
C7    C32   A    
C34   H5    S    
C10   C24   A    
Cu1   O1    S    
C31   O9    D    
C11   N2    A    
C4    O4    A    
C25   O7    A    
C17   C21   A    
C2    C7    A    
Cu1   O5    S    
C24   H7    S    
C27   C28   S    
C35   C36   A    
Cu2   N2    S    
