data_mof_unit_27718.cif
_audit_creation_date              2012-12-10T17:18:54-0500
_audit_creation_method            fapswitch 2.2
_symmetry_space_group_name_H-M    P1
_symmetry_Int_Tables_number       1
_space_group_crystal_system       triclinic
_cell_length_a                    10.270058
_cell_length_b                    10.559031
_cell_length_c                    13.63234
_cell_angle_alpha                 93.018893
_cell_angle_beta                  101.064849
_cell_angle_gamma                 95.441663
_cell_volume                      1440.49233779

loop_
_atom_site_label
_atom_site_type_symbol
_atom_type_description
_atom_site_fract_x
_atom_site_fract_y
_atom_site_fract_z
_atom_type_partial_charge
C1    C     C_R   0.050109 0.733359 0.489199 0.808675
C2    C     C_2   0.970114 0.060417 0.425602 0.579449
C3    C     C_2   0.433470 0.500931 0.517527 0.544015
C4    C     C_2   0.572272 0.473197 0.504926 0.674039
C5    C     C_R   0.094509 0.513436 0.686514 0.958830
C6    C     C_R   0.905158 0.483610 0.314206 1.003303
C7    C     C_R   0.142844 0.511066 0.795622 -0.310132
C8    C     C_R   0.847390 0.449944 0.208502 -0.293058
C9    C     C_R   0.108877 0.529012 0.968533 0.404589
C10   C     C_R   0.828800 0.311598 0.056477 0.411128
C11   C     C_R   0.059269 0.531239 0.864652 0.462550
C12   C     C_R   0.945559 0.265655 0.501465 0.819377
C13   C     C_R   0.900933 0.360807 0.151503 0.497969
C14   C     C_R   0.274626 0.485726 0.831024 0.428645
C15   C     C_R   0.724518 0.492177 0.170293 0.425056
C16   C     C_R   0.314515 0.457559 0.931031 -0.109719
C17   C     C_R   0.640244 0.423063 0.087561 -0.109749
C18   C     C_R   0.237705 0.492881 0.001648 -0.125623
C19   C     C_R   0.696967 0.341363 0.025215 -0.120772
C20   C     C_R   0.436163 0.406621 0.963628 -0.105080
C21   C     C_R   0.502360 0.436212 0.063177 -0.116624
C22   C     C_R   0.426545 0.471635 0.134775 0.659298
C23   C     C_R   0.492318 0.325570 0.900876 0.652894
C24   C     C_R   0.293630 0.494295 0.104054 -0.122326
C25   C     C_R   0.619918 0.290452 0.933035 -0.142333
C26   C     C_2   0.069664 0.867203 0.467696 0.115391
C27   C     C_2   0.909111 0.127806 0.486647 0.119886
C28   C     C_2   0.961629 0.923198 0.426733 0.577821
F1    F     F_    0.021281 0.320510 0.188473 -0.629213
F2    F     F_    0.932278 0.558728 0.831856 -0.637520
F3    F     F_    0.476796 0.474581 0.234571 -0.582355
F4    F     F_    0.420499 0.272597 0.811553 -0.611776
F5    F     F_    0.053893 0.117637 0.370822 -0.606636
F6    F     F_    0.838771 0.856483 0.396669 -0.600697
H1    H     H_    0.237212 0.518527 0.160579 0.240763
H2    H     H_    0.348480 0.630275 0.578965 0.371097
H3    H     H_    0.748367 0.716250 0.595727 0.398003
H4    H     H_    0.239894 0.348850 0.344036 0.433131
H5    H     H_    0.659088 0.226089 0.884236 0.227627
H6    H     H_    0.632379 0.644785 0.161128 0.348189
H7    H     H_    0.454116 0.535350 0.810572 0.352768
H8    H     H_    0.947366 0.585957 0.004142 0.379731
H9    H     H_    0.976621 0.223952 0.025578 0.394234
H10   H     H_    0.790287 0.130655 0.581296 0.366251
H11   H     H_    0.258667 0.881450 0.525955 0.363402
H12   H     H_    0.519410 0.293219 0.471609 0.359484
N1    N     N_2   0.322180 0.446120 0.460900 -0.014791
N2    N     N_2   0.677820 0.553880 0.539100 0.043450
O1    O     O_R   0.935190 0.693030 0.507870 -0.569023
O2    O     O_3   0.366348 0.500658 0.769369 -0.639736
O3    O     O_3   0.034664 0.562215 0.038605 -0.756687
O4    O     O_3   0.882101 0.230855 0.995222 -0.728645
O5    O     O_3   0.819778 0.066227 0.537149 -0.714556
O6    O     O_3   0.193720 0.937253 0.492856 -0.706900
O7    O     O_3   0.592109 0.357138 0.462102 -0.708397
O8    O     O_3   0.428582 0.585653 0.596753 -0.693160
O9    O     O_3   0.658119 0.670030 0.574574 -0.610718
O10   O     O_3   0.332895 0.378865 0.377163 -0.622523
O11   O     O_R   0.064810 0.306970 0.492130 -0.549155
O12   O     O_R   0.142080 0.658430 0.482770 -0.656758
O13   O     O_R   0.857920 0.341570 0.517230 -0.586441
O14   O     O_R   0.969700 0.527180 0.651960 -0.566885
O15   O     O_R   0.030300 0.472820 0.348040 -0.581045
O16   O     O_R   0.176600 0.492580 0.626860 -0.557397
O17   O     O_R   0.823400 0.507420 0.373140 -0.512269
O18   O     O_3   0.693214 0.604384 0.212843 -0.637018
Zn1   Zn    Zn3+2 0.861850 0.523100 0.516760 1.133658
Zn2   Zn    Zn3+2 0.138150 0.476900 0.483240 1.081014

loop_
_geom_bond_atom_site_label_1
_geom_bond_atom_site_label_2
_ccdc_geom_bond_type
H12   O7    S    
C6    O15   A    
C6    C8    S    
C5    O14   A    
C27   O5    S    
C9    C18   A    
C2    C27   D    
H2    O8    S    
C6    O17   A    
O11   Zn2   S    
C5    C7    S    
C3    O8    S    
C10   C19   A    
C26   C28   D    
C9    O3    S    
C20   C23   A    
H8    O3    S    
C16   C20   A    
C10   O4    S    
C23   F4    S    
C28   F6    S    
N2    O9    S    
C4    O7    S    
H6    O18   S    
C21   C22   A    
C25   H5    S    
N1    O10   S    
C7    C11   A    
C12   O13   A    
C9    C11   A    
C8    C13   A    
O14   Zn1   S    
C11   F2    S    
C18   C24   A    
O16   Zn2   S    
C2    F5    S    
C3    N1    D    
C17   C19   A    
H11   O6    S    
C8    C15   A    
C22   C24   A    
C23   C25   A    
N2    Zn1   S    
C1    C26   S    
C19   C25   A    
C14   C16   A    
H9    O4    S    
C24   H1    S    
C22   F3    S    
C14   O2    S    
C12   C27   S    
C3    C4    S    
C26   O6    S    
N1    Zn2   S    
C20   C21   A    
O12   Zn2   S    
C16   C18   A    
C15   O18   S    
C4    N2    D    
C1    O12   A    
C13   F1    S    
C15   C17   A    
H7    O2    S    
O13   Zn1   S    
O15   Zn2   S    
C2    C28   S    
O1    Zn1   S    
H4    O10   S    
C12   O11   A    
C1    O1    A    
H10   O5    S    
C7    C14   A    
H3    O9    S    
C5    O16   A    
O17   Zn1   S    
C10   C13   A    
C17   C21   A    
