data_mof_unit_41210.cif
_audit_creation_date              2012-12-10T17:31:13-0500
_audit_creation_method            fapswitch 2.2
_symmetry_space_group_name_H-M    P1
_symmetry_Int_Tables_number       1
_space_group_crystal_system       triclinic
_cell_length_a                    11.969642
_cell_length_b                    12.883348
_cell_length_c                    15.730123
_cell_angle_alpha                 86.83926
_cell_angle_beta                  112.362855
_cell_angle_gamma                 94.350898
_cell_volume                      2235.92259827

loop_
_atom_site_label
_atom_site_type_symbol
_atom_type_description
_atom_site_fract_x
_atom_site_fract_y
_atom_site_fract_z
_atom_type_partial_charge
C1    C     C_R   0.477320 0.299127 0.501799 0.875953
C2    C     C_R   0.662231 0.976243 0.525650 0.420861
C3    C     C_R   0.354010 0.132017 0.502687 -0.124973
C4    C     C_R   0.651208 0.868742 0.513546 -0.114851
C5    C     C_R   0.569171 0.133810 0.530598 -0.264064
C6    C     C_R   0.442510 0.866043 0.503590 -0.257663
C7    C     C_R   0.562434 0.027223 0.525836 -0.014822
C8    C     C_R   0.451777 0.971833 0.514384 0.012688
C9    C     C_R   0.002753 0.585570 0.400226 0.420173
C10   C     C_R   0.994696 0.410571 0.595811 0.400618
C11   C     C_R   0.126169 0.578379 0.412814 -0.151075
C12   C     C_R   0.523329 0.701075 0.500046 0.917745
C13   C     C_R   0.873903 0.421030 0.586413 -0.132765
C14   C     C_R   0.160333 0.465271 0.543235 0.000055
C15   C     C_R   0.838271 0.531401 0.454555 0.003473
C16   C     C_R   0.572832 0.493253 0.678364 0.958668
C17   C     C_R   0.426270 0.499079 0.321970 0.946991
C18   C     C_R   0.039011 0.468144 0.534862 -0.093834
C19   C     C_R   0.959785 0.528747 0.462500 -0.080761
C20   C     C_R   0.616303 0.489117 0.778358 -0.328682
C21   C     C_R   0.383197 0.496010 0.222240 -0.382446
C22   C     C_R   0.773324 0.459695 0.926910 0.391689
C23   C     C_R   0.657582 0.513037 0.106260 -0.183962
C24   C     C_R   0.236772 0.552907 0.077032 0.394968
C25   C     C_R   0.739350 0.476052 0.831753 0.283677
C26   C     C_R   0.262262 0.514020 0.166627 0.324276
C27   C     C_R   0.533053 0.489791 0.821080 0.360828
C28   C     C_R   0.466039 0.481538 0.181990 0.385701
C29   C     C_R   0.575599 0.510154 0.915161 -0.119797
C30   C     C_R   0.443806 0.520750 0.092275 -0.101839
C31   C     C_R   0.697382 0.490471 0.969518 -0.071811
C32   C     C_R   0.326194 0.554425 0.038572 -0.090554
C33   C     C_R   0.496249 0.535678 0.957199 0.113068
C34   C     C_R   0.381902 0.574540 0.906126 -0.179205
C35   C     C_R   0.533001 0.522539 0.053193 0.113367
C36   C     C_3   0.968328 0.715441 0.279969 0.043779
C37   C     C_3   0.030754 0.811128 0.337533 -0.338993
C38   C     C_3   0.075325 0.892572 0.281695 -0.909266
C39   C     C_3   0.023562 0.250466 0.675458 0.051306
C40   C     C_3   0.007069 0.235559 0.767299 -0.376361
C41   C     C_3   0.949855 0.127647 0.776333 -0.917147
C42   C     C_3   0.535656 0.317063 0.204173 0.081358
C43   C     C_3   0.509446 0.252837 0.280046 -0.316960
C44   C     C_3   0.484759 0.137635 0.257662 -0.996372
C45   C     C_R   0.738231 0.495909 0.064900 -0.197551
C46   C     C_3   0.391045 0.353502 0.801590 0.097119
C47   C     C_3   0.438267 0.273149 0.756789 -0.352787
C48   C     C_3   0.410007 0.162409 0.785403 -0.960227
C49   C     C_3   0.156719 0.398285 0.231648 0.175428
C50   C     C_3   0.072289 0.330689 0.154224 -0.367554
C51   C     C_3   0.072462 0.215632 0.183501 -0.942811
C52   C     C_3   0.916080 0.528741 0.810619 0.083217
C53   C     C_3   0.879664 0.630703 0.754604 -0.348246
C54   C     C_3   0.988734 0.707531 0.771917 -0.936844
C55   C     C_3   0.848497 0.297575 0.949631 0.090973
C56   C     C_R   0.298870 0.585153 0.946677 -0.191045
C57   C     C_3   0.764370 0.238359 0.991647 -0.403765
C58   C     C_3   0.747220 0.123248 0.968598 -0.959832
C59   C     C_3   0.118321 0.691010 0.047232 0.096565
C60   C     C_3   0.986439 0.716524 0.022124 -0.304789
C61   C     C_3   0.974319 0.833586 0.021888 -1.004478
C62   C     C_2   0.752035 0.819726 0.501931 0.961740
C63   C     C_2   0.240339 0.184834 0.479322 0.980503
C64   C     C_3   0.227958 0.961207 0.586826 0.087902
C65   C     C_3   0.261857 0.854924 0.634486 -0.365877
C66   C     C_3   0.240283 0.845764 0.724204 -0.944237
C67   C     C_R   0.540627 0.813550 0.504245 -0.221846
C68   C     C_3   0.767780 0.063405 0.446067 0.039227
C69   C     C_3   0.894133 0.057025 0.445297 -0.296196
C70   C     C_3   0.899639 0.096925 0.353812 -0.954178
C71   C     C_R   0.464694 0.186928 0.511484 -0.211117
C72   C     C_R   0.350335 0.023325 0.510541 0.406158
H1    H     H_    0.832303 0.486216 0.107776 0.188103
H2    H     H_    0.222794 0.418495 0.597086 0.208458
H3    H     H_    0.891040 0.742898 0.219176 0.183868
H4    H     H_    0.026258 0.679562 0.250248 0.149977
H5    H     H_    0.965575 0.846430 0.360532 0.235121
H6    H     H_    0.109049 0.788443 0.399600 0.228963
H7    H     H_    0.141594 0.859229 0.258601 0.253846
H8    H     H_    0.120445 0.960601 0.324474 0.303486
H9    H     H_    0.997882 0.920075 0.221111 0.256022
H10   H     H_    0.089524 0.194740 0.674737 0.188784
H11   H     H_    0.937256 0.229017 0.617240 0.145789
H12   H     H_    0.211214 0.612875 0.904534 0.175677
H13   H     H_    0.096636 0.245691 0.824646 0.220296
H14   H     H_    0.948425 0.295092 0.773262 0.244319
H15   H     H_    0.858325 0.117425 0.721395 0.290030
H16   H     H_    0.940891 0.118775 0.844125 0.249943
H17   H     H_    0.007286 0.066289 0.771303 0.271333
H18   H     H_    0.616136 0.287226 0.196821 0.160006
H19   H     H_    0.458783 0.305382 0.136652 0.118810
H20   H     H_    0.588227 0.262286 0.346001 0.235958
H21   H     H_    0.429300 0.281291 0.288588 0.200366
H22   H     H_    0.402705 0.126361 0.194032 0.269293
H23   H     H_    0.838968 0.381849 0.634393 0.181750
H24   H     H_    0.469445 0.093154 0.315175 0.275747
H25   H     H_    0.563169 0.106916 0.247925 0.260575
H26   H     H_    0.291848 0.338853 0.779910 0.214002
H27   H     H_    0.428797 0.341841 0.877794 0.120863
H28   H     H_    0.396280 0.282658 0.680774 0.256000
H29   H     H_    0.537934 0.285008 0.778209 0.202000
H30   H     H_    0.451360 0.151760 0.861376 0.263612
H31   H     H_    0.448436 0.106456 0.754229 0.263054
H32   H     H_    0.310636 0.145648 0.761865 0.270694
H33   H     H_    0.117254 0.400310 0.285024 0.186033
H34   H     H_    0.165034 0.618089 0.367578 0.165203
H35   H     H_    0.243544 0.359982 0.264925 0.138607
H36   H     H_    0.979915 0.356949 0.135183 0.258948
H37   H     H_    0.100564 0.340171 0.094536 0.242802
H38   H     H_    0.165979 0.188663 0.211350 0.281347
H39   H     H_    0.017788 0.168016 0.123470 0.256831
H40   H     H_    0.031661 0.203074 0.236060 0.301017
H41   H     H_    0.987168 0.495816 0.792681 0.176157
H42   H     H_    0.957404 0.543402 0.884969 0.215229
H43   H     H_    0.839530 0.614432 0.680072 0.272209
H44   H     H_    0.811279 0.666962 0.773484 0.201312
H45   H     H_    0.695332 0.521314 0.179878 0.224443
H46   H     H_    0.035025 0.722214 0.846228 0.256920
H47   H     H_    0.958578 0.782871 0.736094 0.307430
H48   H     H_    0.053398 0.676536 0.745827 0.270699
H49   H     H_    0.935768 0.259690 0.973979 0.163472
H50   H     H_    0.810320 0.288504 0.873822 0.173101
H51   H     H_    0.802456 0.245708 0.067489 0.236983
H52   H     H_    0.674102 0.271743 0.964067 0.218805
H53   H     H_    0.705772 0.114231 0.892894 0.272636
H54   H     H_    0.686265 0.082581 0.999758 0.267455
H55   H     H_    0.835452 0.086407 0.996249 0.264514
H56   H     H_    0.356023 0.598356 0.834557 0.192403
H57   H     H_    0.159626 0.742637 0.006652 0.132354
H58   H     H_    0.167956 0.707471 0.121694 0.140053
H59   H     H_    0.929149 0.687888 0.952965 0.223031
H60   H     H_    0.951821 0.676686 0.072483 0.222884
H61   H     H_    0.035914 0.866405 0.088268 0.267720
H62   H     H_    0.879753 0.848990 0.011039 0.271879
H63   H     H_    0.997013 0.873071 0.965418 0.272834
H64   H     H_    0.811945 0.755062 0.415142 0.343598
H65   H     H_    0.117149 0.236921 0.522236 0.330583
H66   H     H_    0.130933 0.970355 0.572423 0.187798
H67   H     H_    0.356550 0.824274 0.493079 0.219314
H68   H     H_    0.279653 0.024022 0.634623 0.162398
H69   H     H_    0.206697 0.792294 0.588123 0.235127
H70   H     H_    0.359033 0.844445 0.650298 0.223010
H71   H     H_    0.299451 0.904386 0.773239 0.263530
H72   H     H_    0.261482 0.766886 0.755825 0.262412
H73   H     H_    0.144302 0.858400 0.710898 0.284600
H74   H     H_    0.742078 0.145441 0.432101 0.154399
H75   H     H_    0.703187 0.015026 0.389141 0.146574
H76   H     H_    0.960279 0.103748 0.501795 0.224459
H77   H     H_    0.919473 0.974819 0.457136 0.237858
H78   H     H_    0.655358 0.176161 0.543125 0.207673
H79   H     H_    0.833063 0.051677 0.296212 0.262175
H80   H     H_    0.991417 0.087511 0.354827 0.298271
H81   H     H_    0.880559 0.180710 0.342412 0.264587
H82   H     H_    0.774119 0.574706 0.398888 0.208973
N1    N     N_R   0.799120 0.480200 0.517090 -0.140180
N2    N     N_R   0.200880 0.519800 0.482910 -0.132514
O1    O     O_R   0.580150 0.341050 0.504560 -0.639103
O2    O     O_3   0.073085 0.352615 0.668099 -0.669849
O3    O     O_3   0.564285 0.422603 0.229467 -0.632472
O4    O     O_3   0.413102 0.456922 0.773017 -0.627743
O5    O     O_3   0.169085 0.502486 0.199530 -0.621738
O6    O     O_3   0.817457 0.453975 0.789472 -0.643702
O7    O     O_3   0.872991 0.403583 0.976045 -0.641984
O8    O     O_3   0.122419 0.586029 0.026889 -0.634313
O9    O     O_2   0.852306 0.822611 0.563515 -0.648754
O10   O     O_R   0.733835 0.776807 0.417769 -0.816204
O11   O     O_2   0.189881 0.220495 0.401562 -0.677948
O12   O     O_R   0.419850 0.658950 0.495440 -0.634845
O13   O     O_R   0.192812 0.196307 0.546407 -0.863369
O14   O     O_3   0.242965 0.967257 0.501567 -0.679314
O15   O     O_3   0.769857 0.031574 0.534304 -0.652772
O16   O     O_R   0.388090 0.353760 0.493600 -0.616216
O17   O     O_R   0.611910 0.646240 0.506400 -0.609948
O18   O     O_R   0.650890 0.490020 0.640860 -0.595599
O19   O     O_R   0.349110 0.509980 0.359140 -0.614309
O20   O     O_R   0.458830 0.502730 0.629890 -0.582192
O21   O     O_R   0.541170 0.497270 0.370110 -0.564663
O22   O     O_3   0.919126 0.642171 0.328663 -0.674768
Zn1   Zn    Zn3+2 0.628240 0.491510 0.507320 0.965745
Zn2   Zn    Zn3+2 0.371760 0.508490 0.492680 0.960873

loop_
_geom_bond_atom_site_label_1
_geom_bond_atom_site_label_2
_ccdc_geom_bond_type
C41   H17   S    
C46   H27   S    
C55   H49   S    
C59   H58   S    
C34   C56   A    
C51   H40   S    
C23   C45   A    
C54   H48   S    
C27   C29   A    
C70   H81   S    
C14   C18   A    
C3    C71   A    
C42   O3    S    
C21   C26   A    
C60   H60   S    
C61   H61   S    
C7    C8    A    
C49   H35   S    
C64   H66   S    
C53   C54   S    
C15   C19   A    
C1    C71   S    
H64   O10   S    
C30   C35   A    
C13   H23   S    
C47   H29   S    
C14   H2    S    
C36   C37   S    
C24   C26   A    
C42   H19   S    
C68   O15   S    
C63   O13   S    
C66   H72   S    
C38   H7    S    
O17   Zn1   S    
C16   O18   A    
C48   H32   S    
C4    C62   S    
C45   H1    S    
C18   C19   A    
O1    Zn1   S    
C40   H14   S    
C6    H67   S    
C49   C50   S    
C13   N1    A    
C15   H82   S    
C59   O8    S    
C36   H4    S    
C43   H21   S    
C9    C19   A    
C2    C7    A    
C29   C33   A    
C68   C69   S    
C66   H73   S    
C22   C25   A    
C65   H70   S    
C10   O2    S    
H65   O13   S    
C53   H44   S    
C2    O15   S    
C16   O20   A    
C63   O11   D    
C46   H26   S    
C55   H50   S    
C48   H30   S    
C59   C60   S    
C54   H47   S    
C50   H36   S    
C24   O8    S    
C60   H59   S    
N1    Zn1   S    
C61   H62   S    
C56   H12   S    
C41   H15   S    
C12   C67   S    
C8    C72   A    
C22   C31   A    
C70   H80   S    
C39   C40   S    
C5    C7    A    
C6    C8    A    
C66   H71   S    
O21   Zn1   S    
C27   O4    S    
O12   Zn2   S    
C48   H31   S    
C37   H5    S    
C50   H37   S    
C17   C21   S    
C5    H78   S    
C60   C61   S    
C42   H18   S    
C72   O14   S    
C40   H13   S    
C2    C4    A    
C43   C44   S    
C24   C32   A    
C23   H45   S    
C37   C38   S    
C44   H24   S    
C36   H3    S    
C57   H51   S    
C65   H69   S    
C44   H25   S    
C47   C48   S    
O20   Zn2   S    
C25   O6    S    
C16   C20   S    
C46   O4    S    
C11   H34   S    
C50   C51   S    
C36   O22   S    
C52   H42   S    
C9    C11   A    
C68   H75   S    
C11   N2    A    
C34   H56   S    
C40   C41   S    
C62   O10   S    
C21   C28   A    
C58   H54   S    
C51   H38   S    
C23   C35   A    
C55   C57   S    
C38   H9    S    
C31   C45   A    
C42   C43   S    
C68   H74   S    
C52   C53   S    
C61   H63   S    
C64   H68   S    
C17   O21   A    
C41   H16   S    
C46   C47   S    
C59   H57   S    
C51   H39   S    
C1    O16   A    
C14   N2    A    
C15   N1    A    
C49   O5    S    
C70   H79   S    
C39   H10   S    
C39   O2    S    
C10   C13   A    
C12   O12   A    
C4    C67   A    
C49   H33   S    
O19   Zn2   S    
C20   C27   A    
C3    C63   S    
C37   H6    S    
C26   O5    S    
C43   H20   S    
C69   H77   S    
C64   C65   S    
C54   H46   S    
C3    C72   A    
C39   H11   S    
C28   C30   A    
C29   C31   A    
C6    C67   A    
C57   H52   S    
C30   C32   A    
C22   O7    S    
N2    Zn2   S    
O16   Zn2   S    
C57   C58   S    
C38   H8    S    
C10   C18   A    
C52   H41   S    
C1    O1    A    
C33   C35   A    
C33   C34   A    
C28   O3    S    
C64   O14   S    
C69   C70   S    
C44   H22   S    
C47   H28   S    
C55   O7    S    
C17   O19   A    
C58   H55   S    
C62   O9    D    
C58   H53   S    
C5    C71   A    
C65   C66   S    
C20   C25   A    
C69   H76   S    
O18   Zn1   S    
C32   C56   A    
C9    O22   S    
C53   H43   S    
C52   O6    S    
C12   O17   A    
