data_mof_unit_45201.cif
_audit_creation_date              2012-12-11T15:52:25-0500
_audit_creation_method            fapswitch 2.2
_symmetry_space_group_name_H-M    P1
_symmetry_Int_Tables_number       1
_space_group_crystal_system       triclinic
_cell_length_a                    8.362305
_cell_length_b                    19.021602
_cell_length_c                    18.982202
_cell_angle_alpha                 98.773197
_cell_angle_beta                  94.533505
_cell_angle_gamma                 91.737111
_cell_volume                      2971.97747587

loop_
_atom_site_label
_atom_site_type_symbol
_atom_type_description
_atom_site_fract_x
_atom_site_fract_y
_atom_site_fract_z
_atom_type_partial_charge
Ba1   Ba    Ba6+2 0.152000 0.534910 0.469330 1.750483
Ba2   Ba    Ba6+2 0.658180 0.465080 0.530610 1.817332
C1    C     C_3   0.329830 0.720598 0.213515 -0.348689
C2    C     C_R   0.981651 0.268663 0.472574 0.002055
C3    C     C_R   0.158997 0.183827 0.556228 -0.236296
C4    C     C_3   0.900121 0.729812 0.321554 0.347584
C5    C     C_R   0.228917 0.245506 0.537611 0.016886
C6    C     C_R   0.661704 0.816496 0.445072 -0.159480
C7    C     C_R   0.596631 0.748523 0.449475 0.007539
C8    C     C_R   0.867894 0.800758 0.537285 -0.144003
C9    C     C_R   0.826793 0.727115 0.526158 0.031727
C10   C     C_R   0.003941 0.155935 0.526929 -0.004278
C11   C     C_R   0.143127 0.284619 0.492770 0.185586
C12   C     C_3   0.365355 0.694995 0.284955 0.352079
C13   C     C_R   0.790516 0.847591 0.494260 -0.005507
C14   C     C_R   0.686486 0.702470 0.484798 -0.260124
C15   C     C_R   0.170041 0.035717 0.608752 -0.082983
C16   C     C_3   0.923977 0.803044 0.300093 -0.357209
C17   C     C_R   0.278825 0.982729 0.617053 -0.040059
C18   C     C_R   0.261919 0.918292 0.570826 -0.019693
C19   C     C_R   0.126589 0.904349 0.522353 -0.102055
C20   C     C_R   0.001928 0.952101 0.524353 0.016474
C21   C     C_R   0.041852 0.024566 0.554336 0.039351
C22   C     C_R   0.839574 0.927925 0.503459 -0.004435
C23   C     C_3   0.507838 0.680945 0.643491 0.354936
C24   C     C_R   0.724896 0.982514 0.503247 0.050235
C25   C     C_R   0.776208 0.056713 0.520290 0.008830
C26   C     C_R   0.940096 0.079648 0.537068 -0.004450
C27   C     C_R   0.557746 0.966619 0.488550 -0.077351
C28   C     C_3   0.783680 0.382654 0.311460 0.305361
C29   C     C_R   0.450083 0.019647 0.481828 -0.080100
C30   C     C_R   0.499684 0.089733 0.503837 -0.025020
C31   C     C_R   0.658409 0.106983 0.529022 -0.079140
C32   C     C_R   0.607093 0.532115 0.302695 -0.290522
C33   C     C_R   0.462785 0.494792 0.277201 0.010954
C34   C     C_3   0.517799 0.761528 0.664829 0.228389
C35   C     C_R   0.406747 0.490581 0.205168 -0.123748
C36   C     C_R   0.497691 0.521181 0.157362 0.002833
C37   C     C_R   0.647375 0.555697 0.183280 -0.130198
C38   C     C_R   0.702566 0.560062 0.255617 0.002920
C39   C     C_R   0.460841 0.570388 0.041594 -0.080155
C40   C     C_3   0.773976 0.370440 0.229788 0.268042
C41   C     C_R   0.406929 0.563225 0.969047 -0.071606
C42   C     C_R   0.331506 0.499124 0.933084 0.063129
C43   C     C_R   0.309158 0.442781 0.971815 -0.068747
C44   C     C_R   0.362693 0.450004 0.044402 -0.053889
C45   C     C_3   0.916182 0.270443 0.683034 0.417316
C46   C     C_R   0.439668 0.513847 0.080202 0.053308
C47   C     C_R   0.137169 0.453348 0.825759 -0.183472
C48   C     C_R   0.097068 0.442169 0.751541 -0.008535
C49   C     C_R   0.342467 0.506872 0.734798 0.006742
C50   C     C_R   0.382368 0.518493 0.808627 -0.165129
C51   C     C_R   0.283267 0.489743 0.854854 -0.002948
C52   C     C_3   0.016690 0.618662 0.689834 0.334109
C53   C     C_R   0.207138 0.463651 0.706519 0.076811
C54   C     C_3   0.039847 0.637026 0.770899 -0.370293
C55   C     C_3   0.213903 0.318373 0.282463 0.268677
C56   C     C_3   0.935656 0.202656 0.716109 0.241818
C57   C     C_3   0.234682 0.292114 0.203636 0.164534
C58   C     C_3   0.438283 0.296590 0.708653 0.321528
C59   C     C_3   0.467421 0.268089 0.778933 -0.302659
C60   C     C_R   0.916455 0.201277 0.483854 -0.179847
Cl1   Cl    Cl    0.663377 0.289796 0.193466 -0.588464
Cl2   Cl    Cl    0.063893 0.237063 0.164179 -0.579180
Cl3   Cl    Cl    0.328536 0.792911 0.690236 -0.666447
Cl4   Cl    Cl    0.242895 0.350995 0.456967 -0.587723
Cl5   Cl    Cl    0.177128 0.434416 0.614715 -0.655082
H1    H     H_    0.303285 0.642050 0.282533 0.081170
H2    H     H_    0.187173 0.271111 0.308454 0.092672
H3    H     H_    0.198788 0.725500 0.202408 0.155360
H4    H     H_    0.248012 0.338053 0.173704 0.028340
H5    H     H_    0.342913 0.259212 0.199057 0.164310
H6    H     H_    0.497287 0.689559 0.292946 -0.072211
H7    H     H_    0.373212 0.681858 0.170166 0.067258
H8    H     H_    0.627433 0.663312 0.628412 -0.098883
H9    H     H_    0.418372 0.667579 0.596485 0.058146
H10   H     H_    0.610128 0.776856 0.710414 0.078026
H11   H     H_    0.552060 0.786999 0.619008 -0.034274
H12   H     H_    0.713982 0.414900 0.208591 -0.040356
H13   H     H_    0.391782 0.773203 0.214291 0.117763
H14   H     H_    0.882568 0.844502 0.341539 0.073312
H15   H     H_    0.835792 0.258984 0.632915 0.032480
H16   H     H_    0.036686 0.287828 0.669697 -0.157248
H17   H     H_    0.992810 0.162016 0.679072 -0.039679
H18   H     H_    0.016344 0.214729 0.766131 0.086242
H19   H     H_    0.306381 0.299116 0.697522 -0.048204
H20   H     H_    0.494433 0.351203 0.715191 0.074439
H21   H     H_    0.406497 0.301396 0.821207 0.053558
H22   H     H_    0.597768 0.269921 0.795583 0.200338
H23   H     H_    0.895886 0.368204 0.210722 0.077359
H24   H     H_    0.968301 0.729702 0.374311 0.072953
H25   H     H_    0.418595 0.212349 0.773011 0.127278
H26   H     H_    0.800282 0.184667 0.456769 0.121832
H27   H     H_    0.233062 0.159272 0.592480 0.075988
H28   H     H_    0.605533 0.845663 0.405851 0.075754
H29   H     H_    0.960933 0.820277 0.579032 0.118173
H30   H     H_    0.642321 0.648153 0.483290 0.058037
H31   H     H_    0.175426 0.080936 0.650929 0.072362
H32   H     H_    0.377040 0.991964 0.658697 0.104156
H33   H     H_    0.350444 0.878336 0.574035 0.129756
H34   H     H_    0.132328 0.602738 0.669062 0.019363
H35   H     H_    0.769921 0.720231 0.326044 -0.059990
H36   H     H_    0.112052 0.854286 0.487089 0.125596
H37   H     H_    0.503038 0.914620 0.484627 0.067051
H38   H     H_    0.324707 0.006149 0.465254 0.084869
H39   H     H_    0.412940 0.129926 0.503586 0.083927
H40   H     H_    0.691283 0.159354 0.557152 0.105613
H41   H     H_    0.490739 0.549765 0.829646 0.084857
H42   H     H_    0.423780 0.608129 0.941166 0.075012
H43   H     H_    0.517960 0.620485 0.067638 0.067763
H44   H     H_    0.292395 0.463217 0.186514 0.066536
H45   H     H_    0.926271 0.573790 0.675499 0.060239
H46   H     H_    0.254110 0.392342 0.945477 0.083020
H47   H     H_    0.053020 0.814400 0.294579 0.153753
H48   H     H_    0.347112 0.404859 0.072076 0.092561
H49   H     H_    0.053518 0.435307 0.860604 0.094187
H50   H     H_    0.723460 0.576607 0.147085 0.078559
H51   H     H_    0.650931 0.534749 0.358252 0.056383
H52   H     H_    0.854017 0.805290 0.248292 0.121446
H53   H     H_    0.662565 0.391696 0.329160 0.009283
H54   H     H_    0.863175 0.430705 0.330830 -0.025812
H55   H     H_    0.734506 0.148538 0.687293 0.308469
H56   H     H_    0.137085 0.678934 0.786717 0.170647
H57   H     H_    0.072425 0.589418 0.794830 0.043838
H58   H     H_    0.926620 0.656716 0.792183 0.127547
H59   H     H_    0.107439 0.350844 0.287733 0.047360
O1    O     O_2   0.116570 0.673370 0.549300 -0.432251
O2    O     O_2   0.764899 0.452614 0.745842 -0.493188
O3    O     O_3   0.848871 0.321832 0.731820 -0.594246
O4    O     O_3   0.869340 0.584760 0.542960 -0.490110
O5    O     O_3   0.436600 0.464450 0.413780 -0.402043
O6    O     O_2   0.628980 0.533090 0.672420 -0.464128
O7    O     O_3   0.462917 0.649153 0.701493 -0.632385
O8    O     O_2   0.552307 0.248884 0.517617 -0.490711
O9    O     O_3   0.505744 0.251768 0.653714 -0.610555
O10   O     O_3   0.352540 0.630870 0.419750 -0.484078
O11   O     O_2   0.277022 0.756781 0.477901 -0.493429
O12   O     O_3   0.358176 0.351445 0.317839 -0.599444
O13   O     O_3   0.964103 0.679099 0.662679 -0.606703
O14   O     O_3   0.309483 0.744076 0.339759 -0.600340
O15   O     O_2   0.181320 0.466870 0.327560 -0.476459
O16   O     O_3   0.937730 0.595370 0.381630 -0.489592
O17   O     O_2   0.031509 0.545282 0.253287 -0.493353
O18   O     O_3   0.787037 0.176102 0.732332 -0.686218
O19   O     O_3   0.956819 0.678308 0.269395 -0.596783
O20   O     O_2   0.693730 0.326590 0.450680 -0.423303
O21   O     O_3   0.940960 0.415230 0.456980 -0.416387
O22   O     O_3   0.457750 0.369120 0.580200 -0.362283
O23   O     O_3   0.844300 0.322575 0.337078 -0.597560
O24   O     O_3   0.373690 0.535540 0.586160 -0.399158
O25   O     O_3   0.872560 0.404620 0.618320 -0.424680
P1    P     P_3+3 0.945400 0.662120 0.569160 1.031536
P2    P     P_3+3 0.355390 0.445380 0.336430 1.063054
P3    P     P_3+3 0.906804 0.593980 0.289221 0.940584
P4    P     P_3+3 0.864900 0.337880 0.430780 1.100246
P5    P     P_3+3 0.895882 0.406317 0.711939 1.002362
P6    P     P_3+3 0.385144 0.721678 0.421516 0.931772
P7    P     P_3+3 0.450964 0.556686 0.675888 1.005786
P8    P     P_3+3 0.435190 0.277191 0.572523 1.027704

loop_
_geom_bond_atom_site_label_1
_geom_bond_atom_site_label_2
_ccdc_geom_bond_type
C32   H51   S    
Ba2   O24   S    
Ba2   P4    S    
C29   H38   S    
C52   H34   S    
C17   C18   A    
C31   H40   S    
H55   O18   S    
C16   H47   S    
C3    H27   S    
C43   C44   A    
C25   C31   A    
C57   Cl2   S    
C15   C21   A    
C44   H48   S    
C45   O3    S    
C32   C38   A    
C54   H57   S    
C33   C35   A    
C7    C14   A    
C22   C24   A    
C32   C33   A    
C34   H10   S    
C36   C37   A    
O14   P6    S    
C14   H30   S    
C55   C57   S    
C5    P8    S    
Ba2   O22   S    
C4    H24   S    
C2    C60   A    
O13   P1    S    
C16   H14   S    
Ba1   P1    S    
Ba1   Ba2   S    
C45   H15   S    
C2    C11   A    
C1    H7    S    
Ba1   O16   S    
Ba2   O4    S    
C42   C51   S    
O20   P4    D    
C29   C30   A    
C48   P5    S    
C6    C7    A    
Ba2   O6    S    
C45   H16   S    
Ba1   O10   S    
C23   O7    S    
C15   H31   S    
C36   C46   S    
C59   H25   S    
C57   H5    S    
O8    P8    D    
C40   H12   S    
C30   H39   S    
C19   C20   A    
C39   C41   A    
C38   P3    S    
C6    H28   S    
C1    H13   S    
C58   H20   S    
C59   H22   S    
Ba2   O5    S    
C44   C46   A    
C11   Cl4   S    
C4    C16   S    
C52   C54   S    
O9    P8    S    
C49   C50   A    
C54   H56   S    
Ba1   O1    S    
O5    P2    S    
C1    H3    S    
C3    C10   A    
Ba1   O4    S    
C37   C38   A    
C3    C5    A    
C4    O19   S    
C58   H19   S    
C34   Cl3   S    
O17   P3    D    
Ba2   O21   S    
C37   H50   S    
O6    P7    D    
C27   H37   S    
C58   C59   S    
C40   H23   S    
O22   P8    S    
C41   C42   A    
C12   H6    S    
C35   C36   A    
C59   H21   S    
C56   H17   S    
O1    P1    D    
C10   C60   A    
C9    C14   A    
C52   O13   S    
C18   H33   S    
C28   H54   S    
C8    H29   S    
C47   H49   S    
C7    P6    S    
C24   C25   A    
C52   H45   S    
Ba1   O24   S    
O25   P5    S    
O16   P3    S    
Ba1   P2    S    
C58   O9    S    
C1    C12   S    
O19   P3    S    
O12   P2    S    
C13   C22   S    
C10   C26   S    
C6    C13   A    
C39   H43   S    
O4    P1    S    
C20   C22   A    
Ba1   O21   S    
C21   C26   A    
O10   P6    S    
C23   H8    S    
C56   H18   S    
C55   H59   S    
O21   P4    S    
C50   C51   A    
Ba2   O25   S    
C17   H32   S    
O24   P7    S    
C42   C43   A    
C33   P2    S    
C12   O14   S    
Ba1   O5    S    
O3    P5    S    
C53   Cl5   S    
Ba2   O20   S    
C60   H26   S    
C49   P7    S    
C48   C53   A    
O11   P6    D    
C8    C13   A    
C23   H9    S    
C30   C31   A    
O23   P4    S    
C27   C29   A    
C34   H11   S    
C45   C56   S    
O15   P2    D    
C28   H53   S    
C47   C51   A    
C16   H52   S    
C15   C17   A    
C39   C46   A    
C55   O12   S    
C49   C53   A    
C4    H35   S    
O7    P7    S    
C35   H44   S    
Ba1   O15   S    
C8    C9    A    
O2    P5    D    
C23   C34   S    
C19   H36   S    
C56   O18   S    
C9    P1    S    
C5    C11   A    
C2    P4    S    
C18   C19   A    
C50   H41   S    
C24   C27   A    
C54   H58   S    
C47   C48   A    
C43   H46   S    
C25   C26   A    
C12   H1    S    
C20   C21   A    
C28   C40   S    
C41   H42   S    
C55   H2    S    
C40   Cl1   S    
C28   O23   S    
C57   H4    S    
