data_mof_unit_52281.cif
_audit_creation_date              2012-10-26T20:12:38-0400
_audit_creation_method            fapswitch 2.2
_symmetry_space_group_name_H-M    P1
_symmetry_Int_Tables_number       1
_space_group_crystal_system       triclinic
_cell_length_a                    15.047319
_cell_length_b                    14.052026
_cell_length_c                    10.953546
_cell_angle_alpha                 89.969179
_cell_angle_beta                  89.602393
_cell_angle_gamma                 89.954046
_cell_volume                      2316.01917423

loop_
_atom_site_label
_atom_site_type_symbol
_atom_type_description
_atom_site_fract_x
_atom_site_fract_y
_atom_site_fract_z
_atom_type_partial_charge
C1    C     C_R   0.330536 0.500069 0.499662 0.613641
C2    C     C_R   0.422448 0.792756 0.520848 0.355899
C3    C     C_R   0.429547 0.208491 0.453216 0.375844
C4    C     C_R   0.577168 0.792870 0.478044 0.359318
C5    C     C_R   0.499550 0.055273 0.499832 0.010040
C6    C     C_R   0.499487 0.946709 0.499381 -0.007129
C7    C     C_R   0.499312 0.499534 0.262436 0.573129
C8    C     C_R   0.500004 0.499688 0.737617 0.579507
C9    C     C_R   0.438905 0.664450 0.107709 0.267766
C10   C     C_R   0.452384 0.324311 0.892662 0.262865
C11   C     C_R   0.543854 0.671340 0.896301 0.268646
C12   C     C_R   0.669463 0.500046 0.499263 0.568580
C13   C     C_R   0.553779 0.327740 0.106493 0.265272
C14   C     C_R   0.458981 0.752427 0.054157 0.256018
C15   C     C_R   0.475913 0.238333 0.950818 0.266915
C16   C     C_R   0.518428 0.756225 0.954600 0.260544
C17   C     C_R   0.535102 0.240387 0.049028 0.272738
C18   C     C_R   0.508692 0.583740 0.939877 -0.103419
C19   C     C_R   0.513742 0.412327 0.060897 -0.095743
C20   C     C_R   0.480029 0.581607 0.061200 -0.096861
C21   C     C_R   0.487139 0.411644 0.938650 -0.096821
C22   C     C_R   0.499109 0.498264 0.871947 -0.005555
C23   C     C_R   0.048795 0.501434 0.497095 0.028950
C24   C     C_R   0.497396 0.497573 0.128165 0.003092
C25   C     C_R   0.096028 0.456167 0.401644 0.249065
C26   C     C_R   0.904591 0.457361 0.593756 0.252379
C27   C     C_R   0.905462 0.545206 0.400506 0.287676
C28   C     C_R   0.094502 0.547172 0.592554 0.257551
C29   C     C_R   0.189010 0.458612 0.400725 0.032915
C30   C     C_R   0.811673 0.459884 0.595204 0.044666
C31   C     C_R   0.812675 0.542910 0.398315 0.043679
C32   C     C_R   0.187405 0.544239 0.594804 0.033784
C33   C     C_R   0.234142 0.500444 0.498731 -0.010941
C34   C     C_R   0.951428 0.501163 0.497021 0.021808
C35   C     C_R   0.765905 0.500385 0.496605 -0.037367
C36   C     C_3   0.656976 0.143967 0.069617 -0.116419
C37   C     C_3   0.499128 0.886001 0.837052 -0.080520
C38   C     C_3   0.358037 0.137012 0.925162 -0.113312
C39   C     C_3   0.479548 0.872589 0.187679 -0.099029
C40   C     C_3   0.293131 0.641382 0.149063 -0.112496
C41   C     C_3   0.314071 0.368960 0.829839 -0.127431
C42   C     C_3   0.688524 0.640486 0.851387 -0.101397
C43   C     C_3   0.692069 0.376338 0.161856 -0.130073
C44   C     C_3   0.026970 0.322228 0.333571 -0.127598
C45   C     C_R   0.565044 0.106908 0.563328 0.225068
C46   C     C_3   0.974276 0.324741 0.665357 -0.131191
C47   C     C_3   0.974829 0.678668 0.329772 -0.117710
C48   C     C_3   0.024690 0.682013 0.658000 -0.128888
C49   C     C_3   0.648287 0.099606 0.742303 -0.097075
C50   C     C_3   0.332491 0.960879 0.671682 -0.138725
C51   C     C_3   0.374339 0.088723 0.246816 -0.116614
C52   C     C_3   0.660063 0.963380 0.320754 -0.135657
C53   C     C_3   0.713656 0.230879 0.489854 -0.115301
C54   C     C_3   0.279845 0.765135 0.454932 -0.049952
C55   C     C_3   0.284255 0.229023 0.504427 -0.100417
C56   C     C_R   0.422155 0.894327 0.526283 0.201178
C57   C     C_3   0.720445 0.765697 0.541266 -0.058425
C58   C     C_R   0.434518 0.108069 0.436810 0.217054
C59   C     C_R   0.576834 0.894385 0.471419 0.214172
C60   C     C_R   0.570335 0.207896 0.546965 0.364837
Cu1   Cu    Cu3+1 0.500000 0.596430 0.500000 1.100487
Cu2   Cu    Cu3+1 0.500000 0.403570 0.500000 1.123964
H1    H     H_    0.678773 0.179789 0.983612 0.080516
H2    H     H_    0.523660 0.925112 0.142046 0.159682
H3    H     H_    0.519870 0.818327 0.236918 0.112007
H4    H     H_    0.439567 0.909350 0.258079 0.159729
H5    H     H_    0.243395 0.634046 0.223634 0.130388
H6    H     H_    0.293537 0.573637 0.096327 0.107057
H7    H     H_    0.271529 0.701334 0.089787 0.133619
H8    H     H_    0.284718 0.339774 0.915581 0.093940
H9    H     H_    0.264677 0.359162 0.756210 0.131379
H10   H     H_    0.325584 0.446552 0.839545 0.128535
H11   H     H_    0.712044 0.685067 0.928673 0.130412
H12   H     H_    0.697207 0.169649 0.147436 0.138228
H13   H     H_    0.682763 0.564883 0.880471 0.112610
H14   H     H_    0.739657 0.643765 0.778125 0.129494
H15   H     H_    0.722808 0.340361 0.081551 0.099765
H16   H     H_    0.741051 0.374776 0.237041 0.146826
H17   H     H_    0.678857 0.452060 0.139277 0.125113
H18   H     H_    0.967868 0.322214 0.394756 0.099523
H19   H     H_    0.082147 0.280746 0.375208 0.078777
H20   H     H_    0.007816 0.285089 0.248413 0.138573
H21   H     H_    0.033214 0.323851 0.603888 0.098676
H22   H     H_    0.919132 0.282440 0.625229 0.078322
H23   H     H_    0.670941 0.066895 0.058754 0.124352
H24   H     H_    0.993791 0.289088 0.751468 0.137265
H25   H     H_    0.033906 0.679933 0.389831 0.088952
H26   H     H_    0.919199 0.719987 0.371657 0.083614
H27   H     H_    0.993685 0.715130 0.243596 0.141824
H28   H     H_    0.965458 0.681735 0.598205 0.096772
H29   H     H_    0.080091 0.722418 0.614180 0.083047
H30   H     H_    0.005958 0.720492 0.742737 0.141111
H31   H     H_    0.222076 0.347902 0.290767 0.257798
H32   H     H_    0.216840 0.454026 0.219945 0.238720
H33   H     H_    0.779032 0.350992 0.708493 0.255088
H34   H     H_    0.435925 0.906842 0.882841 0.140889
H35   H     H_    0.784997 0.458359 0.776383 0.238191
H36   H     H_    0.701081 0.567338 0.292294 0.230821
H37   H     H_    0.773628 0.657710 0.300865 0.263142
H38   H     H_    0.220162 0.658118 0.698247 0.264443
H39   H     H_    0.211053 0.554798 0.775878 0.237625
H40   H     H_    0.592491 0.142123 0.780650 0.170752
H41   H     H_    0.708712 0.144244 0.733013 0.140606
H42   H     H_    0.664269 0.043119 0.809376 0.134900
H43   H     H_    0.387058 0.006917 0.705532 0.121414
H44   H     H_    0.326952 0.893764 0.724973 0.122590
H45   H     H_    0.486364 0.839861 0.756670 0.121492
H46   H     H_    0.269578 0.000779 0.685273 0.120850
H47   H     H_    0.442343 0.079796 0.209010 0.168174
H48   H     H_    0.350871 0.162805 0.233470 0.157776
H49   H     H_    0.329736 0.041896 0.193569 0.138399
H50   H     H_    0.604362 0.010425 0.292786 0.124060
H51   H     H_    0.662584 0.897413 0.264846 0.124506
H52   H     H_    0.722539 0.003011 0.302977 0.124091
H53   H     H_    0.690405 0.243417 0.394929 0.154169
H54   H     H_    0.736320 0.156048 0.499904 0.145737
H55   H     H_    0.772402 0.276835 0.503931 0.113369
H56   H     H_    0.530887 0.951905 0.803301 0.173727
H57   H     H_    0.308948 0.787240 0.365352 0.160410
H58   H     H_    0.232195 0.819894 0.487647 0.140685
H59   H     H_    0.240531 0.699890 0.438436 0.116999
H60   H     H_    0.307052 0.228506 0.601050 0.132549
H61   H     H_    0.255744 0.158750 0.480267 0.156380
H62   H     H_    0.229598 0.281540 0.499061 0.112181
H63   H     H_    0.692008 0.786357 0.631791 0.162122
H64   H     H_    0.766687 0.821668 0.508282 0.145910
H65   H     H_    0.761088 0.700987 0.555881 0.109684
H66   H     H_    0.331516 0.174705 0.007239 0.083213
H67   H     H_    0.320231 0.158676 0.843077 0.141606
H68   H     H_    0.346091 0.059912 0.939394 0.118085
N1    N     N_R   0.500000 0.258690 0.500000 -0.238752
N2    N     N_R   0.500000 0.741310 0.500000 -0.250262
N3    N     N_3   0.238021 0.419907 0.299347 -0.584137
N4    N     N_3   0.763269 0.422953 0.698235 -0.587824
N5    N     N_3   0.768575 0.583750 0.294337 -0.593595
N6    N     N_3   0.234733 0.585448 0.695016 -0.603257
O1    O     O_R   0.371460 0.581430 0.500010 -0.434833
O2    O     O_3   0.556563 0.841317 0.919598 -0.556559
O3    O     O_3   0.449888 0.150932 0.904912 -0.557165
O4    O     O_3   0.421195 0.833934 0.101262 -0.569693
O5    O     O_3   0.376751 0.660081 0.201010 -0.527557
O6    O     O_3   0.392863 0.320523 0.796803 -0.538477
O7    O     O_3   0.607648 0.675414 0.804878 -0.526962
O8    O     O_3   0.614297 0.328813 0.201073 -0.546859
O9    O     O_3   0.052145 0.416072 0.303571 -0.518091
O10   O     O_3   0.948840 0.418999 0.692764 -0.517910
O11   O     O_3   0.950778 0.584182 0.301984 -0.490505
O12   O     O_R   0.628540 0.418570 0.499990 -0.441216
O13   O     O_3   0.049084 0.588285 0.689512 -0.518171
O14   O     O_3   0.627970 0.056046 0.629697 -0.541642
O15   O     O_3   0.342662 0.941671 0.546533 -0.526320
O16   O     O_3   0.370170 0.060648 0.370320 -0.545121
O17   O     O_3   0.655524 0.941733 0.445999 -0.529075
O18   O     O_3   0.647587 0.254459 0.577505 -0.535366
O19   O     O_3   0.343772 0.746035 0.546364 -0.525690
O20   O     O_3   0.352590 0.255411 0.421431 -0.528509
O21   O     O_3   0.655694 0.746206 0.451197 -0.543607
O22   O     O_R   0.628540 0.581430 0.499990 -0.463830
O23   O     O_R   0.371460 0.418570 0.500010 -0.447608
O24   O     O_R   0.499990 0.581440 0.319660 -0.476148
O25   O     O_R   0.500010 0.418560 0.680340 -0.447973
O26   O     O_R   0.500010 0.581440 0.680340 -0.455769
O27   O     O_R   0.499990 0.418560 0.319660 -0.449693
O28   O     O_3   0.565692 0.155222 0.096296 -0.562071

loop_
_geom_bond_atom_site_label_1
_geom_bond_atom_site_label_2
_ccdc_geom_bond_type
C29   N3    S    
C11   C18   A    
C2    O19   S    
C54   H58   S    
C39   H3    S    
C49   H42   S    
C59   O17   S    
C1    C33   S    
C4    N2    A    
C52   H51   S    
C43   H16   S    
C39   H2    S    
C28   C32   A    
C54   O19   S    
C42   H13   S    
C49   O14   S    
C3    N1    A    
C38   H68   S    
C21   C22   A    
C19   C21   A    
C37   H45   S    
H31   N3    S    
C10   C15   A    
C57   H63   S    
C5    C6    S    
C53   H55   S    
Cu2   O25   S    
C52   H50   S    
C43   H17   S    
C7    C24   S    
C29   C33   A    
H32   N3    S    
C45   O14   S    
C10   O6    S    
C13   O8    S    
C26   O10   S    
Cu2   O27   S    
C45   C60   A    
Cu1   N2    S    
C39   O4    S    
C50   O15   S    
C26   C34   A    
C37   H56   S    
C20   C24   A    
C30   N4    S    
C40   H5    S    
C50   H43   S    
C2    N2    A    
C38   O3    S    
C36   H1    S    
C18   C20   A    
C53   H54   S    
C41   H9    S    
C55   H60   S    
C53   O18   S    
C10   C21   A    
Cu2   O12   S    
C54   H57   S    
C50   H46   S    
C47   H27   S    
C43   O8    S    
H35   N4    S    
Cu2   N1    S    
C60   N1    A    
C58   O16   S    
C44   H20   S    
C15   O3    S    
C27   C34   A    
C25   C29   A    
C55   O20   S    
C47   O11   S    
C40   H7    S    
C13   C19   A    
C27   C31   A    
Cu1   O26   S    
C38   H67   S    
C44   H18   S    
C31   N5    S    
C44   H19   S    
Cu1   O24   S    
C49   H40   S    
C32   N6    S    
C9    O5    S    
C7    O24   A    
C52   O17   S    
C7    O27   A    
H36   N5    S    
C48   H29   S    
H33   N4    S    
C37   H34   S    
C12   C35   S    
C47   H25   S    
C9    C14   A    
C49   H41   S    
C17   O28   S    
C40   O5    S    
C11   C16   A    
C9    C20   A    
C8    C22   S    
C4    O21   S    
C1    O23   A    
C23   C34   S    
C44   O9    S    
H37   N5    S    
C23   C28   A    
C56   O15   S    
C36   H12   S    
C41   H10   S    
C46   H22   S    
C5    C58   A    
C27   O11   S    
C54   H59   S    
C14   O4    S    
C51   O16   S    
C26   C30   A    
C51   H48   S    
C37   O2    S    
C48   H30   S    
C39   H4    S    
C14   C16   A    
C25   O9    S    
C55   H61   S    
C57   H64   S    
C1    O1    A    
C50   H44   S    
H39   N6    S    
C15   C17   A    
C57   O21   S    
C55   H62   S    
C42   H11   S    
C51   H49   S    
C18   C22   A    
C6    C59   A    
C16   O2    S    
C6    C56   A    
C57   H65   S    
C38   H66   S    
C52   H52   S    
C36   H23   S    
C43   H15   S    
C30   C35   A    
C42   H14   S    
C13   C17   A    
C8    O25   A    
C32   C33   A    
C12   O12   A    
C19   C24   A    
C41   O6    S    
C2    C56   A    
Cu1   O22   S    
C47   H26   S    
Cu1   O1    S    
C46   O10   S    
C5    C45   A    
C4    C59   A    
C3    O20   S    
C31   C35   A    
C23   C25   A    
Cu1   Cu2   S    
C60   O18   S    
C46   H21   S    
C3    C58   A    
H38   N6    S    
C28   O13   S    
C51   H47   S    
C40   H6    S    
C42   O7    S    
C36   O28   S    
Cu2   O23   S    
C48   H28   S    
C8    O26   A    
C12   O22   A    
C48   O13   S    
C11   O7    S    
C53   H53   S    
C41   H8    S    
C46   H24   S    
