data_mof_unit_53029.cif
_audit_creation_date              2012-12-11T18:11:20-0500
_audit_creation_method            fapswitch 2.2
_symmetry_space_group_name_H-M    P1
_symmetry_Int_Tables_number       1
_space_group_crystal_system       triclinic
_cell_length_a                    8.333927
_cell_length_b                    13.066118
_cell_length_c                    18.712084
_cell_angle_alpha                 99.976716
_cell_angle_beta                  91.292876
_cell_angle_gamma                 97.306625
_cell_volume                      1988.41467213

loop_
_atom_site_label
_atom_site_type_symbol
_atom_type_description
_atom_site_fract_x
_atom_site_fract_y
_atom_site_fract_z
_atom_type_partial_charge
Ba1   Ba    Ba6+2 0.852780 0.548340 0.465070 1.753780
Ba2   Ba    Ba6+2 0.337060 0.451750 0.534940 1.806570
C1    C     C_3   0.576548 0.895629 0.275404 -0.271157
C2    C     C_R   0.901227 0.395668 0.095787 -0.075445
C3    C     C_R   0.768493 0.420939 0.954007 -0.039458
C4    C     C_3   0.065867 0.783452 0.250618 0.333899
C5    C     C_R   0.930064 0.459358 0.978136 -0.001788
C6    C     C_R   0.711796 0.424184 0.884160 0.048211
C7    C     C_R   0.813863 0.464112 0.834108 -0.091472
C8    C     C_R   0.971360 0.512414 0.858333 -0.007286
C9    C     C_R   0.030398 0.509681 0.930628 0.015865
C10   C     C_R   0.765011 0.453653 0.760073 -0.040940
C11   C     C_R   0.875231 0.487649 0.710596 0.181932
C12   C     C_3   0.661916 0.814168 0.305061 0.217545
C13   C     C_R   0.024197 0.547287 0.734240 0.028610
C14   C     C_R   0.072315 0.560107 0.809543 -0.091648
C15   C     C_R   0.152628 0.497375 0.071867 -0.026020
C16   C     C_3   0.988266 0.834199 0.193142 0.275601
C17   C     C_R   0.211215 0.494430 0.143971 -0.013614
C18   C     C_R   0.110396 0.446465 0.192698 -0.033306
C19   C     C_R   0.960049 0.392154 0.165438 0.011222
C20   C     C_R   0.221716 0.613801 0.837247 -0.082597
C21   C     C_R   0.275639 0.616790 0.908400 -0.018317
C22   C     C_R   0.189914 0.556329 0.954273 0.036697
C23   C     C_3   0.479823 0.244911 0.304829 0.936021
C24   C     C_R   0.255762 0.544385 0.023348 0.023908
C25   C     C_R   0.423169 0.572114 0.044506 0.382878
C26   C     C_R   0.371682 0.537999 0.166990 -0.089741
C27   C     C_R   0.476512 0.571738 0.115965 -0.118119
C28   C     C_3   0.337805 0.786258 0.681953 0.662892
C29   C     C_R   0.424394 0.545068 0.240190 0.077179
C30   C     C_R   0.316502 0.509479 0.289525 -0.166556
C31   C     C_R   0.163586 0.454520 0.266814 0.049663
C32   C     C_R   0.758649 0.181774 0.539786 0.077284
C33   C     C_R   0.442220 0.815091 0.481099 -0.235346
C34   C     C_3   0.569499 0.221347 0.234471 0.330985
C35   C     C_R   0.415606 0.982750 0.450909 -0.082568
C36   C     C_R   0.356777 0.875693 0.445993 0.023972
C37   C     C_R   0.587036 0.854447 0.519496 0.015183
C38   C     C_R   0.652768 0.963861 0.529736 -0.148289
C39   C     C_R   0.560801 0.029140 0.493246 -0.106237
C40   C     C_3   0.360352 0.898311 0.667802 -0.254258
C41   C     C_R   0.616489 0.138812 0.499149 0.021201
C42   C     C_R   0.858384 0.120665 0.570122 -0.068464
C43   C     C_R   0.804712 0.012637 0.570478 0.216480
C44   C     C_3   0.953318 0.218168 0.378398 0.308099
C45   C     C_3   0.102542 0.234535 0.741249 0.782630
C46   C     C_3   0.928511 0.098727 0.360715 -0.316900
C47   C     C_3   0.741066 0.707522 0.686027 0.724851
C48   C     C_3   0.811832 0.758625 0.763125 -0.337701
C49   C     C_3   0.144988 0.197381 0.812472 -0.332014
C50   C     C_3   0.587643 0.197699 0.719251 0.414176
C51   C     C_3   0.619775 0.126867 0.773306 0.154554
C52   C     C_R   0.992047 0.451790 0.048605 0.016781
H1    H     H_    0.783830 0.850921 0.328166 0.039593
H2    H     H_    0.839382 0.675118 0.654583 0.010835
H3    H     H_    0.567581 0.964170 0.319205 0.092714
H4    H     H_    0.933086 0.803975 0.762151 0.149587
H5    H     H_    0.825407 0.697582 0.796482 0.008622
H6    H     H_    0.729523 0.811774 0.790847 0.153683
H7    H     H_    0.592994 0.791664 0.350771 0.069043
H8    H     H_    0.452923 0.859664 0.254052 0.193411
H9    H     H_    0.549484 0.278853 0.198558 -0.035098
H10   H     H_    0.701053 0.230386 0.248245 0.059627
H11   H     H_    0.642700 0.923530 0.230318 0.155260
H12   H     H_    0.486410 0.935965 0.684681 0.052870
H13   H     H_    0.933113 0.772197 0.147758 -0.014181
H14   H     H_    0.968526 0.225924 0.734884 -0.023484
H15   H     H_    0.274601 0.221720 0.829170 0.133282
H16   H     H_    0.071342 0.232755 0.856715 0.073366
H17   H     H_    0.120460 0.110874 0.806963 0.147711
H18   H     H_    0.706098 0.230100 0.700482 -0.058661
H19   H     H_    0.516192 0.149900 0.671251 -0.010571
H20   H     H_    0.681362 0.061719 0.745892 0.081612
H21   H     H_    0.983058 0.713978 0.259764 0.034942
H22   H     H_    0.503069 0.093522 0.792998 0.057281
H23   H     H_    0.346151 0.897875 0.608912 0.085249
H24   H     H_    0.586784 0.392900 0.870116 0.114677
H25   H     H_    0.884354 0.346913 0.197712 0.083706
H26   H     H_    0.302683 0.650576 0.803732 0.142486
H27   H     H_    0.603620 0.595387 0.130221 0.097680
H28   H     H_    0.353873 0.523566 0.346443 0.059787
H29   H     H_    0.680514 0.388987 0.988277 0.072981
H30   H     H_    0.783875 0.351560 0.080234 0.063355
H31   H     H_    0.384991 0.669180 0.925984 0.155830
H32   H     H_    0.177630 0.756455 0.227218 0.065165
H33   H     H_    0.349153 0.028252 0.420648 0.096975
H34   H     H_    0.274076 0.944840 0.699477 0.185475
H35   H     H_    0.396204 0.732535 0.475593 0.060976
H36   H     H_    0.892941 0.878833 0.217046 0.047471
H37   H     H_    0.403334 0.739544 0.640337 0.062759
H38   H     H_    0.570114 0.639074 0.738058 0.319285
H39   H     H_    0.276170 0.150368 0.290343 0.351830
H40   H     H_    0.435153 0.375145 0.362491 0.290492
H41   H     H_    0.436065 0.121796 0.162062 0.360899
H42   H     H_    0.154857 0.376151 0.794940 0.269472
H43   H     H_    0.737199 0.133904 0.864452 0.314670
H44   H     H_    0.760935 0.499645 0.623285 0.332966
H45   H     H_    0.836272 0.245362 0.393121 -0.019586
H46   H     H_    0.645603 0.612696 0.018086 0.302950
H47   H     H_    0.097967 0.926564 0.538071 0.299216
H48   H     H_    0.876855 0.301538 0.512430 0.286228
H49   H     H_    0.959516 0.981140 0.091305 0.335578
H50   H     H_    0.335150 0.828119 0.787075 0.285215
H51   H     H_    0.045224 0.242888 0.424068 0.043396
H52   H     H_    0.844991 0.071380 0.312102 0.141580
H53   H     H_    0.875942 0.065950 0.407172 -0.010665
H54   H     H_    0.046486 0.069194 0.349678 0.151298
O1    O     O_2   0.873090 0.425890 0.325140 -0.452747
O2    O     O_2   0.185760 0.137384 0.543106 -0.452894
O3    O     O_3   0.169731 0.173372 0.682593 -0.504000
O4    O     O_3   0.122420 0.434370 0.414380 -0.511050
O5    O     O_3   0.578370 0.633800 0.536380 -0.484217
O6    O     O_2   0.341510 0.231850 0.465510 -0.474401
O7    O     O_3   0.526281 0.178640 0.352362 -0.681414
O8    O     O_2   0.435135 0.465128 0.757635 -0.450469
O9    O     O_3   0.496329 0.274584 0.752780 -0.587044
O10   O     O_3   0.659500 0.627100 0.368810 -0.475398
O11   O     O_2   0.761327 0.543644 0.242338 -0.500798
O12   O     O_3   0.678500 0.783594 0.652483 -0.582392
O13   O     O_3   0.005851 0.257457 0.316905 -0.586282
O14   O     O_3   0.677969 0.730288 0.247740 -0.626705
O15   O     O_2   0.848200 0.768190 0.534530 -0.461091
O16   O     O_3   0.081160 0.685950 0.404810 -0.462558
O17   O     O_2   0.307219 0.737086 0.332410 -0.577440
O18   O     O_3   0.618193 0.625876 0.689719 -0.755558
O19   O     O_3   0.312223 0.225078 0.288325 -0.753436
O20   O     O_3   0.524357 0.351625 0.332530 -0.754255
O21   O     O_3   0.522274 0.118444 0.198372 -0.691135
O22   O     O_3   0.163282 0.339889 0.744453 -0.696348
O23   O     O_3   0.097384 0.855913 0.316658 -0.615892
O24   O     O_3   0.718236 0.184261 0.831979 -0.741368
O25   O     O_3   0.841792 0.457770 0.637596 -0.667591
O26   O     O_3   0.536436 0.591033 0.993947 -0.766816
O27   O     O_2   0.952187 0.032509 0.699375 -0.372719
O28   O     O_2   0.947802 0.859257 0.648170 -0.274173
O29   O     O_3   0.120237 0.972938 0.586024 -0.525252
O30   O     O_3   0.801309 0.287627 0.549895 -0.671463
O31   O     O_2   0.257642 0.972769 0.215208 -0.276089
O32   O     O_2   0.211478 0.865632 0.093132 -0.299475
O33   O     O_3   0.038486 0.018953 0.129861 -0.483394
O34   O     O_2   0.316610 0.574140 0.674900 -0.435827
O35   O     O_3   0.403426 0.787947 0.752195 -0.779227
O36   O     O_3   0.067290 0.565720 0.585630 -0.439781
O37   O     O_3   0.530210 0.372990 0.631200 -0.395066
O38   O     O_3   0.173334 0.743769 0.675260 -0.641288
O39   O     O_3   0.611340 0.366290 0.463630 -0.408567
O40   O     O_3   0.108550 0.314140 0.595200 -0.405926
P1    P     P_3+3 0.041040 0.394770 0.336330 1.024032
P2    P     P_3+3 0.672880 0.754030 0.556100 1.024521
P3    P     P_3+3 0.193077 0.798857 0.382105 0.875991
P4    P     P_3+3 0.148670 0.605320 0.663680 1.047711
P5    P     P_3+3 0.073357 0.184817 0.600116 1.150992
P6    P     P_3+3 0.629583 0.608604 0.275195 0.990577
P7    P     P_3+3 0.524930 0.229733 0.446078 1.003545
P8    P     P_3+3 0.558816 0.393675 0.725217 1.086665
S1    S     S_3+6 0.945727 0.962460 0.627337 -0.107886
S2    S     S_3+6 0.131869 0.923411 0.157067 -0.074864

loop_
_geom_bond_atom_site_label_1
_geom_bond_atom_site_label_2
_ccdc_geom_bond_type
C44   H45   S    
C15   C24   A    
C12   O14   S    
H44   O25   S    
C25   C27   A    
Ba2   O36   S    
O6    P7    D    
O23   P3    S    
C51   H20   S    
Ba1   O15   S    
C4    H21   S    
C42   C43   A    
Ba2   O37   S    
C5    C9    A    
C47   O18   S    
C37   P2    S    
Ba2   O4    S    
C24   C25   A    
H41   O21   S    
Ba1   O5    S    
C35   C39   A    
O27   S1    D    
C48   H5    S    
C26   C27   A    
C23   O20   S    
C22   C24   A    
C23   O7    S    
Ba1   O4    S    
C33   C37   A    
C3    H29   S    
Ba2   O5    S    
C47   O12   S    
Ba2   O40   S    
C13   C14   A    
C44   H51   S    
C9    C22   A    
Ba1   Ba2   S    
H48   O30   S    
O34   P4    D    
O17   P3    D    
Ba1   O1    S    
O37   P8    S    
C46   H52   S    
C17   C18   A    
O31   S2    D    
C6    C7    A    
C21   C22   A    
C44   O13   S    
Ba1   P1    S    
C49   H16   S    
C34   H9    S    
O39   P7    S    
C7    C8    A    
O32   S2    D    
C50   O9    S    
C12   H1    S    
O15   P2    D    
C6    H24   S    
C39   C41   A    
C1    H11   S    
C49   H17   S    
C10   P8    S    
C41   P7    S    
H49   O33   S    
C13   P4    S    
H46   O26   S    
C28   O38   S    
Ba2   P4    S    
C38   C43   A    
C4    C16   S    
C44   C46   S    
C45   O22   S    
C48   H4    S    
C33   C36   A    
C43   S1    S    
C50   H19   S    
C37   C38   A    
C3    C5    A    
H47   O29   S    
C4    O23   S    
C45   C49   S    
C16   H13   S    
C12   H7    S    
C32   O30   S    
C28   O35   S    
C16   H36   S    
O1    P1    D    
H39   O19   S    
C27   H27   S    
C35   C36   A    
C16   S2    S    
O28   S1    D    
C29   C30   A    
C2    H30   S    
O2    P5    D    
C50   H18   S    
C19   H25   S    
O9    P8    S    
H50   O35   S    
C32   C42   A    
Ba1   P2    S    
C51   O24   S    
C10   C11   A    
C17   C26   A    
O3    P5    S    
C1    C12   S    
O38   P4    S    
C18   C31   A    
C1    H3    S    
C38   C39   A    
O16   P3    S    
O14   P6    S    
O11   P6    D    
O7    P7    S    
C11   C13   A    
Ba2   O34   S    
Ba1   O39   S    
C51   H22   S    
C40   H34   S    
O40   P5    S    
C42   P5    S    
C33   H35   S    
C36   P3    S    
C29   P6    S    
C50   C51   S    
H42   O22   S    
C1    H8    S    
C14   C20   A    
C2    C52   A    
O4    P1    S    
C25   O26   S    
C11   O25   S    
O5    P2    S    
C35   H33   S    
C26   C29   A    
C32   C41   A    
H43   O24   S    
C28   H37   S    
H38   O18   S    
C3    C6    A    
H40   O20   S    
C47   H2    S    
C30   H28   S    
O12   P2    S    
C4    H32   S    
O29   S1    S    
C48   H6    S    
C30   C31   A    
Ba2   O39   S    
Ba1   O16   S    
C20   H26   S    
O36   P4    S    
Ba1   O36   S    
C8    C14   A    
C34   O21   S    
C2    C19   A    
Ba2   O6    S    
C45   H14   S    
C46   H54   S    
C45   O3    S    
C15   C17   A    
O13   P1    S    
O10   P6    S    
Ba1   O10   S    
C23   O19   S    
C7    C10   A    
O8    P8    D    
C8    C9    A    
C23   C34   S    
C46   H53   S    
O33   S2    S    
C18   C19   A    
C40   H23   S    
C47   C48   S    
C21   H31   S    
C40   H12   S    
C20   C21   A    
C28   C40   S    
C31   P1    S    
C49   H15   S    
C5    C52   A    
C34   H10   S    
C15   C52   A    
