data_mof_unit_37903.cif
_audit_creation_date              2012-12-10T20:39:57-0500
_audit_creation_method            fapswitch 2.2
_symmetry_space_group_name_H-M    P1
_symmetry_Int_Tables_number       1
_space_group_crystal_system       triclinic
_cell_length_a                    23.350427
_cell_length_b                    10.687987
_cell_length_c                    9.949337
_cell_angle_alpha                 90.036022
_cell_angle_beta                  90.025771
_cell_angle_gamma                 89.638019
_cell_volume                      2482.99639331

loop_
_atom_site_label
_atom_site_type_symbol
_atom_type_description
_atom_site_fract_x
_atom_site_fract_y
_atom_site_fract_z
_atom_type_partial_charge
C1    C     C_R   0.502812 0.260694 0.499920 0.860820
C2    C     C_R   0.964996 0.285819 0.520363 -0.167351
C3    C     C_R   0.024297 0.279318 0.513998 -0.174231
C4    C     C_R   0.056970 0.387850 0.527972 0.023151
C5    C     C_R   0.029852 0.504184 0.550554 -0.090661
C6    C     C_R   0.062704 0.611821 0.575430 -0.192012
C7    C     C_R   0.035342 0.729651 0.586415 0.365937
C8    C     C_R   0.976240 0.739986 0.560446 0.398690
C9    C     C_R   0.116347 0.383761 0.515957 0.498304
C10   C     C_R   0.122469 0.598022 0.582580 0.546616
C11   C     C_R   0.234877 0.555446 0.426994 0.192339
C12   C     C_R   0.389581 0.495458 0.500111 0.886556
C13   C     C_R   0.294401 0.560267 0.421337 -0.337276
C14   C     C_R   0.327447 0.481828 0.501900 -0.132697
C15   C     C_R   0.301108 0.390565 0.583615 0.124478
C16   C     C_R   0.242135 0.403912 0.613379 0.121706
C17   C     C_R   0.208696 0.482839 0.528935 0.253865
C18   C     C_R   0.765473 0.474426 0.392152 0.194963
C19   C     C_R   0.706529 0.443641 0.399498 0.118476
C20   C     C_R   0.672811 0.504868 0.498970 -0.085051
C21   C     C_R   0.698655 0.577129 0.598752 -0.291384
C22   C     C_R   0.757472 0.582953 0.607341 -0.161264
C23   C     C_R   0.498248 0.739720 0.500063 0.851250
C24   C     C_R   0.791226 0.531223 0.505836 0.271464
C25   C     C_R   0.489810 0.065080 0.615768 0.028324
C26   C     C_R   0.503653 0.128655 0.499135 -0.074229
C27   C     C_R   0.508949 0.063776 0.377804 -0.243936
C28   C     C_R   0.503197 0.935652 0.377216 -0.223934
C29   C     C_R   0.493375 0.872087 0.498545 -0.117015
C30   C     C_R   0.480586 0.939625 0.615294 0.001613
C31   C     C_3   0.499145 0.926219 0.760850 0.304310
C32   C     C_3   0.515066 0.064855 0.754053 -0.078314
C33   C     C_R   0.451410 0.475663 0.070475 -0.033501
C34   C     C_R   0.610496 0.499345 0.499653 0.869283
C35   C     C_R   0.547235 0.533700 0.071971 0.402543
C36   C     C_R   0.548786 0.522406 0.929209 0.417178
C37   C     C_R   0.450016 0.487028 0.929377 -0.102142
C38   C     C_3   0.409409 0.379087 0.920084 0.244189
C39   C     C_3   0.416196 0.359067 0.071336 0.301015
C40   C     C_R   0.882353 0.634593 0.539292 0.529691
C41   C     C_R   0.878035 0.411367 0.529620 0.489686
C42   C     C_R   0.937438 0.402243 0.533330 0.036163
C43   C     C_R   0.969832 0.512492 0.545859 -0.079982
C44   C     C_R   0.942476 0.630523 0.549974 -0.210088
H1    H     H_    0.940886 0.200095 0.509787 0.192634
H2    H     H_    0.673159 0.625951 0.673252 0.201803
H3    H     H_    0.776967 0.628688 0.692896 0.174482
H4    H     H_    0.518304 0.111142 0.284221 0.206495
H5    H     H_    0.509400 0.887037 0.283161 0.164017
H6    H     H_    0.535026 0.859740 0.778438 0.132596
H7    H     H_    0.489443 0.124981 0.822786 0.153305
H8    H     H_    0.044605 0.189319 0.499185 0.175476
H9    H     H_    0.427854 0.303551 0.856812 0.101791
H10   H     H_    0.376678 0.369461 0.132725 0.106937
H11   H     H_    0.315293 0.623506 0.351945 0.167483
N1    N     N_R   0.851999 0.526198 0.524681 -0.341100
N2    N     N_R   0.147807 0.487843 0.544183 -0.327439
N3    N     N_R   0.499610 0.499140 0.142800 -0.141140
N4    N     N_R   0.499610 0.499180 0.857150 -0.174387
O1    O     O_R   0.500010 0.316790 0.614690 -0.644486
O2    O     O_2   0.846240 0.306203 0.529230 -0.582441
O3    O     O_2   0.142502 0.277639 0.474211 -0.589925
O4    O     O_2   0.155459 0.693674 0.624513 -0.558981
O5    O     O_R   0.500000 0.316760 0.385350 -0.577467
O6    O     O_R   0.416160 0.499980 0.614700 -0.628378
O7    O     O_R   0.416150 0.499940 0.385360 -0.617720
O8    O     O_R   0.500000 0.683240 0.614650 -0.633832
O9    O     O_R   0.499990 0.683210 0.385310 -0.635543
O10   O     O_R   0.583850 0.500060 0.614640 -0.582499
O11   O     O_R   0.583840 0.500020 0.385300 -0.576695
O12   O     O_2   0.854225 0.745148 0.542891 -0.538270
Zn1   Zn    Zn3+2 0.500000 0.500020 0.653130 0.940443
Zn2   Zn    Zn3+2 0.500000 0.499980 0.346870 0.978134
C45   C     C_3   0.681384 0.337431 0.314997 -0.406565
C46   C     C_3   0.660800 0.229096 0.402834 -0.850324
H12   H     H_    0.696785 0.192564 0.464788 0.276420
H13   H     H_    0.625427 0.257825 0.470313 0.240930
H14   H     H_    0.644891 0.152233 0.337861 0.246272
H15   H     H_    0.646136 0.371811 0.250057 0.254978
H16   H     H_    0.712933 0.293955 0.246708 0.202070
O13   O     O_3   0.454645 0.913207 0.857654 -0.684585
C47   C     C_3   0.409118 0.836396 0.815073 0.085541
H17   H     H_    0.392294 0.788714 0.905473 0.150603
H18   H     H_    0.423269 0.760574 0.746858 0.178081
C48   C     C_3   0.360559 0.916040 0.753664 -0.383956
H19   H     H_    0.328979 0.941727 0.832343 0.200836
H20   H     H_    0.377578 0.005406 0.714701 0.238472
C49   C     C_3   0.330078 0.847624 0.639522 -0.920833
H21   H     H_    0.360338 0.829187 0.555572 0.257290
H22   H     H_    0.294290 0.906479 0.601170 0.279454
H23   H     H_    0.312470 0.757326 0.675225 0.261250
C50   C     C_3   0.579746 0.095483 0.762344 -0.431310
C51   C     C_3   0.619816 0.014602 0.675800 -0.858201
H24   H     H_    0.622484 0.917474 0.714449 0.249063
H25   H     H_    0.605951 0.013278 0.569302 0.273080
H26   H     H_    0.663610 0.054302 0.679756 0.257842
H27   H     H_    0.585534 0.194681 0.732880 0.217366
H28   H     H_    0.593491 0.087497 0.868802 0.212066
O14   O     O_3   0.595155 0.575927 0.138526 -0.643007
C52   C     C_3   0.591135 0.707298 0.155647 0.156419
H29   H     H_    0.600253 0.728460 0.262851 0.174483
H30   H     H_    0.547985 0.747730 0.132376 0.103509
C53   C     C_3   0.635937 0.772997 0.069161 -0.369448
H31   H     H_    0.679106 0.733852 0.091600 0.226721
H32   H     H_    0.626388 0.757113 0.961166 0.244751
C54   C     C_3   0.636026 0.913638 0.096154 -0.986488
H33   H     H_    0.593040 0.954473 0.075495 0.262431
H34   H     H_    0.667818 0.959544 0.029807 0.275770
H35   H     H_    0.647710 0.932466 0.202480 0.269589
O15   O     O_3   0.600401 0.536911 0.864095 -0.632653
C55   C     C_3   0.635488 0.429349 0.884356 0.148856
H36   H     H_    0.640335 0.381100 0.786224 0.169405
H37   H     H_    0.617814 0.358440 0.955563 0.087177
C56   C     C_3   0.694732 0.468711 0.934689 -0.360142
H38   H     H_    0.708409 0.555913 0.884009 0.229123
H39   H     H_    0.692736 0.488343 0.044139 0.237536
C57   C     C_3   0.739484 0.366778 0.908539 -0.957758
H40   H     H_    0.728408 0.280414 0.964629 0.259426
H41   H     H_    0.782216 0.399478 0.941852 0.269874
H42   H     H_    0.742022 0.345231 0.799416 0.290802
O16   O     O_3   0.350644 0.402784 0.888049 -0.682458
C58   C     C_3   0.333947 0.530276 0.877379 0.125643
H43   H     H_    0.295227 0.533402 0.813671 0.188058
H44   H     H_    0.365420 0.588011 0.822751 0.136225
C59   C     C_3   0.318381 0.587216 0.014436 -0.406260
H45   H     H_    0.297827 0.515664 0.078971 0.244565
H46   H     H_    0.357739 0.619814 0.065676 0.203883
C60   C     C_3   0.277453 0.698439 0.999264 -0.960090
H47   H     H_    0.289146 0.756765 0.912021 0.269092
H48   H     H_    0.279321 0.758148 0.090105 0.263967
H49   H     H_    0.232957 0.665329 0.984916 0.279357
O17   O     O_3   0.450153 0.253101 0.104508 -0.655620
C61   C     C_3   0.421717 0.139653 0.073067 0.056680
H50   H     H_    0.455384 0.066664 0.061523 0.206852
H51   H     H_    0.397731 0.142481 0.976555 0.145461
C62   C     C_3   0.381491 0.099098 0.185670 -0.364779
H52   H     H_    0.405575 0.096775 0.281010 0.253536
H53   H     H_    0.345370 0.166641 0.194442 0.218025
C63   C     C_3   0.357337 0.968942 0.160498 -0.928943
H54   H     H_    0.330587 0.969359 0.068408 0.262772
H55   H     H_    0.330169 0.941010 0.246891 0.261168
H56   H     H_    0.392512 0.899194 0.149419 0.272763
O18   O     O_3   0.067460 0.837420 0.599142 -0.604432
C64   C     C_3   0.062648 0.882732 0.732002 0.150918
H57   H     H_    0.074242 0.808522 0.806218 0.136981
H58   H     H_    0.018217 0.916228 0.752062 0.162077
C65   C     C_3   0.103810 0.992260 0.749636 -0.298667
H59   H     H_    0.148437 0.959430 0.731721 0.251848
H60   H     H_    0.093593 0.066070 0.674663 0.231741
C66   C     C_3   0.099771 0.048363 0.890365 -0.988815
H61   H     H_    0.055776 0.084372 0.909296 0.273534
H62   H     H_    0.130258 0.127256 0.899490 0.277135
H63   H     H_    0.110813 0.976753 0.967160 0.270104
O19   O     O_3   0.952571 0.858582 0.547417 -0.602463
C67   C     C_3   0.945514 0.888115 0.409283 0.161851
H64   H     H_    0.914149 0.966527 0.403353 0.186626
H65   H     H_    0.926904 0.809533 0.350223 0.126878
C68   C     C_3   0.001937 0.929951 0.344793 -0.378875
H66   H     H_    0.023488 0.997948 0.411566 0.257359
H67   H     H_    0.030757 0.847788 0.331288 0.227973
C69   C     C_3   0.991852 0.990527 0.207947 -0.965236
H68   H     H_    0.970812 0.923459 0.138649 0.266108
H69   H     H_    0.033545 0.018466 0.164037 0.280205
H70   H     H_    0.964546 0.075451 0.218629 0.270974
C70   C     C_3   0.200626 0.629072 0.323787 -0.384288
C71   C     C_3   0.171722 0.543054 0.222004 -0.860541
H71   H     H_    0.203523 0.478010 0.176582 0.267008
H72   H     H_    0.137349 0.488001 0.270143 0.269063
H73   H     H_    0.152030 0.600117 0.140810 0.245715
H74   H     H_    0.229035 0.693246 0.268168 0.205717
H75   H     H_    0.168252 0.690766 0.371170 0.237706
C72   C     C_3   0.333786 0.270361 0.616532 -0.366770
C73   C     C_3   0.344597 0.196094 0.488548 -0.929553
H76   H     H_    0.303335 0.171348 0.439972 0.285558
H77   H     H_    0.370680 0.252125 0.417978 0.263157
H78   H     H_    0.368378 0.108687 0.511714 0.256750
H79   H     H_    0.375428 0.290905 0.663795 0.239632
H80   H     H_    0.310789 0.206859 0.685088 0.206181
C74   C     C_3   0.215892 0.336173 0.734344 -0.399778
C75   C     C_3   0.178738 0.419821 0.824945 -0.863445
H81   H     H_    0.194327 0.517565 0.825574 0.274076
H82   H     H_    0.133379 0.418523 0.792138 0.254126
H83   H     H_    0.179704 0.383993 0.929741 0.250254
H84   H     H_    0.190862 0.254089 0.700618 0.241086
H85   H     H_    0.249893 0.300452 0.801901 0.229206
C76   C     C_3   0.800583 0.455867 0.264164 -0.438826
C77   C     C_3   0.820709 0.580792 0.206869 -0.876642
H86   H     H_    0.783584 0.644805 0.191681 0.264357
H87   H     H_    0.852176 0.625974 0.274213 0.265711
H88   H     H_    0.841766 0.564879 0.108193 0.250560
H89   H     H_    0.837968 0.393784 0.282202 0.234932
H90   H     H_    0.775824 0.412774 0.182540 0.210274

loop_
_geom_bond_atom_site_label_1
_geom_bond_atom_site_label_2
_ccdc_geom_bond_type
C72   H79   S    
C70   H75   S    
C68   H67   S    
C1    O5    A    
C51   H24   S    
C40   O12   S    
C67   H65   S    
C11   C13   A    
C41   C42   A    
C19   C20   A    
C33   N3    A    
C41   O2    S    
C46   H12   S    
C36   N4    A    
C60   H47   S    
C10   O4    S    
C7    O18   S    
O13   C47   S    
C50   H28   S    
C7    C8    A    
C32   H7    S    
C73   H76   S    
C72   C73   S    
C26   C27   A    
C70   C71   S    
C59   H45   S    
C35   N3    A    
C18   C24   A    
C23   C29   S    
C28   C29   A    
C65   H60   S    
C18   C19   A    
C57   H41   S    
C5    C6    A    
C63   H56   S    
C73   H78   S    
C39   H10   S    
C39   O17   S    
O1    Zn1   S    
C15   C16   A    
C70   H74   S    
O8    Zn1   S    
C23   O8    A    
C76   H89   S    
O15   C55   S    
C50   C51   S    
C77   H88   S    
C68   C69   S    
C53   H32   S    
C55   H36   S    
O17   C61   S    
C40   N1    A    
C66   H63   S    
C61   C62   S    
O5    Zn2   S    
C68   H66   S    
C55   C56   S    
C29   C30   A    
C8    O19   S    
C4    C9    A    
C34   O11   A    
C9    N2    A    
C16   C74   S    
N4    Zn1   S    
C20   C34   S    
C25   C32   S    
C48   H20   S    
C22   H3    S    
C5    C43   A    
C51   H25   S    
C45   H16   S    
C21   C22   A    
C67   C68   S    
C71   H72   S    
C64   C65   S    
C35   O14   S    
C69   H69   S    
C75   H82   S    
C50   H27   S    
C69   H68   S    
C67   H64   S    
C73   H77   S    
C2    H1    S    
C38   C39   S    
C1    C26   S    
C45   C46   S    
C65   H59   S    
C9    O3    S    
C56   C57   S    
C65   C66   S    
C64   H58   S    
C1    O1    A    
C16   C17   A    
C25   C26   A    
C48   H19   S    
O7    Zn2   S    
C12   O7    A    
C18   C76   S    
C52   C53   S    
C33   C37   A    
C35   C36   A    
C62   C63   S    
C23   O9    A    
O10   Zn1   S    
C43   C44   A    
C41   N1    A    
C37   C38   S    
C59   C60   S    
C61   H50   S    
C28   H5    S    
C31   C32   S    
C49   H23   S    
C40   C44   A    
C30   C31   S    
C3    H8    S    
C10   N2    A    
O11   Zn2   S    
C52   H30   S    
O16   C58   S    
C55   H37   S    
C33   C39   S    
C20   C21   A    
C46   H13   S    
C34   O10   A    
O19   C67   S    
C37   N4    A    
C76   C77   S    
C62   H53   S    
C49   H22   S    
C51   H26   S    
C47   H18   S    
C45   H15   S    
C36   O15   S    
C71   H71   S    
C22   C24   A    
C57   H42   S    
C42   C43   A    
C31   H6    S    
C58   H44   S    
C3    C4    A    
C47   C48   S    
C60   H49   S    
C53   H31   S    
C69   H70   S    
C75   H81   S    
C59   H46   S    
C21   H2    S    
C74   H84   S    
C48   C49   S    
C72   H80   S    
C25   C30   A    
C11   C17   A    
C66   H61   S    
C19   C45   S    
C8    C44   A    
C12   C14   S    
C62   H52   S    
C60   H48   S    
C6    C10   A    
C56   H39   S    
C63   H54   S    
C75   H83   S    
C56   H38   S    
C6    C7    A    
C74   H85   S    
C24   N1    S    
O6    Zn1   S    
C12   O6    A    
C31   O13   S    
O14   C52   S    
C64   H57   S    
C58   C59   S    
C2    C3    A    
O9    Zn2   S    
C77   H86   S    
C57   H40   S    
C63   H55   S    
C32   C50   S    
C38   H9    S    
C54   H34   S    
C2    C42   A    
C52   H29   S    
C15   C72   S    
C53   C54   S    
C66   H62   S    
C27   H4    S    
C76   H90   S    
C46   H14   S    
C77   H87   S    
C38   O16   S    
C74   C75   S    
C4    C5    A    
C49   H21   S    
C71   H73   S    
C47   H17   S    
C54   H33   S    
C27   C28   A    
C61   H51   S    
C14   C15   A    
C11   C70   S    
C58   H43   S    
C13   C14   A    
O18   C64   S    
N3    Zn2   S    
C17   N2    S    
C13   H11   S    
C54   H35   S    
