data_mof_unit_63444.cif
_audit_creation_date              2013-03-05T15:41:26-0500
_audit_creation_method            fapswitch 2.2
_symmetry_space_group_name_H-M    P1
_symmetry_Int_Tables_number       1
_space_group_crystal_system       triclinic
_cell_length_a                    18.483904
_cell_length_b                    18.483934
_cell_length_c                    34.424158
_cell_angle_alpha                 89.999707
_cell_angle_beta                  90.000078
_cell_angle_gamma                 89.999869
_cell_volume                      11761.1947066

loop_
_atom_site_label
_atom_site_type_symbol
_atom_site_description
_atom_site_fract_x
_atom_site_fract_y
_atom_site_fract_z
_atom_type_partial_charge
Zn1   Zn    Zn3+2 0.414160 0.000000 0.467250 1.089001
Zn2   Zn    Zn3+2 0.000000 0.414160 0.467250 1.088832
Zn3   Zn    Zn3+2 0.585840 0.000000 0.467250 1.088950
Zn4   Zn    Zn3+2 0.000000 0.585840 0.467250 1.088827
Zn5   Zn    Zn3+2 0.914160 0.500000 0.967250 1.088911
Zn6   Zn    Zn3+2 0.500000 0.914160 0.967250 1.089116
Zn7   Zn    Zn3+2 0.085840 0.500000 0.967250 1.088793
Zn8   Zn    Zn3+2 0.500000 0.085840 0.967250 1.088918
Zn9   Zn    Zn3+2 0.500000 0.085780 0.532750 1.086380
Zn10  Zn    Zn3+2 0.914220 0.500000 0.532750 1.086466
Zn11  Zn    Zn3+2 0.500000 0.914220 0.532750 1.086419
Zn12  Zn    Zn3+2 0.085780 0.500000 0.532750 1.086437
Zn13  Zn    Zn3+2 0.000000 0.585780 0.032750 1.086362
Zn14  Zn    Zn3+2 0.414220 0.000000 0.032750 1.086381
Zn15  Zn    Zn3+2 1.000000 0.414220 0.032750 1.086456
Zn16  Zn    Zn3+2 0.585780 0.000000 0.032750 1.086348
O1    O     O_3   0.500000 1.000000 0.500000 -0.547903
O2    O     O_3   0.000000 0.500000 0.500000 -0.547750
O3    O     O_3   0.000000 0.500000 0.000000 -0.547758
O4    O     O_3   0.500000 0.000000 0.000000 -0.547918
O5    O     O_R   0.500000 0.939870 0.587440 -0.607944
O6    O     O_R   0.060130 0.500000 0.587440 -0.608126
O7    O     O_R   0.500000 0.060130 0.587440 -0.607949
O8    O     O_R   0.939870 0.500000 0.587440 -0.608123
O9    O     O_R   0.000000 0.439870 0.087440 -0.608162
O10   O     O_R   0.560130 0.000000 0.087440 -0.607970
O11   O     O_R   0.000000 0.560130 0.087440 -0.608141
O12   O     O_R   0.439870 0.000000 0.087440 -0.607966
O13   O     O_R   0.439940 1.000000 0.412560 -0.600876
O14   O     O_R   0.000000 0.439940 0.412560 -0.601210
O15   O     O_R   0.560060 1.000000 0.412560 -0.600903
O16   O     O_R   0.000000 0.560060 0.412560 -0.601212
O17   O     O_R   0.939940 0.500000 0.912560 -0.601174
O18   O     O_R   0.500000 0.939940 0.912560 -0.600845
O19   O     O_R   0.060060 0.500000 0.912560 -0.601231
O20   O     O_R   0.500000 0.060060 0.912560 -0.600929
O21   O     O_R   0.415450 0.144560 0.522930 -0.627032
O22   O     O_R   0.855440 0.415450 0.522930 -0.627004
O23   O     O_R   0.584550 0.855440 0.522930 -0.627027
O24   O     O_R   0.144560 0.584550 0.522930 -0.627018
O25   O     O_R   0.584550 0.144560 0.522930 -0.613368
O26   O     O_R   0.144560 0.415450 0.522930 -0.613754
O27   O     O_R   0.415450 0.855440 0.522930 -0.613348
O28   O     O_R   0.855440 0.584550 0.522930 -0.613724
O29   O     O_R   0.915450 0.644560 0.022930 -0.627024
O30   O     O_R   0.355440 0.915450 0.022930 -0.627004
O31   O     O_R   0.084550 0.355440 0.022930 -0.627002
O32   O     O_R   0.644560 0.084550 0.022930 -0.627055
O33   O     O_R   0.084550 0.644560 0.022930 -0.613878
O34   O     O_R   0.644560 0.915450 0.022930 -0.613469
O35   O     O_R   0.915450 0.355440 0.022930 -0.613796
O36   O     O_R   0.355440 0.084550 0.022930 -0.613421
O37   O     O_R   0.644640 0.915430 0.477080 -0.614936
O38   O     O_R   0.084570 0.644640 0.477080 -0.615087
O39   O     O_R   0.355360 0.084570 0.477080 -0.614940
O40   O     O_R   0.915430 0.355360 0.477080 -0.615109
O41   O     O_R   0.355360 0.915430 0.477080 -0.628737
O42   O     O_R   0.915430 0.644640 0.477080 -0.628785
O43   O     O_R   0.644640 0.084570 0.477080 -0.628764
O44   O     O_R   0.084570 0.355360 0.477080 -0.628796
O45   O     O_R   0.144640 0.415430 0.977080 -0.615070
O46   O     O_R   0.584570 0.144640 0.977080 -0.614917
O47   O     O_R   0.855360 0.584570 0.977080 -0.615083
O48   O     O_R   0.415430 0.855360 0.977080 -0.614985
O49   O     O_R   0.855360 0.415430 0.977080 -0.628728
O50   O     O_R   0.415430 0.144640 0.977080 -0.628737
O51   O     O_R   0.144640 0.584570 0.977080 -0.628901
O52   O     O_R   0.584570 0.855360 0.977080 -0.628762
C1    C     C_R   0.499995 0.999999 0.605685 0.963679
C2    C     C_R   0.999999 0.500002 0.605685 0.964558
C3    C     C_R   1.000000 0.500000 0.105685 0.964724
C4    C     C_R   0.500000 0.000001 0.105685 0.963810
C5    C     C_R   0.500000 0.999999 0.394295 0.961878
C6    C     C_R   1.000000 0.500000 0.394294 0.962959
C7    C     C_R   0.000000 0.499997 0.894295 0.962770
C8    C     C_R   0.500004 0.999998 0.894295 0.961720
C9    C     C_R   0.361903 0.139450 0.499302 0.895239
C10   C     C_R   0.860519 0.361931 0.499282 0.895791
C11   C     C_R   0.638094 0.860546 0.499299 0.895292
C12   C     C_R   0.139483 0.638068 0.499280 0.895801
C13   C     C_R   0.637985 0.139093 0.499518 0.944646
C14   C     C_R   0.139102 0.362025 0.499511 0.944531
C15   C     C_R   0.362014 0.860908 0.499519 0.944694
C16   C     C_R   0.860899 0.637976 0.499512 0.944558
C17   C     C_R   0.861922 0.639471 0.999288 0.895661
C18   C     C_R   0.360568 0.861887 0.999314 0.895081
C19   C     C_R   0.138072 0.360522 0.999283 0.895841
C20   C     C_R   0.639455 0.138093 0.999298 0.895322
C21   C     C_R   0.137970 0.639107 0.999507 0.944334
C22   C     C_R   0.639095 0.862018 0.999516 0.944587
C23   C     C_R   0.862023 0.360900 0.999512 0.944587
C24   C     C_R   0.360907 0.137985 0.999518 0.944653
C25   C     C_2   0.203737 0.743661 0.469819 -0.077394
C26   C     C_2   0.255976 0.203362 0.470031 -0.077015
C27   C     C_2   0.796287 0.256318 0.469831 -0.077395
C28   C     C_2   0.743981 0.796593 0.470005 -0.077080
C29   C     C_2   0.786050 0.728901 0.466469 -0.115993
C30   C     C_2   0.728572 0.214227 0.466393 -0.115664
C31   C     C_2   0.213909 0.271050 0.466481 -0.116056
C32   C     C_2   0.271457 0.785746 0.466387 -0.115673
C33   C     C_2   0.703423 0.243968 0.969999 -0.077039
C34   C     C_2   0.756205 0.703599 0.969897 -0.077223
C35   C     C_2   0.296852 0.755775 0.970151 -0.076812
C36   C     C_2   0.243709 0.296313 0.969847 -0.077329
C37   C     C_2   0.285794 0.228599 0.966400 -0.115689
C38   C     C_2   0.229191 0.713702 0.966535 -0.116275
C39   C     C_2   0.714123 0.771306 0.966422 -0.115844
C40   C     C_2   0.771119 0.286032 0.966467 -0.116008
C41   C     C_2   0.201471 0.686491 0.494397 -0.355923
C42   C     C_2   0.313422 0.201378 0.494425 -0.355517
C43   C     C_2   0.798536 0.313502 0.494399 -0.355892
C44   C     C_2   0.686568 0.798612 0.494421 -0.355568
C45   C     C_2   0.806234 0.694380 0.499307 -0.326939
C46   C     C_2   0.694358 0.193793 0.499281 -0.326774
C47   C     C_2   0.193762 0.305617 0.499311 -0.326939
C48   C     C_2   0.305643 0.806205 0.499280 -0.326761
C49   C     C_2   0.701393 0.186563 0.994420 -0.355596
C50   C     C_2   0.813477 0.701437 0.994407 -0.355791
C51   C     C_2   0.298677 0.813367 0.994445 -0.355296
C52   C     C_2   0.186503 0.298542 0.994401 -0.355892
C53   C     C_2   0.306210 0.194361 0.999284 -0.326772
C54   C     C_2   0.194400 0.693744 0.999329 -0.326930
C55   C     C_2   0.693783 0.805634 0.999292 -0.326718
C56   C     C_2   0.805621 0.306234 0.999307 -0.326905
H1    H     H_    0.249812 0.671884 0.510585 0.185705
H2    H     H_    0.328215 0.249888 0.510418 0.185648
H3    H     H_    0.750186 0.328116 0.510579 0.185698
H4    H     H_    0.671799 0.750122 0.510439 0.185658
H5    H     H_    0.787820 0.713078 0.527551 0.177013
H6    H     H_    0.713298 0.212011 0.527514 0.176878
H7    H     H_    0.212206 0.286955 0.527556 0.177042
H8    H     H_    0.286680 0.788008 0.527512 0.176872
H9    H     H_    0.749878 0.171796 0.010443 0.185639
H10   H     H_    0.828154 0.749841 0.010523 0.185664
H11   H     H_    0.250075 0.828256 0.010334 0.185594
H12   H     H_    0.171872 0.250178 0.010564 0.185679
H13   H     H_    0.287978 0.213282 0.027518 0.176903
H14   H     H_    0.212877 0.712341 0.027580 0.177184
H15   H     H_    0.712076 0.786785 0.027529 0.176967
H16   H     H_    0.786907 0.287835 0.027550 0.177005
C57   C     C_R   0.969953 0.558814 0.668071 0.242851
C58   C     C_R   0.441477 0.969365 0.668071 0.242965
C59   C     C_R   0.030014 0.441193 0.668076 0.242794
C60   C     C_R   0.558512 0.030563 0.668080 0.242844
C61   C     C_R   0.469474 0.058561 0.168074 0.242882
C62   C     C_R   0.941136 0.470074 0.168073 0.242791
C63   C     C_R   0.530512 0.941442 0.168076 0.242845
C64   C     C_R   0.058864 0.529925 0.168072 0.242774
C65   C     C_R   0.999995 0.500006 0.648002 -0.244752
C66   C     C_R   0.499988 0.999989 0.648003 -0.244869
C67   C     C_R   0.499998 0.000002 0.148003 -0.244848
C68   C     C_R   1.000000 0.499999 0.148001 -0.244726
C69   C     C_R   0.022495 0.437225 0.708936 -0.064590
C70   C     C_R   0.562553 0.023075 0.708938 -0.064755
C71   C     C_R   0.977436 0.562777 0.708933 -0.064580
C72   C     C_R   0.437455 0.976764 0.708936 -0.064744
C73   C     C_R   0.523054 0.937418 0.208936 -0.064726
C74   C     C_R   0.062817 0.522416 0.208934 -0.064555
C75   C     C_R   0.476915 0.062581 0.208935 -0.064726
C76   C     C_R   0.937184 0.477581 0.208934 -0.064557
C77   C     C_R   0.999963 0.500002 0.729466 0.040477
C78   C     C_R   0.500005 0.999911 0.729468 0.040581
C79   C     C_R   0.499983 1.000000 0.229467 0.040567
C80   C     C_R   0.000000 0.499998 0.229465 0.040461
C81   C     C_R   0.034984 0.371991 0.729644 -0.145105
C82   C     C_R   0.627658 0.036221 0.729645 -0.145011
C83   C     C_R   0.964902 0.628000 0.729643 -0.145060
C84   C     C_R   0.372380 0.963505 0.729649 -0.144957
C85   C     C_R   0.536149 0.872305 0.229647 -0.145046
C86   C     C_R   0.128069 0.534804 0.229644 -0.145138
C87   C     C_R   0.463798 0.127688 0.229647 -0.145027
C88   C     C_R   0.871931 0.465193 0.229645 -0.145134
C89   C     C_R   0.537634 0.872833 0.270498 0.246947
C90   C     C_R   0.127565 0.536257 0.270499 0.247129
C91   C     C_R   0.462294 0.127156 0.270498 0.246889
C92   C     C_R   0.872437 0.463736 0.270499 0.247135
C93   C     C_R   0.036436 0.372496 0.770498 0.247134
C94   C     C_R   0.627138 0.037686 0.770495 0.246954
C95   C     C_R   0.963420 0.627489 0.770497 0.246965
C96   C     C_R   0.372926 0.961953 0.770499 0.246724
C97   C     C_R   0.523949 0.937850 0.291028 -0.067733
C98   C     C_R   0.062397 0.523298 0.291027 -0.067524
C99   C     C_R   0.476008 0.062145 0.291029 -0.067780
C100  C     C_R   0.937606 0.476696 0.291027 -0.067523
C101  C     C_R   0.023372 0.437642 0.791026 -0.067551
C102  C     C_R   0.562134 0.023945 0.791027 -0.067747
C103  C     C_R   0.976549 0.562358 0.791030 -0.067681
C104  C     C_R   0.437899 0.975832 0.791035 -0.067946
C105  C     C_R   0.499981 0.999999 0.270485 -0.017017
C106  C     C_R   0.000001 0.499998 0.270482 -0.017244
C107  C     C_R   0.999960 0.500001 0.770484 -0.017166
C108  C     C_R   0.500010 0.999899 0.770487 -0.016938
C109  C     C_R   0.530927 0.941667 0.331865 0.229355
C110  C     C_R   0.058643 0.530342 0.331864 0.229201
C111  C     C_R   0.469054 0.058329 0.331868 0.229364
C112  C     C_R   0.941360 0.469651 0.331864 0.229209
C113  C     C_R   0.030417 0.441403 0.831862 0.229201
C114  C     C_R   0.558315 0.030937 0.831862 0.229341
C115  C     C_R   0.969563 0.558601 0.831871 0.229244
C116  C     C_R   0.441714 0.968949 0.831878 0.229411
C117  C     C_R   0.499997 0.999999 0.351964 -0.283317
C118  C     C_R   0.000000 0.499999 0.351963 -0.283423
C119  C     C_R   0.999998 0.500000 0.851964 -0.283373
C120  C     C_R   0.500005 0.999980 0.851965 -0.283233
C121  C     C_2   0.140669 0.768604 0.446821 1.053255
O53   O     O_2   0.114138 0.827863 0.453560 -0.572342
O54   O     O_R   0.114424 0.726416 0.416217 -0.676554
H17   H     H_    0.071896 0.749782 0.402487 0.370320
C122  C     C_2   0.230677 0.139983 0.447400 1.052735
O55   O     O_2   0.171749 0.113227 0.454696 -0.572607
O56   O     O_R   0.272147 0.113637 0.416540 -0.675906
H18   H     H_    0.248597 0.070878 0.403108 0.370347
C123  C     C_2   0.859373 0.231369 0.446849 1.053251
O57   O     O_2   0.885945 0.172143 0.453626 -0.572346
O58   O     O_R   0.885594 0.273515 0.416223 -0.676555
H19   H     H_    0.928138 0.250150 0.402507 0.370313
C124  C     C_2   0.769236 0.859933 0.447327 1.052797
O59   O     O_2   0.828216 0.886647 0.454546 -0.572581
O60   O     O_R   0.727668 0.886279 0.416505 -0.675924
H20   H     H_    0.751197 0.929008 0.403035 0.370368
C125  C     C_2   0.802627 0.699941 0.426809 1.013964
O61   O     O_2   0.805952 0.740822 0.398943 -0.545794
O62   O     O_R   0.811218 0.625490 0.421019 -0.767969
H21   H     H_    0.821755 0.612793 0.392926 0.383690
C126  C     C_2   0.699246 0.197886 0.426776 1.013540
O63   O     O_2   0.739838 0.194960 0.398777 -0.545900
O64   O     O_R   0.624767 0.189074 0.421190 -0.768885
H22   H     H_    0.611808 0.178730 0.393110 0.383358
C127  C     C_2   0.197296 0.299958 0.426813 1.014019
O65   O     O_2   0.193915 0.259035 0.398968 -0.545823
O66   O     O_R   0.188736 0.374404 0.420994 -0.767894
H23   H     H_    0.178167 0.387064 0.392899 0.383651
C128  C     C_2   0.300816 0.802055 0.426774 1.013510
O67   O     O_2   0.260252 0.804914 0.398761 -0.545833
O68   O     O_R   0.375295 0.810911 0.421206 -0.768941
H24   H     H_    0.388276 0.821225 0.393126 0.383406
C129  C     C_2   0.640092 0.269223 0.947313 1.052786
O69   O     O_2   0.613396 0.328218 0.954516 -0.572514
O70   O     O_R   0.613737 0.227637 0.916501 -0.675917
H25   H     H_    0.571017 0.251168 0.903024 0.370382
C130  C     C_2   0.731133 0.640413 0.947036 1.053079
O71   O     O_2   0.672015 0.613767 0.953998 -0.572328
O72   O     O_R   0.773040 0.614157 0.916324 -0.676492
H26   H     H_    0.749609 0.571538 0.902706 0.370273
C131  C     C_2   0.360406 0.730317 0.947717 1.052512
O73   O     O_2   0.387398 0.671650 0.955363 -0.572648
O74   O     O_R   0.386709 0.771350 0.916679 -0.675833
H27   H     H_    0.429614 0.747731 0.903415 0.370263
C132  C     C_2   0.268695 0.359424 0.946897 1.053190
O75   O     O_2   0.327901 0.386001 0.953716 -0.572332
O76   O     O_R   0.226606 0.385668 0.916254 -0.676495
H28   H     H_    0.249992 0.428230 0.902563 0.370308
C133  C     C_2   0.302147 0.199301 0.926780 1.013527
O77   O     O_2   0.305090 0.239915 0.898790 -0.545914
O78   O     O_R   0.310952 0.124825 0.921178 -0.768920
H29   H     H_    0.321306 0.111886 0.893097 0.383244
C134  C     C_2   0.200547 0.696887 0.926840 1.014279
O79   O     O_2   0.241683 0.693119 0.899100 -0.546098
O80   O     O_R   0.126116 0.688555 0.920871 -0.767589
H30   H     H_    0.113635 0.677803 0.892774 0.383338
C135  C     C_2   0.697694 0.800499 0.926790 1.013683
O81   O     O_2   0.694612 0.759799 0.898840 -0.545948
O82   O     O_R   0.688968 0.874969 0.921128 -0.768757
H31   H     H_    0.678546 0.887837 0.893045 0.383252
C136  C     C_2   0.800102 0.302585 0.926807 1.013917
O83   O     O_2   0.759241 0.305855 0.898932 -0.545759
O84   O     O_R   0.874553 0.311209 0.921031 -0.768086
H32   H     H_    0.887267 0.321725 0.892938 0.383632
N1    N     N_R   0.929195 0.612322 0.647020 0.205582
O85   O     O_R   0.958204 0.647413 0.618170 -0.388860
O86   O     O_R   0.861799 0.624083 0.655923 -0.316845
N2    N     N_R   0.388344 0.928134 0.647012 0.205806
O87   O     O_R   0.352878 0.956895 0.618224 -0.388634
O88   O     O_R   0.377310 0.860584 0.655847 -0.316819
N3    N     N_R   0.070778 0.387678 0.647033 0.205581
O89   O     O_R   0.041780 0.352590 0.618179 -0.388859
O90   O     O_R   0.138161 0.375896 0.655954 -0.316776
N4    N     N_R   0.611655 0.071811 0.647038 0.205807
O91   O     O_R   0.647112 0.043085 0.618236 -0.388682
O92   O     O_R   0.622742 0.139331 0.655918 -0.316671
N5    N     N_R   0.428306 0.111752 0.147021 0.205766
O93   O     O_R   0.457094 0.147166 0.118222 -0.388667
O94   O     O_R   0.360784 0.122900 0.155876 -0.316753
N6    N     N_R   0.887554 0.429405 0.147025 0.205529
O95   O     O_R   0.852529 0.458463 0.118167 -0.388871
O96   O     O_R   0.875660 0.362039 0.155942 -0.316818
N7    N     N_R   0.571683 0.888248 0.147027 0.205765
O97   O     O_R   0.542900 0.852836 0.118226 -0.388612
O98   O     O_R   0.639199 0.877089 0.155891 -0.316719
N8    N     N_R   0.112446 0.570594 0.147025 0.205534
O99   O     O_R   0.147471 0.541536 0.118167 -0.388828
O100  O     O_R   0.124339 0.637960 0.155941 -0.316800
C137  C     C_2   0.033796 0.300968 0.709450 1.059939
O101  O     O_2   0.085109 0.259556 0.712195 -0.494142
O102  O     O_R   0.973651 0.282039 0.687027 -0.740809
H33   H     H_    0.978983 0.232680 0.674509 0.377721
C138  C     C_2   0.698696 0.035747 0.709456 1.059884
O103  O     O_2   0.739576 0.087487 0.712191 -0.494314
O104  O     O_R   0.718258 0.975773 0.687059 -0.740820
H34   H     H_    0.767567 0.981600 0.674545 0.377667
C139  C     C_2   0.966058 0.699031 0.709455 1.059958
O105  O     O_2   0.914736 0.740430 0.712214 -0.494209
O106  O     O_R   0.026188 0.717990 0.687029 -0.740786
H35   H     H_    0.020835 0.767354 0.674517 0.377704
C140  C     C_2   0.301321 0.963915 0.709480 1.059942
O107  O     O_2   0.260474 0.912153 0.712242 -0.494425
O108  O     O_R   0.281685 0.023865 0.687082 -0.740745
H36   H     H_    0.232364 0.017997 0.674588 0.377678
C141  C     C_2   0.535603 0.801262 0.209465 1.059918
O109  O     O_2   0.587307 0.760335 0.212199 -0.494294
O110  O     O_R   0.475604 0.781746 0.187075 -0.740755
H37   H     H_    0.481383 0.732429 0.174566 0.377743
C142  C     C_2   0.199091 0.533504 0.209451 1.059967
O111  O     O_2   0.240580 0.584756 0.212193 -0.494105
O112  O     O_R   0.217931 0.473328 0.187031 -0.740773
H38   H     H_    0.267299 0.478583 0.174513 0.377774
C143  C     C_2   0.464331 0.198735 0.209468 1.059924
O113  O     O_2   0.412623 0.239657 0.212208 -0.494326
O114  O     O_R   0.524323 0.218265 0.187077 -0.740764
H39   H     H_    0.518537 0.267585 0.174571 0.377722
C144  C     C_2   0.800909 0.466494 0.209452 1.059962
O115  O     O_2   0.759419 0.415244 0.212195 -0.494119
O116  O     O_R   0.782070 0.526671 0.187032 -0.740769
H40   H     H_    0.732703 0.521416 0.174514 0.377776
N9    N     N_R   0.541406 0.805061 0.290856 0.230064
O117  O     O_R   0.484562 0.780308 0.308752 -0.297070
O118  O     O_R   0.600764 0.767224 0.290741 -0.222526
N10   N     N_R   0.195375 0.539202 0.290862 0.230105
O119  O     O_R   0.219327 0.482121 0.308855 -0.297349
O120  O     O_R   0.233976 0.598064 0.290715 -0.222488
N11   N     N_R   0.458457 0.194923 0.290854 0.230067
O121  O     O_R   0.515297 0.219767 0.308719 -0.296988
O122  O     O_R   0.399052 0.232686 0.290751 -0.222528
N12   N     N_R   0.804629 0.460788 0.290864 0.230102
O123  O     O_R   0.780679 0.517866 0.308860 -0.297377
O124  O     O_R   0.766029 0.401925 0.290716 -0.222510
N13   N     N_R   0.039493 0.304691 0.790861 0.230093
O125  O     O_R   0.982447 0.280636 0.808846 -0.297345
O126  O     O_R   0.098423 0.266191 0.790718 -0.222576
N14   N     N_R   0.694913 0.041487 0.790850 0.230060
O127  O     O_R   0.719690 0.984654 0.808747 -0.297007
O128  O     O_R   0.732725 0.100860 0.790733 -0.222561
N15   N     N_R   0.960234 0.695290 0.790854 0.230100
O129  O     O_R   0.017289 0.719549 0.808754 -0.297025
O130  O     O_R   0.901203 0.733634 0.790744 -0.222548
N16   N     N_R   0.305173 0.957850 0.790851 0.230062
O131  O     O_R   0.279988 0.014656 0.808608 -0.296729
O132  O     O_R   0.267705 0.898259 0.790794 -0.222649
N17   N     N_R   0.571842 0.888335 0.352882 0.246202
O133  O     O_R   0.542579 0.852150 0.381257 -0.338786
O134  O     O_R   0.639876 0.878568 0.344755 -0.265692
N18   N     N_R   0.112349 0.570789 0.352870 0.246042
O135  O     O_R   0.148085 0.541313 0.381345 -0.338907
O136  O     O_R   0.122978 0.638634 0.344599 -0.265942
N19   N     N_R   0.428156 0.111662 0.352893 0.246166
O137  O     O_R   0.457456 0.147875 0.381247 -0.338830
O138  O     O_R   0.360094 0.121368 0.344813 -0.265575
N20   N     N_R   0.887660 0.429194 0.352869 0.246043
O139  O     O_R   0.851923 0.458661 0.381347 -0.338976
O140  O     O_R   0.877042 0.361349 0.344597 -0.265923
N21   N     N_R   0.070945 0.387754 0.852866 0.246067
O141  O     O_R   0.041515 0.351954 0.881332 -0.338899
O142  O     O_R   0.138815 0.377253 0.844607 -0.265943
N22   N     N_R   0.611627 0.071884 0.852875 0.246209
O143  O     O_R   0.647841 0.042637 0.881246 -0.338527
O144  O     O_R   0.621362 0.139920 0.844744 -0.265760
N23   N     N_R   0.929118 0.612275 0.852898 0.245947
O145  O     O_R   0.958676 0.648134 0.881305 -0.338745
O146  O     O_R   0.861181 0.622669 0.844760 -0.265691
N24   N     N_R   0.388414 0.928058 0.852928 0.246041
O147  O     O_R   0.352068 0.957449 0.881205 -0.339019
O148  O     O_R   0.378988 0.859892 0.845008 -0.265197

loop_
_geom_bond_atom_site_label_1
_geom_bond_atom_site_label_2
_geom_bond_distance
_ccdc_geom_bond_type
O62   H21   1.014032 S    
C37   C133  1.498279 S    
C77   C107  1.412020 A    
C49   H9    1.087146 S    
C78   C108  1.412031 A    
N13   O125  1.301098 A    
C139  O105  1.222487 D    
N6    O95   1.301723 A    
C89   C97   1.416952 A    
C30   C46   1.350701 D    
C109  C117  1.402887 A    
O49   C23   1.275694 A    
Zn12  O26   1.933161 S    
C73   C85   1.419633 A    
C62   C68   1.402567 A    
O34   C22   1.278778 A    
Zn14  O36   1.933156 S    
N3    O89   1.301735 A    
C71   C83   1.419635 A    
N2    O87   1.301724 A    
O52   C22   1.275700 A    
O41   C15   1.275696 A    
C18   C51   1.463258 S    
C98   C110  1.413515 A    
Zn15  O35   1.933162 S    
Zn4   O2    1.946403 S    
C141  O110  1.397889 S    
C131  O73   1.222339 D    
O47   C17   1.276303 A    
C46   H6    1.086513 S    
C40   C56   1.350625 D    
C99   C105  1.419875 A    
C36   C37   1.478435 S    
C123  O58   1.397599 S    
O116  H40   1.013804 S    
O76   H28   1.013836 S    
N14   O127  1.301099 A    
O22   C10   1.284586 A    
C84   C96   1.406549 A    
Zn10  O28   1.933156 S    
C69   C77   1.421046 A    
Zn12  O24   1.933160 S    
O58   H19   1.013832 S    
C127  O65   1.222662 D    
O64   H22   1.014048 S    
Zn16  O4    1.945499 S    
C4    C67   1.456744 S    
N18   O135  1.301552 A    
Zn1   O13   1.942030 S    
C76   C88   1.419658 A    
C39   C135  1.498234 S    
Zn3   O15   1.942029 S    
C25   C32   1.478480 S    
C88   C144  1.485637 S    
Zn4   O16   1.942032 S    
Zn5   O49   1.933732 S    
Zn7   O3    1.946407 S    
N1    O86   1.301175 A    
C114  C120  1.402833 A    
O11   C3    1.276617 A    
C82   C138  1.485652 S    
C91   C99   1.416961 A    
C86   C90   1.406676 A    
C92   C100  1.416934 A    
C121  O53   1.222323 D    
C74   C86   1.419657 A    
N14   O128  1.301110 A    
O50   C24   1.275699 A    
C111  C117  1.402890 A    
Zn9   O25   1.933160 S    
Zn10  O22   1.933164 S    
Zn13  O29   1.933157 S    
Zn10  O2    1.945503 S    
Zn3   O1    1.946407 S    
C60   C70   1.415259 A    
C94   C102  1.416956 A    
C59   C65   1.402560 A    
C87   C143  1.485659 S    
C144  O115  1.222481 D    
Zn4   O42   1.933729 S    
C98   C106  1.419792 A    
C58   C72   1.415314 A    
C28   C124  1.482591 S    
Zn8   O46   1.933731 S    
N17   O133  1.301563 A    
C81   C93   1.406638 A    
C22   C55   1.451908 S    
C61   N5    1.439053 S    
C90   C98   1.416937 A    
N24   O147  1.301563 A    
O8    C2    1.276609 A    
C114  N22   1.437746 S    
C132  O75   1.222315 D    
C35   C131  1.482496 S    
C1    C66   1.456762 S    
C14   C47   1.451874 S    
O16   C6    1.275854 A    
C133  O77   1.222660 D    
O14   C6    1.275844 A    
C142  O112  1.397901 S    
C62   C76   1.415345 A    
C21   C54   1.451856 S    
C72   C84   1.419614 A    
Zn12  O6    1.941442 S    
O40   C10   1.276330 A    
N22   O143  1.301568 A    
C130  O71   1.222322 D    
C53   H13   1.086519 S    
N9    O118  1.301111 A    
C60   C66   1.402569 A    
O45   C19   1.276324 A    
O17   C7    1.275844 A    
C140  O108  1.397888 S    
Zn5   O17   1.942030 S    
C13   C46   1.451934 S    
C10   C43   1.463607 S    
O9    C3    1.276618 A    
C128  O67   1.222659 D    
C96   N16   1.436996 S    
C50   H10   1.087140 S    
C116  C120  1.402856 A    
O80   H30   1.014034 S    
C63   N7    1.439053 S    
C129  O69   1.222324 D    
C138  O104  1.397893 S    
C17   C50   1.463537 S    
C80   C106  1.412003 A    
C31   C127  1.498136 S    
C121  O54   1.397594 S    
C33   C129  1.482591 S    
C84   C140  1.485686 S    
C116  N24   1.437672 S    
C7    C119  1.457199 S    
N12   O123  1.301098 A    
Zn9   O7    1.941439 S    
C81   C137  1.485646 S    
Zn10  O8    1.941440 S    
C124  O59   1.222323 D    
Zn11  O5    1.941444 S    
O5    C1    1.276615 A    
O31   C19   1.284579 A    
C63   C67   1.402585 A    
C137  O101  1.222485 D    
Zn1   O41   1.933732 S    
C128  O68   1.399546 S    
N16   O132  1.301112 A    
C48   H8    1.086522 S    
C83   C139  1.485657 S    
C64   N8    1.439070 S    
C38   C54   1.350586 D    
C109  N17   1.437747 S    
C122  O55   1.222317 D    
C34   C39   1.478362 S    
N20   O140  1.300865 A    
C136  O84   1.399534 S    
C42   H2    1.087143 S    
N19   O138  1.300863 A    
N15   O130  1.301104 A    
C100  C106  1.419788 A    
C62   N6    1.439071 S    
Zn9   O1    1.945507 S    
N19   O137  1.301561 A    
C69   C81   1.419638 A    
C70   C78   1.421077 A    
C70   C82   1.419614 A    
C64   C68   1.402566 A    
N10   O119  1.301097 A    
O84   H32   1.014043 S    
N5    O94   1.301175 A    
Zn1   O1    1.946406 S    
C104  C108  1.419937 A    
C101  C113  1.413475 A    
N6    O96   1.301174 A    
Zn1   O39   1.933729 S    
Zn2   O40   1.933731 S    
Zn3   O37   1.933727 S    
C85   C141  1.485650 S    
C126  O64   1.399544 S    
N4    O92   1.301170 A    
Zn7   O51   1.933733 S    
N2    O88   1.301177 A    
C85   C89   1.406567 A    
N4    O91   1.301745 A    
C29   C45   1.350628 D    
O6    C2    1.276629 A    
C88   C92   1.406677 A    
O18   C8    1.275798 A    
C83   C95   1.406660 A    
O10   C4    1.276631 A    
O70   H25   1.013863 S    
C32   C48   1.350698 D    
C39   C55   1.350668 D    
N15   O129  1.301108 A    
C91   N11   1.437061 S    
O82   H31   1.014043 S    
Zn14  O30   1.933164 S    
C123  O57   1.222315 D    
C71   C77   1.421029 A    
Zn15  O3    1.945499 S    
N21   O142  1.300866 A    
C75   C87   1.419633 A    
C11   C44   1.463407 S    
C76   C80   1.421031 A    
Zn16  O34   1.933161 S    
C31   C47   1.350623 D    
Zn2   O44   1.933725 S    
C59   C69   1.415321 A    
C95   C103  1.416969 A    
O72   H26   1.013859 S    
C110  C118  1.402935 A    
O27   C15   1.278778 A    
C93   C101  1.416941 A    
Zn5   O47   1.933729 S    
N8    O99   1.301726 A    
Zn8   O20   1.942032 S    
Zn6   O48   1.933731 S    
C143  O114  1.397890 S    
Zn7   O45   1.933727 S    
C96   C104  1.416993 A    
O35   C23   1.278774 A    
C97   C105  1.419865 A    
N18   O136  1.300864 A    
C12   C41   1.463618 S    
C38   C134  1.498028 S    
C99   C111  1.413474 A    
O68   H24   1.014038 S    
O32   C20   1.284584 A    
C82   C94   1.406531 A    
C57   N1    1.439069 S    
C97   C109  1.413445 A    
C30   C126  1.498298 S    
C33   C40   1.478175 S    
C94   N14   1.437099 S    
O112  H38   1.013805 S    
N1    O85   1.301724 A    
C115  C119  1.402900 A    
C32   C128  1.498302 S    
O12   C4    1.276624 A    
C2    C65   1.456717 S    
O48   C18   1.276191 A    
N13   O126  1.301106 A    
C112  N20   1.437812 S    
C101  C107  1.419821 A    
O38   C12   1.276333 A    
C139  O106  1.397895 S    
Zn16  O10   1.941442 S    
Zn13  O3    1.945507 S    
O54   H17   1.013843 S    
Zn14  O4    1.945503 S    
C54   H14   1.086554 S    
C93   N13   1.437128 S    
O102  H33   1.013807 S    
C57   C71   1.415348 A    
C6    C118  1.457206 S    
C100  C112  1.413512 A    
O21   C9    1.284586 A    
C26   C42   1.354239 D    
C51   H11   1.087155 S    
O108  H36   1.013822 S    
C103  C115  1.413553 A    
C52   H12   1.087138 S    
C115  N23   1.437744 S    
O104  H34   1.013814 S    
N7    O97   1.301734 A    
C111  N19   1.437730 S    
O25   C13   1.278783 A    
C79   C105  1.412010 A    
C86   C142  1.485638 S    
C131  O74   1.397583 S    
O36   C24   1.278778 A    
O60   H20   1.013872 S    
Zn11  O1    1.945499 S    
C36   C132  1.482656 S    
O37   C11   1.276240 A    
C56   H16   1.086539 S    
Zn12  O2    1.945499 S    
O43   C13   1.275700 A    
O28   C16   1.278778 A    
N24   O148  1.300861 A    
Zn5   O3    1.946406 S    
Zn6   O4    1.946414 S    
Zn2   O14   1.942027 S    
C125  O62   1.399532 S    
C33   C49   1.354258 D    
C58   C66   1.402605 A    
C127  O66   1.399532 S    
C142  O111  1.222481 D    
C135  O81   1.222661 D    
C5    C117  1.457209 S    
C61   C75   1.415294 A    
N22   O144  1.300862 A    
N9    O117  1.301102 A    
C44   H4    1.087141 S    
Zn15  O9    1.941444 S    
O114  H39   1.013816 S    
Zn6   O18   1.942027 S    
C110  N18   1.437807 S    
C140  O107  1.222498 D    
C104  C116  1.413514 A    
C102  C114  1.413411 A    
C60   N4    1.439056 S    
O23   C11   1.284591 A    
C36   C52   1.354338 D    
O110  H37   1.013817 S    
Zn8   O50   1.933729 S    
C16   C45   1.451877 S    
C55   H15   1.086529 S    
Zn2   O2    1.946414 S    
C138  O103  1.222496 D    
O7    C1    1.276650 A    
N23   O145  1.301568 A    
O26   C14   1.278780 A    
Zn15  O31   1.933158 S    
N11   O121  1.301105 A    
C25   C121  1.482671 S    
Zn16  O32   1.933160 S    
C27   C30   1.478471 S    
C57   C65   1.402577 A    
C47   H7    1.086540 S    
C141  O109  1.222495 D    
C28   C44   1.354256 D    
O19   C7    1.275834 A    
Zn8   O4    1.946403 S    
C45   H5    1.086541 S    
C143  O113  1.222497 D    
N3    O90   1.301172 A    
C134  O79   1.222663 D    
O39   C9    1.276237 A    
N12   O124  1.301102 A    
O15   C5    1.275844 A    
O13   C5    1.275837 A    
O51   C21   1.275698 A    
O20   C8    1.275863 A    
O44   C14   1.275697 A    
C3    C68   1.456703 S    
C144  O116  1.397902 S    
O24   C12   1.284581 A    
Zn11  O27   1.933162 S    
C136  O83   1.222656 D    
C73   C79   1.421066 A    
C103  C107  1.419845 A    
C34   C50   1.354309 D    
C74   C80   1.421033 A    
Zn6   O52   1.933725 S    
N7    O98   1.301173 A    
C72   C78   1.421051 A    
N17   O134  1.300863 A    
O106  H35   1.013811 S    
C9    C42   1.463379 S    
C59   N3    1.439070 S    
C89   N9    1.437086 S    
C135  O82   1.399555 S    
C132  O76   1.397598 S    
N10   O120  1.301102 A    
C92   N12   1.437126 S    
C40   C136  1.498171 S    
C133  O78   1.399547 S    
N5    O93   1.301729 A    
C87   C91   1.406570 A    
C130  O72   1.397595 S    
O29   C17   1.284581 A    
O56   H18   1.013869 S    
O42   C16   1.275696 A    
C125  O61   1.222663 D    
C90   N10   1.437127 S    
C28   C29   1.478171 S    
Zn9   O21   1.933157 S    
C126  O63   1.222653 D    
C37   C53   1.350689 D    
C34   C130  1.482624 S    
C64   C74   1.415342 A    
Zn11  O23   1.933158 S    
N11   O122  1.301113 A    
C61   C67   1.402592 A    
Zn13  O33   1.933160 S    
C41   H1    1.087136 S    
C23   C56   1.451877 S    
C129  O70   1.397587 S    
C43   H3    1.087138 S    
C27   C123  1.482662 S    
C75   C79   1.421059 A    
O46   C20   1.276248 A    
C112  C118  1.402936 A    
O78   H29   1.014039 S    
C63   C73   1.415282 A    
C95   N15   1.437070 S    
C113  N21   1.437805 S    
Zn4   O38   1.933731 S    
Zn7   O19   1.942029 S    
C15   C48   1.451931 S    
C35   C51   1.354172 D    
O33   C21   1.278786 A    
O74   H27   1.013916 S    
C8    C120  1.457192 S    
C124  O60   1.397591 S    
N21   O141  1.301553 A    
C19   C52   1.463584 S    
C137  O102  1.397899 S    
C27   C43   1.354354 D    
C24   C53   1.451922 S    
N16   O131  1.301110 A    
C26   C31   1.478130 S    
C122  O56   1.397594 S    
C29   C125  1.498149 S    
C113  C119  1.402891 A    
C35   C38   1.477975 S    
N8    O100  1.301175 A    
N23   O146  1.300862 A    
C102  C108  1.419899 A    
N20   O139  1.301548 A    
C58   N2    1.439053 S    
C26   C122  1.482578 S    
C25   C41   1.354352 D    
O66   H23   1.014034 S    
Zn13  O11   1.941439 S    
Zn14  O12   1.941440 S    
C20   C49   1.463418 S    
C134  O80   1.399546 S    
O30   C18   1.284578 A    
Zn3   O43   1.933733 S    
