data_mof_unit_13305.cif
_audit_creation_date              2012-12-11T16:22:18-0500
_audit_creation_method            fapswitch 2.2
_symmetry_space_group_name_H-M    P1
_symmetry_Int_Tables_number       1
_space_group_crystal_system       triclinic
_cell_length_a                    13.478311
_cell_length_b                    14.04281
_cell_length_c                    30.095898
_cell_angle_alpha                 97.945819
_cell_angle_beta                  90.708706
_cell_angle_gamma                 118.525362
_cell_volume                      4936.64642845

loop_
_atom_site_label
_atom_site_type_symbol
_atom_type_description
_atom_site_fract_x
_atom_site_fract_y
_atom_site_fract_z
_atom_type_partial_charge
C1    C     C_R   0.719651 0.098117 0.569759 0.553863
C2    C     C_1   0.335314 0.677303 0.766801 0.113295
C3    C     C_3   0.429044 0.943158 0.242410 0.049219
C4    C     C_3   0.549266 0.039855 0.251671 -0.266834
C5    C     C_3   0.578235 0.112026 0.215131 -0.483520
C6    C     C_3   0.573112 0.336664 0.315005 -0.000882
C7    C     C_3   0.650878 0.443982 0.298467 -0.240125
C8    C     C_3   0.764678 0.451180 0.288340 -0.455321
C9    C     C_3   0.846732 0.422794 0.101482 0.060524
C10   C     C_3   0.792661 0.376370 0.052884 -0.297403
C11   C     C_3   0.686468 0.387055 0.045570 -0.432736
C12   C     C_3   0.829656 0.388889 0.427085 0.028535
C13   C     C_1   0.339005 0.685772 0.727749 0.116504
C14   C     C_3   0.928248 0.506211 0.431670 -0.251946
C15   C     C_3   0.886216 0.588243 0.427206 -0.458982
C16   C     C_3   0.796312 0.902946 0.293380 0.069711
C17   C     C_3   0.906259 0.939507 0.323301 -0.279389
C18   C     C_3   0.913168 0.839440 0.333930 -0.421174
C19   C     C_R   0.383971 0.787914 0.551032 0.581041
C20   C     C_R   0.305167 0.610511 0.900000 -0.059019
C21   C     C_3   0.236816 0.142461 0.721966 0.267279
C22   C     C_3   0.240229 0.066422 0.753706 0.281012
C23   C     C_1   0.296104 0.198851 0.876362 0.058048
C24   C     C_1   0.371871 0.132394 0.614778 0.041216
C25   C     C_3   0.316884 0.243790 0.756963 0.296691
C26   C     C_3   0.318940 0.167363 0.788711 0.036095
C27   C     C_R   0.346374 0.696226 0.681135 -0.080236
C28   C     C_3   0.422450 0.246953 0.736494 -0.120011
C29   C     C_3   0.342067 0.145617 0.701712 -0.042165
C30   C     C_3   0.423727 0.169296 0.768122 -0.201350
C31   C     C_R   0.398706 0.118233 0.569770 0.547760
C32   C     C_3   0.344520 0.067628 0.732488 -0.148944
C33   C     C_1   0.306335 0.180925 0.836949 0.068641
C34   C     C_1   0.356393 0.138935 0.653874 0.011803
C35   C     C_3   0.888557 0.252889 0.737828 0.287969
C36   C     C_3   0.797580 0.249104 0.769102 0.210065
C37   C     C_1   0.881226 0.198696 0.881171 0.060688
C38   C     C_R   0.249830 0.673546 0.654165 0.216162
C39   C     C_1   0.761392 0.126672 0.616381 0.069816
C40   C     C_3   0.905954 0.173480 0.763344 0.219718
C41   C     C_3   0.815729 0.170231 0.794742 0.000317
C42   C     C_3   0.814385 0.073263 0.731005 -0.026957
C43   C     C_R   0.716796 0.093081 0.441861 0.613921
C44   C     C_3   0.796433 0.153547 0.705761 -0.058804
C45   C     C_3   0.724347 0.071804 0.762594 0.236789
C46   C     C_3   0.703425 0.149452 0.736476 -0.173013
C47   C     C_1   0.843050 0.183763 0.843061 0.059086
C48   C     C_1   0.782499 0.142020 0.656589 0.058872
C49   C     C_R   0.258587 0.688870 0.609050 0.211805
C50   C     C_3   0.240548 0.600271 0.258273 -0.132363
C51   C     C_3   0.267303 0.689767 0.228638 0.271543
C52   C     C_1   0.309466 0.604678 0.111547 0.077612
C53   C     C_1   0.363107 0.733085 0.378577 0.076814
C54   C     C_3   0.312818 0.559849 0.229707 -0.108405
C55   C     C_R   0.381352 0.783443 0.424601 0.561062
C56   C     C_3   0.339587 0.650571 0.200730 -0.044039
C57   C     C_3   0.419621 0.641824 0.261609 0.248762
C58   C     C_3   0.347974 0.681426 0.289589 0.033222
C59   C     C_3   0.447849 0.731612 0.231867 -0.110447
C60   C     C_R   0.248159 0.673604 0.837780 0.204192
C61   C     C_3   0.374136 0.769605 0.259854 0.286266
C62   C     C_1   0.328065 0.630344 0.151689 0.048284
C63   C     C_1   0.353762 0.704041 0.338597 0.086439
C64   C     C_R   0.355577 0.129311 0.400420 -0.059511
C65   C     C_R   0.415778 0.229616 0.384813 -0.121613
C66   C     C_R   0.400607 0.235794 0.339519 0.239623
C67   C     C_R   0.395447 0.113998 0.443046 0.552803
C68   C     C_R   0.319992 0.142070 0.310346 0.042224
C69   C     C_R   0.254842 0.043250 0.326329 0.195798
C70   C     C_R   0.271766 0.037485 0.371352 -0.102717
C71   C     C_R   0.237804 0.651318 0.881978 0.238126
C72   C     C_R   0.244707 0.084742 0.144359 -0.103431
C73   C     C_R   0.243060 0.108571 0.101021 -0.158732
C74   C     C_R   0.399487 0.293611 0.126175 0.217292
C75   C     C_R   0.400869 0.267898 0.169029 -0.083719
C76   C     C_R   0.321150 0.166006 0.178421 -0.023612
C77   C     C_1   0.313991 0.150617 0.224126 0.007659
C78   C     C_1   0.313616 0.145051 0.263344 0.071018
C79   C     C_R   0.366255 0.733584 0.591582 -0.058364
C80   C     C_R   0.316820 0.214342 0.091725 0.015939
C81   C     C_R   0.770105 0.124002 0.399848 0.002048
C82   C     C_R   0.399025 0.616650 0.877030 0.207769
C83   C     C_R   0.740556 0.041390 0.361619 0.161938
C84   C     C_R   0.793974 0.067681 0.321828 0.276988
C85   C     C_R   0.856813 0.178588 0.317428 -0.040896
C86   C     C_R   0.883023 0.261561 0.354249 -0.173794
C87   C     C_R   0.841316 0.234962 0.395956 0.213620
C88   C     C_R   0.912623 0.313635 0.169843 0.190802
C89   C     C_R   0.916810 0.315121 0.123367 0.234643
C90   C     C_R   0.857428 0.119365 0.110024 0.204256
C91   C     C_R   0.460253 0.743296 0.617832 0.190964
C92   C     C_R   0.848621 0.117561 0.156348 0.223920
C93   C     C_R   0.412076 0.644728 0.833721 0.224314
C94   C     C_R   0.883393 0.216026 0.186370 -0.049918
C95   C     C_1   0.884914 0.214719 0.234009 0.100254
C96   C     C_1   0.878754 0.204664 0.272997 0.066644
C97   C     C_R   0.902356 0.220670 0.093803 -0.064122
C98   C     C_R   0.283475 0.232892 0.921909 0.536392
C99   C     C_R   0.267334 0.549658 0.938663 0.576959
C100  C     C_R   0.942476 0.221078 0.923699 0.552003
C101  C     C_R   0.293004 0.245248 0.049643 0.543256
C102  C     C_R   0.275581 0.558478 0.065195 0.544241
C103  C     C_R   0.449950 0.726108 0.662681 0.204334
C104  C     C_R   0.332570 0.666408 0.813377 -0.075690
C105  C     C_R   0.953706 0.233201 0.050045 0.571633
C106  C     C_3   0.188838 0.768153 0.924923 0.048691
C107  C     C_3   0.250725 0.796083 0.971865 -0.282715
C108  C     C_3   0.281656 0.912226 0.994405 -0.472771
C109  C     C_3   0.264118 0.373158 0.740752 0.071146
C110  C     C_3   0.339536 0.419033 0.702711 -0.281273
C111  C     C_3   0.271031 0.424497 0.663330 -0.433521
C112  C     C_3   0.546902 0.974632 0.789405 0.048519
C113  C     C_3   0.563391 0.035846 0.837534 -0.286280
C114  C     C_3   0.449740 0.006687 0.856579 -0.465679
Cl1   Cl    Cl    0.112478 0.106754 0.686527 -0.508822
Cl2   Cl    Cl    0.495393 0.430396 0.120349 -0.587184
Cl3   Cl    Cl    0.948527 0.436359 0.207002 -0.599117
Cl4   Cl    Cl    0.620261 0.911406 0.359896 -0.581808
Cl5   Cl    Cl    0.132502 0.648800 0.574980 -0.459885
Cl6   Cl    Cl    0.797412 0.991683 0.176917 -0.502844
Cl7   Cl    Cl    0.810245 0.993495 0.073009 -0.469569
Cl8   Cl    Cl    0.593027 0.777487 0.596424 -0.452580
Cl9   Cl    Cl    0.525578 0.647520 0.803917 -0.386155
Cl10  Cl    Cl    0.501196 0.588380 0.900703 -0.419181
Cl11  Cl    Cl    0.568896 0.745945 0.696510 -0.412951
Cl12  Cl    Cl    0.785022 0.364464 0.794792 -0.435481
Cl13  Cl    Cl    0.121131 0.946383 0.766393 -0.353134
Cl14  Cl    Cl    0.998356 0.373881 0.721486 -0.457471
Cl15  Cl    Cl    0.150319 0.704786 0.812504 -0.388922
Cl16  Cl    Cl    0.035605 0.184876 0.784749 -0.506785
Cl17  Cl    Cl    0.165787 0.721176 0.205803 -0.462220
Cl18  Cl    Cl    0.519465 0.608536 0.284269 -0.599449
Cl19  Cl    Cl    0.161191 0.922330 0.289598 -0.588147
Cl20  Cl    Cl    0.117864 0.628723 0.677391 -0.329025
Cr1   Cr    Cr6+3 0.583430 0.162610 0.509470 1.072852
Cr2   Cr    Cr6+3 0.584210 0.916680 0.495400 1.138986
Cr3   Cr    Cr6+3 0.332380 0.920740 0.495100 1.078476
Cr4   Cr    Cr6+3 0.086810 0.177030 0.983130 1.099338
Cr5   Cr    Cr6+3 0.337180 0.419300 0.994610 1.142451
Cr6   Cr    Cr6+3 0.084840 0.422330 0.995830 1.078572
H1    H     H_    0.354310 0.994156 0.721183 0.149819
H2    H     H_    0.183312 0.005071 0.151709 0.179060
H3    H     H_    0.225396 0.958794 0.382543 0.170068
H4    H     H_    0.480756 0.301169 0.406743 0.151639
H5    H     H_    0.460362 0.330054 0.195852 0.164031
H6    H     H_    0.933789 0.346739 0.350307 0.134990
H7    H     H_    0.111749 0.777348 0.928380 0.198914
H8    H     H_    0.242630 0.828582 0.903357 0.134558
H9    H     H_    0.195496 0.736511 0.993280 0.199752
H10   H     H_    0.329704 0.790027 0.969077 0.158502
H11   H     H_    0.338499 0.973378 0.973912 0.147687
H12   H     H_    0.500603 0.181648 0.787522 0.157850
H13   H     H_    0.326340 0.930104 0.028253 0.164517
H14   H     H_    0.203982 0.920169 0.998448 0.158880
H15   H     H_    0.248167 0.438808 0.758257 0.197681
H16   H     H_    0.179485 0.305910 0.727063 0.237463
H17   H     H_    0.410276 0.502418 0.715803 0.239915
H18   H     H_    0.376315 0.366591 0.689359 0.173335
H19   H     H_    0.210076 0.340187 0.646208 0.204553
H20   H     H_    0.328850 0.469400 0.638613 0.172515
H21   H     H_    0.222785 0.467091 0.675296 0.210291
H22   H     H_    0.481226 0.888333 0.788542 0.187202
H23   H     H_    0.498543 0.320741 0.728958 0.185444
H24   H     H_    0.512951 0.006987 0.765203 0.102668
H25   H     H_    0.613044 0.013611 0.859675 0.200163
H26   H     H_    0.610584 0.125815 0.837598 0.165702
H27   H     H_    0.395420 0.022449 0.833995 0.174910
H28   H     H_    0.463925 0.057120 0.890257 0.147378
H29   H     H_    0.405203 0.918632 0.860227 0.158267
H30   H     H_    0.368109 0.975036 0.242064 0.206148
H31   H     H_    0.419867 0.897005 0.207911 0.133342
H32   H     H_    0.558008 0.089876 0.284978 0.167727
H33   H     H_    0.609928 0.007742 0.252601 0.245691
H34   H     H_    0.621623 0.142149 0.724298 0.129479
H35   H     H_    0.578771 0.065335 0.182257 0.185753
H36   H     H_    0.663335 0.184643 0.224160 0.156757
H37   H     H_    0.515954 0.141537 0.211827 0.144115
H38   H     H_    0.560044 0.267043 0.288525 0.122536
H39   H     H_    0.615818 0.333229 0.346202 0.114665
H40   H     H_    0.609679 0.448810 0.267272 0.225781
H41   H     H_    0.665541 0.514583 0.324648 0.210301
H42   H     H_    0.808062 0.446692 0.318962 0.136659
H43   H     H_    0.819745 0.530363 0.276791 0.214745
H44   H     H_    0.751780 0.382782 0.261393 0.186081
H45   H     H_    0.821625 0.000888 0.715115 0.238250
H46   H     H_    0.873048 0.511817 0.108048 0.204315
H47   H     H_    0.782580 0.384166 0.125683 0.150183
H48   H     H_    0.854904 0.421285 0.029361 0.192024
H49   H     H_    0.768686 0.288042 0.045022 0.156328
H50   H     H_    0.620844 0.337264 0.066947 0.189490
H51   H     H_    0.651805 0.356271 0.009751 0.165188
H52   H     H_    0.706716 0.474349 0.053909 0.206706
H53   H     H_    0.772995 0.385528 0.454036 0.173982
H54   H     H_    0.777925 0.367610 0.394393 0.093619
H55   H     H_    0.976740 0.529089 0.465092 0.226593
H56   H     H_    0.156742 0.547080 0.269841 0.185575
H57   H     H_    0.986301 0.510792 0.405176 0.163574
H58   H     H_    0.838797 0.568085 0.393781 0.142571
H59   H     H_    0.959747 0.672294 0.430532 0.169959
H60   H     H_    0.830067 0.587077 0.454071 0.178762
H61   H     H_    0.803395 0.861287 0.260356 0.207927
H62   H     H_    0.722189 0.838355 0.306492 0.228960
H63   H     H_    0.980752 0.990443 0.305650 0.213786
H64   H     H_    0.909564 0.988990 0.355937 0.161931
H65   H     H_    0.839634 0.788794 0.352095 0.162490
H66   H     H_    0.991883 0.866739 0.355859 0.182358
H67   H     H_    0.532447 0.785568 0.221030 0.179164
H68   H     H_    0.913618 0.788166 0.302409 0.213396
H69   H     H_    0.288663 0.473036 0.216564 0.170402
H70   H     H_    0.179508 0.046253 0.075445 0.151793
O1    O     O_R   0.493980 0.188910 0.559650 -0.498362
O2    O     O_R   0.170560 0.527890 0.952050 -0.463221
O3    O     O_R   0.987620 0.318470 0.945550 -0.495638
O4    O     O_R   0.678640 0.153520 0.554450 -0.491565
O5    O     O_R   0.976400 0.159270 0.031530 -0.450820
O6    O     O_R   0.194000 0.188570 0.028560 -0.513541
O7    O     O_R   0.365260 0.335720 0.039020 -0.451416
O8    O     O_R   0.330440 0.515580 0.044910 -0.469223
O9    O     O_R   0.177310 0.536200 0.050190 -0.490833
O10   O     O_R   0.993870 0.326170 0.036530 -0.473783
O11   O     O_3   0.169610 0.339550 0.991190 -0.286325
O12   O     O_R   0.480180 0.824400 0.444640 -0.451806
O13   O     O_R   0.698130 0.004030 0.549500 -0.459880
O14   O     O_R   0.481060 0.827210 0.535360 -0.456223
O15   O     O_R   0.309260 0.811560 0.537660 -0.454587
O16   O     O_R   0.341620 0.023400 0.546290 -0.482723
O17   O     O_R   0.493030 0.185890 0.461780 -0.519917
O18   O     O_R   0.677760 0.150720 0.463730 -0.480263
O19   O     O_R   0.697180 0.001010 0.451640 -0.466403
O20   O     O_3   0.152876 0.657597 0.905567 -0.480556
O21   O     O_3   0.314693 0.342287 0.773422 -0.503319
O22   O     O_3   0.646209 0.972495 0.776437 -0.479769
O23   O     O_R   0.308310 0.808540 0.439800 -0.522258
O24   O     O_3   0.405573 0.879654 0.277472 -0.503901
O25   O     O_3   0.468220 0.332380 0.323444 -0.526972
O26   O     O_3   0.945381 0.412340 0.107617 -0.484620
O27   O     O_3   0.872001 0.316184 0.433363 -0.539215
O28   O     O_3   0.775419 0.988944 0.284295 -0.530194
O29   O     O_R   0.340740 0.020600 0.455570 -0.500031
O30   O     O_3   0.500010 0.000010 0.499990 -0.285497
O31   O     O_R   0.969650 0.150960 0.933380 -0.470789
O32   O     O_R   0.187740 0.180870 0.937580 -0.489146
O33   O     O_R   0.358510 0.327410 0.940870 -0.471040
O34   O     O_R   0.324180 0.507870 0.953930 -0.447008

loop_
_geom_bond_atom_site_label_1
_geom_bond_atom_site_label_2
_ccdc_geom_bond_type
C114  H29   S    
Cr1   O1    S    
C6    O25   S    
C75   C76   A    
C73   C80   A    
C87   O27   S    
C20   C82   A    
C6    H39   S    
C109  O21   S    
C12   H53   S    
C57   Cl18  S    
C66   C68   A    
C35   C36   S    
C111  H21   S    
C21   Cl1   S    
C57   C58   S    
C60   C104  A    
C7    C8    S    
C38   C49   A    
C77   C78   T    
C75   H5    S    
C25   C28   S    
C72   H2    S    
C20   C99   S    
Cr4   O6    S    
C70   H3    S    
C50   C54   S    
Cr1   O17   S    
C18   H65   S    
C105  O5    A    
C83   Cl4   S    
C21   C25   S    
C28   C29   S    
C51   C56   S    
C29   C32   S    
C36   Cl12  S    
C3    O24   S    
C113  H25   S    
C85   C96   S    
Cr6   O11   S    
C57   C59   S    
Cr1   O4    S    
C106  C107  S    
C27   C38   A    
C8    H42   S    
C106  H8    S    
Cr1   O30   S    
C18   H68   S    
C11   H52   S    
C102  O8    A    
C67   O29   A    
C99   O34   A    
C17   H63   S    
C2    C13   T    
C111  H19   S    
C110  C111  S    
Cr3   O15   S    
Cr6   O9    S    
C107  H10   S    
C50   H56   S    
Cr6   O10   S    
C54   H69   S    
C108  H13   S    
C95   C96   T    
C68   C69   A    
C23   C33   T    
C91   Cl8   S    
C51   C61   S    
C7    H40   S    
C10   H48   S    
C107  C108  S    
C46   H34   S    
C20   C71   A    
C36   C46   S    
C45   O22   S    
C64   C70   A    
C37   C47   T    
Cr5   O33   S    
C9    C10   S    
C90   C97   A    
C79   C91   A    
Cr4   O32   S    
C72   C76   A    
C97   C105  S    
C8    H44   S    
C58   C61   S    
C40   C42   S    
C16   O28   S    
C82   C93   A    
C74   C80   A    
C21   C22   S    
C6    H38   S    
C9    O26   S    
C61   O24   S    
C5    H35   S    
C36   C41   S    
C69   C70   A    
C42   C44   S    
C55   O23   A    
C16   H62   S    
C86   H6    S    
C93   C104  A    
C82   Cl10  S    
C112  C113  S    
C81   C83   A    
C44   C46   S    
C17   C18   S    
C54   C56   S    
C99   O2    A    
C53   C55   S    
C68   C78   S    
C90   C92   A    
C112  H24   S    
C14   H57   S    
C88   C94   A    
C100  O3    A    
C59   C61   S    
C10   H49   S    
C74   C75   A    
C7    H41   S    
C112  O22   S    
C50   C58   S    
C64   C67   S    
C73   H70   S    
C114  H27   S    
C84   C85   A    
C14   H55   S    
C9    H46   S    
Cr1   O18   S    
C113  H26   S    
C65   H4    S    
C51   Cl17  S    
C86   C87   A    
C16   C17   S    
C60   C71   A    
C25   C26   S    
C85   C86   A    
C21   C29   S    
C29   C34   S    
C24   C34   T    
C106  H7    S    
C106  O20   S    
C89   C97   A    
C42   C45   S    
Cr3   O29   S    
C17   H64   S    
C111  H20   S    
Cr3   O16   S    
C35   C44   S    
C101  O7    A    
C108  H11   S    
C15   H59   S    
Cr5   O7    S    
C26   C33   S    
C30   H12   S    
C83   C84   A    
Cr2   O14   S    
C67   O17   A    
C105  O10   A    
C52   C102  S    
C92   C94   A    
C50   C51   S    
C41   C47   S    
C108  H14   S    
C76   C77   S    
C19   C79   S    
Cr5   O34   S    
Cr4   O31   S    
C5    H37   S    
C32   H1    S    
C81   C87   A    
C110  H17   S    
C22   C32   S    
Cr6   O3    S    
C55   O12   A    
C35   Cl14  S    
C102  O9    A    
C8    H43   S    
C40   C41   S    
Cr2   O12   S    
C12   C14   S    
C2    C104  S    
C26   C30   S    
C4    H33   S    
Cr2   O30   S    
C43   C81   S    
C5    H36   S    
C56   C62   S    
Cr3   O23   S    
C16   H61   S    
C109  H16   S    
C49   C79   A    
C43   O18   A    
C42   H45   S    
C113  C114  S    
C59   H67   S    
C58   C63   S    
C15   H58   S    
C40   Cl16  S    
C25   O21   S    
C69   Cl19  S    
C4    H32   S    
Cr6   O2    S    
C12   H54   S    
C84   O28   S    
C19   O14   A    
C93   Cl9   S    
C91   C103  A    
C72   C73   A    
C9    H47   S    
C110  H18   S    
C60   Cl15  S    
C43   O19   A    
C3    H30   S    
C114  H28   S    
C6    C7    S    
C112  H22   S    
Cr2   O19   S    
C80   C101  S    
Cr4   O11   S    
C56   C59   S    
C1    O13   A    
C66   O25   S    
C18   H66   S    
C11   H50   S    
C64   C65   A    
Cr3   O30   S    
C28   C30   S    
C35   C40   S    
C19   O15   A    
C24   C31   S    
C44   C48   S    
C52   C62   T    
C74   Cl2   S    
C30   C32   S    
C15   H60   S    
C53   C63   T    
Cr5   O8    S    
C3    H31   S    
C22   Cl13  S    
C49   Cl5   S    
Cr2   O13   S    
C12   O27   S    
C27   C103  A    
C90   Cl7   S    
C71   O20   S    
Cr5   O11   S    
C11   H51   S    
C38   Cl20  S    
C92   Cl6   S    
C94   C95   S    
C109  H15   S    
C98   O32   A    
C10   C11   S    
C1    C39   S    
C89   O26   S    
C107  H9    S    
C45   C46   S    
C4    C5    S    
C23   C98   S    
C31   O1    A    
C88   C89   A    
C65   C66   A    
C22   C26   S    
C31   O16   A    
C1    O4    A    
C41   C45   S    
C14   C15   S    
C13   C27   S    
C98   O33   A    
C101  O6    A    
C88   Cl3   S    
C109  C110  S    
C103  Cl11  S    
Cr4   O5    S    
C37   C100  S    
C100  O31   A    
C3    C4    S    
C28   H23   S    
C39   C48   T    
C54   C57   S    
