data_mof_unit_33603.cif
_audit_creation_date              2012-12-10T17:59:49-0500
_audit_creation_method            fapswitch 2.2
_symmetry_space_group_name_H-M    P1
_symmetry_Int_Tables_number       1
_space_group_crystal_system       triclinic
_cell_length_a                    10.834199
_cell_length_b                    9.517148
_cell_length_c                    15.894536
_cell_angle_alpha                 89.995422
_cell_angle_beta                  90.139481
_cell_angle_gamma                 90.003354
_cell_volume                      1638.89147692

loop_
_atom_site_label
_atom_site_type_symbol
_atom_type_description
_atom_site_fract_x
_atom_site_fract_y
_atom_site_fract_z
_atom_type_partial_charge
C1    C     C_R   0.262062 0.499997 0.499874 0.783085
C2    C     C_R   0.936169 0.627687 0.499371 -0.189988
C3    C     C_R   0.871797 0.500001 0.499919 -0.016408
C4    C     C_R   0.128222 0.499994 0.499750 -0.016482
C5    C     C_R   0.422882 0.074427 0.447975 -0.025655
C6    C     C_R   0.422858 0.925588 0.447995 -0.023761
C7    C     C_R   0.499947 0.499995 0.340202 0.832875
C8    C     C_R   0.577282 0.925580 0.551978 -0.025020
C9    C     C_R   0.577275 0.074416 0.551983 -0.024836
C10   C     C_R   0.737949 0.500002 0.500017 0.782644
C11   C     C_R   0.499958 0.499997 0.659854 0.830342
C12   C     C_3   0.626980 0.513489 0.952584 -0.405684
C13   C     C_3   0.411509 0.624647 0.047454 0.031362
C14   C     C_3   0.447949 0.352111 0.047379 0.028470
C15   C     C_3   0.434551 0.362564 0.949905 -0.422527
C16   C     C_3   0.416701 0.625968 0.949230 -0.360748
C17   C     C_1   0.498564 0.500014 0.749454 -0.187640
C18   C     C_3   0.490613 0.498376 0.082993 0.254353
C19   C     C_3   0.494106 0.500359 0.917038 0.267259
C20   C     C_3   0.280229 0.646571 0.086128 -0.385155
C21   C     C_3   0.170185 0.584336 0.037966 -0.865148
C22   C     C_3   0.333229 0.285330 0.090896 -0.396172
C23   C     C_3   0.624525 0.520872 0.049964 -0.484938
C24   C     C_3   0.368508 0.169109 0.153050 -0.896410
C25   C     C_1   0.496802 0.500122 0.824936 -0.093203
C26   C     C_1   0.495152 0.499200 0.175251 -0.106087
C27   C     C_1   0.497982 0.499867 0.250686 -0.193544
C28   C     C_R   0.063855 0.372307 0.500202 -0.189499
C29   C     C_R   0.063867 0.627684 0.499262 -0.190587
C30   C     C_R   0.936157 0.372310 0.500313 -0.190075
Cu1   Cu    Cu3+1 0.500020 0.640660 0.500000 0.939659
Cu2   Cu    Cu3+1 0.500020 0.359340 0.500000 0.939714
H1    H     H_    0.324261 0.622650 0.919465 0.181165
H2    H     H_    0.687979 0.439834 0.076222 0.174909
H3    H     H_    0.672425 0.609423 0.927251 0.172006
H4    H     H_    0.682938 0.421422 0.932428 0.172432
H5    H     H_    0.111877 0.272471 0.500536 0.148141
H6    H     H_    0.111898 0.727519 0.498819 0.147922
H7    H     H_    0.888132 0.272472 0.500750 0.147988
H8    H     H_    0.888153 0.727526 0.499027 0.148162
H9    H     H_    0.361085 0.130527 0.406278 0.118710
H10   H     H_    0.361003 0.869497 0.406344 0.116618
H11   H     H_    0.191017 0.479852 0.011356 0.250869
H12   H     H_    0.336172 0.359611 0.930017 0.160468
H13   H     H_    0.090271 0.573750 0.081126 0.238917
H14   H     H_    0.141791 0.655683 0.986129 0.241563
H15   H     H_    0.277845 0.607406 0.151819 0.199047
H16   H     H_    0.262919 0.761520 0.091195 0.194032
H17   H     H_    0.414638 0.081252 0.119521 0.244808
H18   H     H_    0.431346 0.210205 0.202502 0.269195
H19   H     H_    0.284085 0.127695 0.183822 0.244426
H20   H     H_    0.279744 0.364894 0.126029 0.235627
H21   H     H_    0.270046 0.237640 0.043713 0.202662
H22   H     H_    0.639209 0.869480 0.593571 0.116777
H23   H     H_    0.639195 0.130514 0.593582 0.116700
H24   H     H_    0.525973 0.277602 0.057954 0.163385
H25   H     H_    0.462218 0.720949 0.067781 0.107958
H26   H     H_    0.479982 0.269968 0.920386 0.151341
H27   H     H_    0.459477 0.726074 0.927663 0.136302
H28   H     H_    0.660915 0.624523 0.071003 0.176299
N1    N     N_R   0.500030 0.852070 0.500020 -0.155701
N2    N     N_R   0.500030 0.147930 0.500020 -0.155748
O1    O     O_R   0.319660 0.618740 0.500000 -0.589950
O2    O     O_R   0.319660 0.381260 0.500000 -0.589248
O3    O     O_R   0.500020 0.618840 0.379440 -0.577549
O4    O     O_R   0.500020 0.381160 0.379440 -0.577647
O5    O     O_R   0.680370 0.618830 0.500010 -0.589607
O6    O     O_R   0.680370 0.381170 0.500010 -0.589670
O7    O     O_R   0.500010 0.618730 0.620560 -0.576882
O8    O     O_R   0.500010 0.381270 0.620560 -0.576626

loop_
_geom_bond_atom_site_label_1
_geom_bond_atom_site_label_2
_ccdc_geom_bond_type
C29   H6    S    
C5    N2    A    
C3    C30   A    
C14   H24   S    
C11   O7    A    
C9    H23   S    
C6    N1    A    
C10   O6    A    
C16   H1    S    
C7    O3    A    
Cu1   O1    S    
C14   C18   S    
C7    C27   S    
C4    C29   A    
C18   C26   S    
C8    N1    A    
Cu2   O6    S    
C1    C4    S    
C17   C25   T    
C14   C22   S    
C24   H19   S    
C28   C30   A    
C2    C3    A    
C11   O8    A    
Cu2   N2    S    
Cu1   N1    S    
C3    C10   S    
C10   O5    A    
C7    O4    A    
C15   C19   S    
C12   C23   S    
C26   C27   T    
C20   H16   S    
C28   H5    S    
C2    C29   A    
C5    C6    A    
C1    O1    A    
C12   C19   S    
Cu2   O4    S    
C4    C28   A    
C15   H12   S    
C22   H21   S    
C21   H13   S    
C16   C19   S    
C9    N2    A    
C24   H18   S    
C23   H28   S    
C19   C25   S    
C15   H26   S    
C22   C24   S    
C20   H15   S    
C12   H4    S    
Cu1   O5    S    
C18   C23   S    
C1    O2    A    
C2    H8    S    
Cu1   O7    S    
C13   H25   S    
C20   C21   S    
Cu2   O2    S    
C24   H17   S    
C13   C18   S    
C21   H14   S    
C6    H10   S    
C13   C16   S    
C8    H22   S    
C30   H7    S    
Cu1   O3    S    
C5    H9    S    
C14   C15   S    
C11   C17   S    
C23   H2    S    
Cu2   O8    S    
C13   C20   S    
C22   H20   S    
C21   H11   S    
Cu1   Cu2   S    
C8    C9    A    
C12   H3    S    
C16   H27   S    
