data_mof_unit_22620.cif
_audit_creation_date              2012-12-11T15:08:29-0500
_audit_creation_method            fapswitch 2.2
_symmetry_space_group_name_H-M    P1
_symmetry_Int_Tables_number       1
_space_group_crystal_system       triclinic
_cell_length_a                    25.895578
_cell_length_b                    27.561902
_cell_length_c                    8.47158
_cell_angle_alpha                 89.999646
_cell_angle_beta                  96.208644
_cell_angle_gamma                 90.031575
_cell_volume                      6010.96720145

loop_
_atom_site_label
_atom_site_type_symbol
_atom_type_description
_atom_site_fract_x
_atom_site_fract_y
_atom_site_fract_z
_atom_type_partial_charge
Ba1   Ba    Ba6+2 0.999910 0.465960 0.844870 1.632455
Ba2   Ba    Ba6+2 0.999910 0.534040 0.344870 1.633247
Ba3   Ba    Ba6+2 0.499910 0.965960 0.844870 1.632483
Ba4   Ba    Ba6+2 0.499910 0.034040 0.344870 1.633314
C1    C     C_3   0.040283 0.239250 0.634316 -0.358774
C2    C     C_R   0.844224 0.641549 0.601930 -0.131039
C3    C     C_3   0.515023 0.211244 0.113277 0.366013
C4    C     C_R   0.914786 0.383290 0.296940 -0.284327
C5    C     C_R   0.914484 0.616479 0.797125 -0.287044
C6    C     C_R   0.414789 0.883292 0.296945 -0.284334
C7    C     C_R   0.414487 0.116481 0.797114 -0.286910
C8    C     C_3   0.249758 0.415268 0.902378 0.206142
C9    C     C_3   0.249144 0.586567 0.409062 0.198822
C10   C     C_3   0.749784 0.915253 0.902538 0.206389
C11   C     C_3   0.749098 0.086686 0.408864 0.198456
C12   C     C_3   0.119101 0.762782 0.714630 0.207589
C13   C     C_R   0.344733 0.857858 0.101532 -0.129300
C14   C     C_3   0.194393 0.290134 0.169341 0.188791
C15   C     C_3   0.619077 0.262795 0.714665 0.207623
C16   C     C_3   0.694405 0.790142 0.169355 0.188741
C17   C     C_R   0.344228 0.141551 0.601920 -0.131134
C18   C     C_R   0.834479 0.317534 0.197150 -0.013656
C19   C     C_R   0.833247 0.681402 0.698551 -0.012248
C20   C     C_R   0.334488 0.817530 0.197147 -0.013656
C21   C     C_R   0.333250 0.181405 0.698540 -0.012246
C22   C     C_R   0.864159 0.311848 0.345727 -0.133709
C23   C     C_R   0.862814 0.686971 0.847576 -0.134286
C24   C     C_R   0.364165 0.811847 0.345727 -0.133718
C25   C     C_3   0.038581 0.761464 0.139207 -0.372681
C26   C     C_R   0.362818 0.186974 0.847564 -0.134240
C27   C     C_R   0.903137 0.345443 0.397254 0.007041
C28   C     C_R   0.902403 0.653948 0.898034 0.007811
C29   C     C_R   0.403141 0.845443 0.397257 0.007041
C30   C     C_R   0.402407 0.153951 0.898022 0.007810
C31   C     C_R   0.797582 0.232666 0.158980 -0.078453
C32   C     C_R   0.795098 0.765944 0.676690 -0.086968
C33   C     C_R   0.297595 0.732660 0.159030 -0.078436
C34   C     C_R   0.295101 0.265946 0.676669 -0.086989
C35   C     C_R   0.256268 0.700723 0.112759 -0.079163
C36   C     C_3   0.540289 0.739254 0.634346 -0.358774
C37   C     C_R   0.254238 0.298177 0.630529 -0.098737
C38   C     C_R   0.756253 0.200732 0.112705 -0.079206
C39   C     C_R   0.754237 0.798176 0.630550 -0.098733
C40   C     C_R   0.206737 0.718599 0.056838 0.105764
C41   C     C_R   0.206364 0.281189 0.556496 0.073720
C42   C     C_R   0.706718 0.218611 0.056847 0.105779
C43   C     C_R   0.706364 0.781189 0.556503 0.073729
C44   C     C_R   0.199501 0.769214 0.052778 -0.029929
C45   C     C_R   0.200417 0.230844 0.531909 -0.042666
C46   C     C_R   0.699482 0.269226 0.052839 -0.029910
C47   C     C_3   0.538472 0.261538 0.138870 -0.372648
C48   C     C_R   0.700417 0.730845 0.531904 -0.042657
C49   C     C_R   0.740974 0.301111 0.095148 -0.085858
C50   C     C_R   0.741465 0.698644 0.576449 -0.095450
C51   C     C_R   0.240990 0.801101 0.095088 -0.085856
C52   C     C_R   0.241467 0.198644 0.576453 -0.095445
C53   C     C_3   0.983043 0.289498 0.081334 0.358840
C54   C     C_3   0.981890 0.710553 0.584853 0.343524
C55   C     C_3   0.483051 0.789494 0.081372 0.358823
C56   C     C_3   0.481826 0.210494 0.584315 0.343795
C57   C     C_R   0.790682 0.283316 0.148098 0.061805
C58   C     C_R   0.884960 0.390781 0.151172 0.061570
C59   C     C_R   0.789514 0.715725 0.648992 0.062619
C60   C     C_R   0.290695 0.783310 0.148092 0.061804
C61   C     C_R   0.289517 0.215726 0.648983 0.062606
C62   C     C_R   0.134807 0.690552 0.848882 0.364558
C63   C     C_R   0.137238 0.312183 0.342942 0.354206
C64   C     C_R   0.634790 0.190560 0.848878 0.364532
C65   C     C_R   0.637242 0.812187 0.342944 0.354224
C66   C     C_R   0.094030 0.657801 0.798232 -0.039918
C67   C     C_R   0.096312 0.344484 0.293971 -0.016821
C68   C     C_R   0.594028 0.157796 0.798200 -0.039811
C69   C     C_R   0.884711 0.608972 0.651367 0.061567
C70   C     C_R   0.596317 0.844488 0.293970 -0.016858
C71   C     C_R   0.110733 0.612525 0.046389 0.109482
C72   C     C_R   0.111603 0.388242 0.544416 0.105658
C73   C     C_R   0.610728 0.112521 0.046362 0.109469
C74   C     C_R   0.611601 0.888242 0.544425 0.105715
C75   C     C_R   0.151013 0.645127 0.096781 -0.198462
C76   C     C_R   0.151421 0.355279 0.595614 -0.192110
C77   C     C_R   0.650989 0.145141 0.096791 -0.198408
C78   C     C_R   0.651420 0.855279 0.595624 -0.192097
C79   C     C_R   0.162890 0.684838 0.001310 -0.065493
C80   C     C_R   0.384963 0.890781 0.151174 0.061571
C81   C     C_R   0.163816 0.316045 0.498621 -0.082786
C82   C     C_R   0.662868 0.184851 0.001316 -0.065541
C83   C     C_R   0.663817 0.816047 0.498628 -0.082811
C84   C     C_R   0.080101 0.621585 0.902399 -0.307872
C85   C     C_R   0.081979 0.380232 0.398425 -0.320342
C86   C     C_R   0.580114 0.121564 0.902331 -0.308078
C87   C     C_R   0.581983 0.880235 0.398422 -0.320391
C88   C     C_3   0.958789 0.239463 0.057601 -0.361734
C89   C     C_3   0.957263 0.760291 0.557491 -0.378487
C90   C     C_3   0.458796 0.739460 0.057606 -0.361734
C91   C     C_R   0.384713 0.108974 0.651358 0.061507
C92   C     C_3   0.457220 0.260250 0.557196 -0.378571
C93   C     C_3   0.160976 0.471158 0.160300 0.381064
C94   C     C_3   0.158183 0.530197 0.659331 0.384085
C95   C     C_3   0.660978 0.971160 0.160325 0.381270
C96   C     C_3   0.658290 0.030159 0.659312 0.383999
C97   C     C_3   0.211898 0.447436 0.115298 0.452653
C98   C     C_3   0.208346 0.556340 0.619123 0.439097
C99   C     C_3   0.711906 0.947436 0.115402 0.452738
C100  C     C_3   0.708509 0.056188 0.618958 0.438437
C101  C     C_3   0.851942 0.530998 0.966507 0.314161
C102  C     C_R   0.844727 0.357861 0.101535 -0.129300
C103  C     C_3   0.852364 0.468756 0.466805 0.315097
C104  C     C_3   0.351943 0.030998 0.966502 0.314160
C105  C     C_3   0.352364 0.968757 0.466805 0.315100
C106  C     C_3   0.802977 0.561875 0.948750 -0.391174
C107  C     C_3   0.803520 0.437659 0.448106 -0.393285
C108  C     C_3   0.302979 0.061877 0.948752 -0.391151
C109  C     C_3   0.303520 0.937659 0.448102 -0.393290
C110  C     C_3   0.016093 0.289263 0.609685 0.347253
C111  C     C_3   0.015107 0.711173 0.113774 0.366188
C112  C     C_3   0.516098 0.789267 0.609720 0.347267
H1    H     H_    0.040585 0.315456 0.684378 0.082832
H2    H     H_    0.867235 0.472464 0.349789 0.012141
H3    H     H_    0.482079 0.288244 0.621945 0.099114
H4    H     H_    0.128580 0.460016 0.072942 0.092340
H5    H     H_    0.126157 0.540311 0.569933 0.097354
H6    H     H_    0.628587 0.959997 0.072983 0.092280
H7    H     H_    0.626261 0.040293 0.569938 0.097540
H8    H     H_    0.259727 0.507703 0.143510 0.200141
H9    H     H_    0.258222 0.474407 0.311660 0.169723
H10   H     H_    0.259089 0.499381 0.677376 0.207590
H11   H     H_    0.253893 0.538926 0.829114 0.158084
H12   H     H_    0.759719 0.007716 0.143591 0.200141
H13   H     H_    0.366484 0.027250 0.849018 0.012437
H14   H     H_    0.758215 0.974432 0.311755 0.169450
H15   H     H_    0.759151 0.998996 0.674377 0.206919
H16   H     H_    0.754077 0.037838 0.827929 0.159253
H17   H     H_    0.241620 0.377258 0.936105 -0.006756
H18   H     H_    0.289489 0.426187 0.952727 0.042455
H19   H     H_    0.248792 0.416445 0.771338 0.050563
H20   H     H_    0.288805 0.577436 0.464543 0.046004
H21   H     H_    0.239059 0.624537 0.437978 0.027176
H22   H     H_    0.249783 0.584460 0.278680 0.048975
H23   H     H_    0.741635 0.877245 0.936216 -0.006836
H24   H     H_    0.367235 0.972464 0.349790 0.012145
H25   H     H_    0.789505 0.926161 0.952950 0.042414
H26   H     H_    0.748846 0.916435 0.771518 0.050560
H27   H     H_    0.788772 0.077420 0.464001 0.045907
H28   H     H_    0.739123 0.124648 0.438322 0.027479
H29   H     H_    0.749643 0.084703 0.278397 0.049030
H30   H     H_    0.140547 0.796632 0.749260 0.031139
H31   H     H_    0.083605 0.761493 0.778581 -0.022793
H32   H     H_    0.107219 0.765711 0.585302 0.097566
H33   H     H_    0.229634 0.289382 0.256496 0.020095
H34   H     H_    0.190031 0.326576 0.113706 0.033940
H35   H     H_    0.881496 0.549228 0.051285 0.063141
H36   H     H_    0.200513 0.263844 0.073977 0.072352
H37   H     H_    0.640508 0.296644 0.749420 0.031091
H38   H     H_    0.583562 0.261482 0.778521 -0.022730
H39   H     H_    0.607223 0.265753 0.585330 0.097521
H40   H     H_    0.729635 0.789414 0.256508 0.020062
H41   H     H_    0.690036 0.826571 0.113671 0.033984
H42   H     H_    0.700540 0.763848 0.074057 0.072356
H43   H     H_    0.181040 0.463119 0.397529 0.196202
H44   H     H_    0.117209 0.470956 0.341812 0.167059
H45   H     H_    0.174225 0.535446 0.897232 0.195804
H46   H     H_    0.881772 0.450692 0.552385 0.064107
H47   H     H_    0.110764 0.530451 0.831969 0.164932
H48   H     H_    0.681022 0.963212 0.397581 0.195969
H49   H     H_    0.617189 0.970970 0.341781 0.166949
H50   H     H_    0.674494 0.035670 0.897188 0.195326
H51   H     H_    0.611016 0.030414 0.832344 0.165083
H52   H     H_    0.381499 0.049227 0.051273 0.063150
H53   H     H_    0.381771 0.950693 0.552386 0.064105
H54   H     H_    0.773063 0.544704 0.862627 0.122434
H55   H     H_    0.773832 0.454532 0.360638 0.121778
H56   H     H_    0.273062 0.044705 0.862643 0.122430
H57   H     H_    0.039383 0.685296 0.190317 0.085342
H58   H     H_    0.273832 0.954532 0.360632 0.121781
H59   H     H_    0.811461 0.598528 0.905203 0.066942
H60   H     H_    0.812331 0.400929 0.405840 0.066836
H61   H     H_    0.311463 0.098528 0.905189 0.066941
H62   H     H_    0.312331 0.900929 0.405836 0.066834
H63   H     H_    0.787458 0.565512 0.065396 0.126869
H64   H     H_    0.787564 0.434215 0.564145 0.126412
H65   H     H_    0.287465 0.065518 0.065403 0.126874
H66   H     H_    0.287563 0.934215 0.564139 0.126410
H67   H     H_    0.015883 0.298930 0.482210 -0.060192
H68   H     H_    0.540585 0.815458 0.684436 0.082856
H69   H     H_    0.015892 0.701410 0.986801 -0.076536
H70   H     H_    0.515896 0.798938 0.482253 -0.060197
H71   H     H_    0.515661 0.201583 0.986181 -0.076510
H72   H     H_    0.080476 0.239824 0.600183 0.068582
H73   H     H_    0.016180 0.788042 0.060616 0.105135
H74   H     H_    0.580485 0.739830 0.600241 0.068582
H75   H     H_    0.515807 0.288201 0.061272 0.105472
H76   H     H_    0.041613 0.228519 0.761036 0.149720
H77   H     H_    0.079375 0.761010 0.110664 0.054700
H78   H     H_    0.541611 0.728517 0.761057 0.149723
H79   H     H_    0.539403 0.185335 0.189345 0.084751
H80   H     H_    0.579139 0.261209 0.109104 0.054435
H81   H     H_    0.918732 0.240058 0.092737 0.066989
H82   H     H_    0.918514 0.760665 0.602249 0.073022
H83   H     H_    0.418745 0.740050 0.092777 0.066990
H84   H     H_    0.418392 0.260561 0.601433 0.073091
H85   H     H_    0.173993 0.638869 0.208999 0.107842
H86   H     H_    0.173165 0.360610 0.710452 0.107725
H87   H     H_    0.673954 0.138898 0.209042 0.108012
H88   H     H_    0.673164 0.860610 0.710462 0.107772
H89   H     H_    0.263227 0.662004 0.118334 0.044993
H90   H     H_    0.212469 0.409407 0.160542 -0.025431
H91   H     H_    0.260633 0.336638 0.648887 0.044628
H92   H     H_    0.763215 0.162013 0.118222 0.044968
H93   H     H_    0.760631 0.836636 0.648918 0.044603
H94   H     H_    0.835234 0.217738 0.200970 0.060078
H95   H     H_    0.831576 0.780502 0.731298 0.059249
H96   H     H_    0.335243 0.717735 0.201064 0.060082
H97   H     H_    0.331580 0.280505 0.731266 0.059249
H98   H     H_    0.821095 0.364015 0.989905 0.085059
H99   H     H_    0.821066 0.635457 0.489461 0.083715
H100  H     H_    0.321103 0.864010 0.989898 0.085060
H101  H     H_    0.204667 0.595126 0.654775 0.016847
H102  H     H_    0.321068 0.135459 0.489453 0.083741
H103  H     H_    0.161454 0.784283 0.018743 0.045877
H104  H     H_    0.163914 0.216288 0.477609 0.103348
H105  H     H_    0.661433 0.284298 0.018845 0.045860
H106  H     H_    0.663915 0.716290 0.477593 0.103351
H107  H     H_    0.733910 0.339835 0.089916 0.058714
H108  H     H_    0.735312 0.660191 0.556117 0.064148
H109  H     H_    0.233926 0.839824 0.089816 0.058711
H110  H     H_    0.235314 0.160190 0.556131 0.064153
H111  H     H_    0.855343 0.282729 0.424383 0.080393
H112  H     H_    0.712481 0.909412 0.160689 -0.025525
H113  H     H_    0.853606 0.715605 0.927443 0.073194
H114  H     H_    0.355351 0.782728 0.424384 0.080400
H115  H     H_    0.353610 0.215607 0.927432 0.073156
H116  H     H_    0.049310 0.596486 0.862212 0.080461
H117  H     H_    0.051237 0.405367 0.358339 0.081678
H118  H     H_    0.549347 0.096444 0.862101 0.080538
H119  H     H_    0.551242 0.905371 0.358335 0.081667
H120  H     H_    0.017115 0.212186 0.559692 0.110339
H121  H     H_    0.038059 0.772730 0.264873 0.142481
H122  H     H_    0.517127 0.712192 0.559698 0.110338
H123  H     H_    0.705116 0.094915 0.655553 0.016925
H124  H     H_    0.538318 0.272603 0.264871 0.142381
H125  H     H_    0.944701 0.409168 0.337971 0.064379
H126  H     H_    0.944689 0.590865 0.837661 0.064546
H127  H     H_    0.444700 0.909171 0.337979 0.064386
H128  H     H_    0.444691 0.090866 0.837654 0.064519
H129  H     H_    0.958344 0.315677 0.007308 0.077770
H130  H     H_    0.955888 0.683336 0.520143 0.082178
H131  H     H_    0.458348 0.815678 0.007384 0.077733
H132  H     H_    0.455884 0.183325 0.519112 0.082661
H133  H     H_    0.983638 0.299246 0.208895 -0.065998
H134  H     H_    0.866486 0.527251 0.849025 0.012441
H135  H     H_    0.985225 0.702933 0.714446 -0.064396
H136  H     H_    0.483656 0.799231 0.208944 -0.065982
H137  H     H_    0.485021 0.202756 0.713822 -0.064488
H138  H     H_    0.957121 0.228657 0.930868 0.145415
H139  H     H_    0.952450 0.768912 0.428712 0.149499
H140  H     H_    0.457116 0.728667 0.930863 0.145426
H141  H     H_    0.452583 0.269008 0.428509 0.149523
H142  H     H_    0.982120 0.212457 0.131892 0.114433
H143  H     H_    0.982201 0.788342 0.621630 0.099173
H144  H     H_    0.482132 0.712448 0.131846 0.114443
N1    N     N_3   0.258561 0.472484 0.188705 -0.508186
N2    N     N_3   0.255457 0.535963 0.706786 -0.506931
N3    N     N_3   0.758560 0.972499 0.188810 -0.508207
N4    N     N_3   0.755613 0.035436 0.705512 -0.507117
N5    N     N_3   0.150505 0.453243 0.313529 -0.572875
N6    N     N_3   0.145421 0.547234 0.810905 -0.572523
N7    N     N_3   0.650508 0.953281 0.313597 -0.572921
N8    N     N_3   0.645587 0.047276 0.810879 -0.572268
O1    O     O_2   0.898940 0.431940 0.867860 -0.457562
O2    O     O_3   0.030789 0.710300 0.527033 -0.609535
O3    O     O_3   0.533478 0.788647 0.034376 -0.574484
O4    O     O_3   0.530802 0.210306 0.526988 -0.609599
O5    O     O_3   0.058810 0.523750 0.066650 -0.509598
O6    O     O_3   0.058810 0.476250 0.566650 -0.510504
O7    O     O_3   0.558810 0.023750 0.066650 -0.509651
O8    O     O_3   0.558810 0.976250 0.566650 -0.510482
O9    O     O_3   0.941140 0.476130 0.123050 -0.493957
O10   O     O_3   0.941140 0.523870 0.623050 -0.494575
O11   O     O_3   0.441140 0.976130 0.123050 -0.493964
O12   O     O_2   0.898940 0.568060 0.367860 -0.456148
O13   O     O_3   0.441140 0.023870 0.623050 -0.494567
O14   O     O_3   0.982430 0.389880 0.635700 -0.491760
O15   O     O_3   0.982430 0.610120 0.135700 -0.491689
O16   O     O_3   0.482430 0.889880 0.635700 -0.491769
O17   O     O_3   0.482430 0.110120 0.135700 -0.491609
O18   O     O_2   0.895881 0.351109 0.723307 -0.479309
O19   O     O_2   0.895411 0.648101 0.223470 -0.480159
O20   O     O_2   0.395882 0.851109 0.723308 -0.479301
O21   O     O_2   0.395397 0.148081 0.223433 -0.480270
O22   O     O_3   0.839180 0.485416 0.023181 -0.635786
O23   O     O_2   0.398940 0.931940 0.867860 -0.457563
O24   O     O_3   0.839304 0.514351 0.522709 -0.635329
O25   O     O_3   0.339180 0.985416 0.023183 -0.635787
O26   O     O_3   0.339303 0.014351 0.522709 -0.635319
O27   O     O_3   0.965440 0.288450 0.654873 -0.598329
O28   O     O_3   0.964029 0.711545 0.155303 -0.597256
O29   O     O_3   0.465442 0.788449 0.654878 -0.598332
O30   O     O_3   0.464021 0.211531 0.155392 -0.597211
O31   O     O_2   0.100770 0.431440 0.821660 -0.446009
O32   O     O_2   0.100770 0.568560 0.321660 -0.448306
O33   O     O_2   0.600770 0.931440 0.821660 -0.445936
O34   O     O_2   0.398940 0.068060 0.367860 -0.456153
O35   O     O_2   0.600770 0.068560 0.321660 -0.448069
O36   O     O_3   0.017130 0.389790 0.053700 -0.494881
O37   O     O_3   0.017130 0.610210 0.553700 -0.487758
O38   O     O_3   0.517130 0.889790 0.053700 -0.494887
O39   O     O_3   0.517130 0.110210 0.553700 -0.487853
O40   O     O_2   0.103070 0.350990 0.965601 -0.480217
O41   O     O_2   0.103693 0.649416 0.471554 -0.463005
O42   O     O_2   0.603071 0.850992 0.965600 -0.480222
O43   O     O_2   0.603697 0.149407 0.471536 -0.462689
O44   O     O_3   0.211738 0.447508 0.948470 -0.627764
O45   O     O_3   0.165051 0.479696 0.665656 -0.619674
O46   O     O_3   0.211942 0.553221 0.454173 -0.627140
O47   O     O_3   0.711756 0.947491 0.948583 -0.627685
O48   O     O_3   0.711841 0.053379 0.453817 -0.627161
O49   O     O_3   0.153143 0.722829 0.742450 -0.641073
O50   O     O_3   0.149654 0.276160 0.239571 -0.640333
O51   O     O_3   0.653121 0.222843 0.742455 -0.641060
O52   O     O_3   0.649661 0.776166 0.239571 -0.640322
O53   O     O_3   0.165883 0.521821 0.167296 -0.622692
O54   O     O_3   0.665076 0.979652 0.665794 -0.619794
O55   O     O_3   0.665881 0.021824 0.167181 -0.622594
O56   O     O_3   0.033474 0.288646 0.034370 -0.574489
P1    P     P_3+3 0.893960 0.447890 0.040050 0.984580
P2    P     P_3+3 0.062704 0.656632 0.589586 0.973320
P3    P     P_3+3 0.563557 0.843963 0.088112 0.991504
P4    P     P_3+3 0.562706 0.156632 0.589555 0.973624
P5    P     P_3+3 0.935310 0.655564 0.102313 0.944105
P6    P     P_3+3 0.935820 0.344018 0.601989 0.943579
P7    P     P_3+3 0.435304 0.155558 0.102312 0.944011
P8    P     P_3+3 0.435821 0.844018 0.601993 0.943591
P9    P     P_3+3 0.893960 0.552110 0.540050 0.985009
P10   P     P_3+3 0.393960 0.947890 0.040050 0.984577
P11   P     P_3+3 0.393960 0.052110 0.540050 0.984969
P12   P     P_3+3 0.105800 0.447360 0.649510 0.998837
P13   P     P_3+3 0.105800 0.552640 0.149510 0.997285
P14   P     P_3+3 0.605800 0.947360 0.649510 0.998831
P15   P     P_3+3 0.605800 0.052640 0.149510 0.997546
P16   P     P_3+3 0.063555 0.343961 0.088110 0.991529

loop_
_geom_bond_atom_site_label_1
_geom_bond_atom_site_label_2
_ccdc_geom_bond_type
C94   H5    S    
C95   C99   S    
C101  C106  S    
C48   H106  S    
C15   H39   S    
O4    P4    S    
Ba2   O9    S    
Ba3   O8    S    
O8    P14   S    
O24   P9    S    
O19   P5    D    
C50   C59   A    
C53   O56   S    
C78   C83   A    
C96   C100  S    
C31   C38   A    
H51   N8    S    
C98   H101  S    
C23   H113  S    
C2    H99   S    
C92   H141  S    
C75   H85   S    
C8    H19   S    
C98   N2    S    
H14   N3    S    
C63   O50   S    
C110  O27   S    
Ba2   P9    S    
C16   H42   S    
C14   H36   S    
O41   P2    D    
C101  H35   S    
H48   N7    S    
C63   C81   A    
C46   C49   A    
O56   P16   S    
Ba1   P12   S    
C94   C98   S    
Ba3   P10   S    
O36   P16   S    
Ba4   O35   S    
C37   H91   S    
O38   P3    S    
Ba2   O6    S    
C74   C78   A    
C103  H46   S    
C22   H111  S    
C64   C68   A    
C65   C70   A    
O17   P7    S    
C93   N5    S    
C84   H116  S    
C24   C29   A    
C12   H31   S    
C100  O48   S    
C25   H73   S    
O39   P4    S    
C73   P15   S    
C53   H133  S    
O16   P8    S    
C24   H114  S    
C70   P3    S    
C2    C69   A    
C31   H94   S    
C6    H127  S    
C104  O25   S    
C43   C48   A    
C58   C102  A    
C49   H107  S    
C96   N8    S    
C54   O2    S    
Ba4   O17   S    
C98   O46   S    
C111  H69   S    
O5    P13   S    
C39   H93   S    
C37   C41   A    
C71   P13   S    
C100  N4    S    
C1    H72   S    
C14   H34   S    
C71   C75   A    
C40   C44   A    
C58   P1    S    
C4    C58   A    
C44   H103  S    
C10   H26   S    
Ba2   O37   S    
C29   P8    S    
O33   P14   D    
C40   C79   S    
Ba3   P14   S    
C62   C66   A    
C3    H71   S    
C101  H134  S    
Ba2   O12   S    
O34   P11   D    
C25   H77   S    
Ba1   O1    S    
C87   H119  S    
C99   O47   S    
C90   H83   S    
H12   N3    S    
C85   H117  S    
C36   H122  S    
C89   H143  S    
C49   C57   A    
C90   H144  S    
C47   H124  S    
O35   P15   D    
C103  H2    S    
C72   C85   A    
C104  H52   S    
C8    H18   S    
C54   H135  S    
Ba4   P15   S    
C105  H53   S    
C102  H98   S    
C26   C30   A    
C107  H60   S    
O26   P11   S    
C34   C37   A    
C17   C91   A    
C106  H63   S    
C43   C83   S    
C26   H115  S    
O54   P14   S    
C68   C86   A    
C34   C61   A    
C31   C57   A    
Ba4   O34   S    
Ba4   O11   S    
Ba1   O6    S    
C11   H27   S    
Ba3   O16   S    
C112  O29   S    
H47   N6    S    
Ba3   Ba4   S    
C47   H75   S    
C103  O24   S    
C92   H84   S    
C17   C21   A    
O13   P11   S    
C4    C27   A    
C103  C107  S    
C20   C24   A    
C15   O51   S    
Ba3   O7    S    
C108  H65   S    
O25   P10   S    
H11   N2    S    
C30   P7    S    
O37   P2    S    
C13   C80   A    
C9    H22   S    
C51   H109  S    
C111  H57   S    
C18   C57   S    
C39   C43   A    
H8    N1    S    
C94   N6    S    
C112  H68   S    
O14   P6    S    
C6    C29   A    
C107  H55   S    
C110  H1    S    
C97   H90   S    
C62   O49   S    
C95   O55   S    
Ba4   P11   S    
O6    P12   S    
H9    N1    S    
C28   P5    S    
C55   H131  S    
C9    O46   S    
C109  H58   S    
C88   H138  S    
C16   O52   S    
C44   C51   A    
C96   O54   S    
C74   P14   S    
C92   H3    S    
C66   P2    S    
O30   P7    S    
C8    O44   S    
C105  H24   S    
C53   C88   S    
C54   C89   S    
O18   P6    D    
C67   P16   S    
C38   C42   A    
O40   P16   D    
C5    C28   A    
C62   C79   A    
C76   H86   S    
C1    H120  S    
Ba1   O36   S    
C38   H92   S    
C55   C90   S    
C13   H100  S    
C65   C83   A    
H16   N4    S    
C19   C59   S    
C109  H62   S    
C20   C60   S    
Ba4   O7    S    
O45   P12   S    
C73   C86   A    
C72   C76   A    
C54   H130  S    
C1    H76   S    
O32   P13   D    
O43   P4    D    
Ba2   P13   S    
C99   H112  S    
C112  H70   S    
C104  C108  S    
O9    P1    S    
C70   C87   A    
C33   H96   S    
C76   C81   A    
C50   H108  S    
C73   C77   A    
C10   O47   S    
O22   P1    S    
C35   C40   A    
C95   H6    S    
C106  H54   S    
C16   H41   S    
C107  H64   S    
C34   H97   S    
C3    H79   S    
C33   C60   A    
C3    O30   S    
C21   C26   A    
C23   C28   A    
Ba1   O31   S    
Ba2   O32   S    
O20   P8    D    
C88   H142  S    
C89   H139  S    
C68   P4    S    
O23   P10   D    
C96   H7    S    
C3    C47   S    
Ba1   O10   S    
C33   C35   A    
Ba2   O5    S    
C75   C79   A    
C108  H56   S    
C97   O44   S    
O1    P1    D    
C56   H137  S    
Ba3   O38   S    
C94   O45   S    
C63   C67   A    
C32   H95   S    
O12   P9    D    
C110  H67   S    
C18   C22   A    
C15   H38   S    
C14   O50   S    
C32   C39   A    
O15   P5    S    
C108  H61   S    
O29   P8    S    
C100  H123  S    
C46   H105  S    
O55   P15   S    
C97   N1    S    
C1    C110  S    
C64   C82   A    
Ba3   O23   S    
C66   C84   A    
C77   H87   S    
C36   H78   S    
C106  H59   S    
C95   N7    S    
C4    H125  S    
C65   O52   S    
C47   H80   S    
C91   P11   S    
Ba1   O14   S    
O27   P6    S    
C12   O49   S    
C52   C61   A    
C80   P10   S    
O28   P5    S    
C86   H118  S    
H10   N2    S    
C12   H30   S    
Ba1   Ba2   S    
C22   C27   A    
C101  O22   S    
O21   P7    D    
O42   P3    D    
C72   P12   S    
C41   C45   A    
C32   C59   A    
Ba1   O5    S    
C105  C109  S    
C105  O26   S    
C10   H25   S    
H44   N5    S    
C7    H128  S    
O2    P2    S    
C5    C69   A    
O7    P15   S    
C5    H126  S    
C25   H121  S    
C48   C50   A    
C13   C20   A    
C45   H104  S    
Ba4   O8    S    
C21   C61   S    
C53   H129  S    
C93   O53   S    
C11   H29   S    
C69   P9    S    
O31   P12   D    
C18   C102  A    
C9    H21   S    
C41   C81   S    
C90   H140  S    
C11   O48   S    
O53   P13   S    
C109  H66   S    
C67   C85   A    
H45   N6    S    
C51   C60   A    
C77   C82   A    
C55   O3    S    
C56   O4    S    
C104  H13   S    
C56   H132  S    
C19   C23   A    
C17   H102  S    
C9    H20   S    
C88   H81   S    
C14   H33   S    
C56   C92   S    
H15   N4    S    
C7    C91   A    
C99   N3    S    
C16   H40   S    
C64   O51   S    
C111  O28   S    
C7    C30   A    
O10   P9    S    
Ba2   O15   S    
C74   C87   A    
H43   N5    S    
C45   C52   A    
O3    P3    S    
C42   C46   A    
C52   H110  S    
C12   H32   S    
C93   H4    S    
C89   H82   S    
C78   H88   S    
C36   C112  S    
C15   H37   S    
C2    C19   A    
C35   H89   S    
C6    C80   A    
O11   P10   S    
C25   C111  S    
Ba1   P1    S    
Ba4   O39   S    
C11   H28   S    
C71   C84   A    
Ba3   O13   S    
C36   H74   S    
C10   H23   S    
H49   N7    S    
C55   H136  S    
H50   N8    S    
C27   P6    S    
Ba3   O33   S    
C93   C97   S    
C8    H17   S    
C42   C82   S    
