data_mof_unit_47496.cif
_audit_creation_date              2012-12-11T14:29:30-0500
_audit_creation_method            fapswitch 2.2
_symmetry_space_group_name_H-M    P1
_symmetry_Int_Tables_number       1
_space_group_crystal_system       triclinic
_cell_length_a                    6.932467
_cell_length_b                    14.762764
_cell_length_c                    16.275385
_cell_angle_alpha                 90.614322
_cell_angle_beta                  89.322994
_cell_angle_gamma                 90.548682
_cell_volume                      1665.3751551

loop_
_atom_site_label
_atom_site_type_symbol
_atom_type_description
_atom_site_fract_x
_atom_site_fract_y
_atom_site_fract_z
_atom_type_partial_charge
O1    O     O_R   0.494400 0.416610 0.413880 -0.547801
O2    O     O_R   0.823920 0.406790 0.585520 -0.541378
O3    O     O_R   0.994250 0.583390 0.586120 -0.539652
C1    C     C_R   0.651813 0.387818 0.615339 0.717469
O4    O     O_R   0.824110 0.405730 0.414490 -0.518683
O5    O     O_R   0.994440 0.582310 0.413870 -0.541283
C2    C     C_R   0.655220 0.383110 0.387067 0.817612
O6    O     O_R   0.494210 0.417690 0.586130 -0.539685
O7    O     O_3   0.660810 0.557940 0.500000 -0.379148
V1    V     V_3+5 0.935650 0.489250 0.500000 1.457731
O8    O     O_R   0.324160 0.593210 0.414480 -0.550881
C3    C     C_R   0.156401 0.614973 0.386207 0.729185
O9    O     O_R   0.323970 0.594270 0.585510 -0.543098
C4    C     C_R   0.154909 0.616211 0.613895 0.687294
V2    V     V_3+5 0.435660 0.510750 0.500000 1.416957
O10   O     O_3   0.160630 0.442060 0.500000 -0.362370
H1    H     H_    0.380824 0.914526 0.519836 0.117609
C5    C     C_R   0.016970 0.566427 0.776080 -0.151763
C6    C     C_R   0.948964 0.540111 0.853157 -0.131195
C7    C     C_R   0.937380 0.602971 0.917118 -0.119443
C8    C     C_R   0.993654 0.692665 0.904516 -0.134342
C9    C     C_R   0.061286 0.721823 0.826664 0.069316
C10   C     C_R   0.073166 0.657301 0.760975 0.071148
C11   C     C_R   0.120699 0.812979 0.814179 -0.187371
C12   C     C_R   0.192264 0.839385 0.735812 0.070961
C13   C     C_R   0.203905 0.774887 0.670100 0.070174
C14   C     C_R   0.144226 0.683768 0.682559 -0.184990
C15   C     C_R   0.249356 0.930160 0.720784 -0.148550
C16   C     C_R   0.317864 0.956417 0.643765 -0.123534
C17   C     C_R   0.328935 0.893601 0.579757 -0.111388
C18   C     C_R   0.271815 0.804007 0.592276 -0.136922
H2    H     H_    0.026391 0.514386 0.728963 0.106601
H3    H     H_    0.906366 0.470347 0.863425 0.109739
H4    H     H_    0.885821 0.582000 0.977077 0.111950
H5    H     H_    0.984933 0.738399 0.956748 0.105771
H6    H     H_    0.240380 0.982174 0.767930 0.111297
H7    H     H_    0.361220 0.026102 0.633576 0.120559
H8    H     H_    0.280252 0.758304 0.540016 0.105582
C19   C     C_2   0.986800 0.708808 0.283523 -0.126417
C20   C     C_2   0.152282 0.682489 0.319182 -0.313516
H9    H     H_    0.850833 0.680203 0.305246 0.135220
H10   H     H_    0.290141 0.710269 0.299512 0.126496
C21   C     C_2   0.972626 0.775966 0.215585 -0.141447
C22   C     C_2   0.124914 0.814683 0.177109 -0.309417
H11   H     H_    0.828180 0.793487 0.196551 0.134082
H12   H     H_    0.270225 0.797659 0.194644 0.131798
C23   C     C_2   0.694678 0.176338 0.750654 -0.140489
C24   C     C_2   0.635371 0.187595 0.828727 -0.269155
H13   H     H_    0.722588 0.108307 0.727577 0.123287
H14   H     H_    0.635570 0.253728 0.857558 0.108523
C25   C     C_2   0.734011 0.252734 0.693999 -0.148446
C26   C     C_2   0.619879 0.325865 0.685415 -0.021061
H15   H     H_    0.850146 0.242319 0.649596 0.136562
C27   C     C_2   0.777196 0.216546 0.212072 0.067834
C28   C     C_2   0.616159 0.174213 0.183343 -0.376169
H16   H     H_    0.483721 0.178265 0.219638 0.131727
C29   C     C_2   0.771563 0.256146 0.296603 0.028620
C30   C     C_2   0.645665 0.323237 0.314148 -0.350815
H17   H     H_    0.539563 0.340914 0.268480 0.113378
O11   O     O_R   0.770210 0.079270 0.910680 -0.537953
O12   O     O_R   0.440150 0.091160 0.082270 -0.544120
O13   O     O_R   0.269970 0.914530 0.082860 -0.541411
C31   C     C_R   0.609285 0.113660 0.110210 0.742866
O14   O     O_R   0.440480 0.090100 0.911240 -0.541418
O15   O     O_R   0.270310 0.913460 0.910610 -0.536454
C32   C     C_R   0.611949 0.111271 0.883888 0.732718
O16   O     O_R   0.769870 0.080340 0.082930 -0.544050
O17   O     O_3   0.603660 0.938980 0.996790 -0.368902
V3    V     V_3+5 0.328750 0.007610 0.996740 1.402352
O18   O     O_R   0.940600 0.902510 0.911180 -0.538882
C33   C     C_R   0.109734 0.880574 0.882826 0.699407
O19   O     O_R   0.940270 0.903570 0.082200 -0.543062
C34   C     C_R   0.108628 0.881860 0.110409 0.733805
V4    V     V_3+5 0.828770 0.986010 0.996670 1.407477
O20   O     O_3   0.103730 0.054750 0.996710 -0.375885
C35   C     C_3   0.432665 0.340855 0.735024 -0.303586
C36   C     C_3   0.273590 0.273137 0.711826 -0.694364
H18   H     H_    0.242393 0.277471 0.645206 0.229675
H19   H     H_    0.314337 0.202726 0.726233 0.228651
H20   H     H_    0.140074 0.289520 0.747048 0.199935
H21   H     H_    0.454338 0.343103 0.801833 0.161374
H22   H     H_    0.375610 0.409661 0.723646 0.162487
C37   C     C_3   0.965263 0.220930 0.162486 -0.283484
C38   C     C_3   0.092193 0.303251 0.183441 -0.809900
H23   H     H_    0.008198 0.366650 0.178605 0.233098
H24   H     H_    0.151421 0.298172 0.246215 0.217871
H25   H     H_    0.215902 0.306570 0.139544 0.218477
H26   H     H_    0.048514 0.158043 0.172098 0.178084
H27   H     H_    0.932536 0.226568 0.096075 0.190064
C39   C     C_2   0.904073 0.217186 0.358038 0.382406
H28   H     H_    0.023517 0.175518 0.337190 0.037316
O21   O     O_2   0.876215 0.226575 0.431842 -0.538664

loop_
_geom_bond_atom_site_label_1
_geom_bond_atom_site_label_2
_ccdc_geom_bond_type
C28   H16   S    
C6    C7    A    
C38   H25   S    
C1    O6    A    
C29   C30   D    
C23   H13   S    
C36   H18   S    
C12   C15   A    
C13   C14   A    
C1    C26   S    
C15   C16   A    
C38   H24   S    
O5    C3    A    
C17   C18   A    
O17   V4    S    
V2    O10   S    
C5    C6    A    
O11   V4    S    
O12   C31   A    
O8    V2    S    
C38   H23   S    
C23   C24   D    
O17   V3    S    
C28   C31   S    
O18   V4    S    
O13   C34   A    
O18   C33   A    
O1    V2    S    
C10   C14   A    
C4    C14   S    
O7    V1    S    
C2    C30   S    
C7    H4    S    
C20   H10   S    
C37   H26   S    
O11   C32   A    
C13   C18   A    
O9    C4    A    
H1    C17   S    
C27   C37   S    
C22   H12   S    
C36   H19   S    
C37   H27   S    
C31   O16   A    
C29   C39   S    
C5    C10   A    
C11   C12   A    
O19   V4    S    
V4    O20   S    
C35   H22   S    
C19   C20   D    
O4    C2    A    
C23   C25   S    
C30   H17   S    
O15   C33   A    
C25   C26   D    
O13   V3    S    
C25   H15   S    
O14   C32   A    
C3    C20   S    
O2    C1    A    
C21   C22   D    
C16   C17   A    
C39   O21   D    
C37   C38   S    
O16   V4    S    
O14   V3    S    
C35   C36   S    
C21   H11   S    
C15   H6    S    
O3    C4    A    
O6    V2    S    
O9    V2    S    
C6    H3    S    
C9    C11   A    
C5    H2    S    
O2    V1    S    
C36   H20   S    
O12   V3    S    
C27   C28   D    
O1    C2    A    
O19   C34   A    
C26   C35   S    
C35   H21   S    
O5    V1    S    
C19   C21   S    
O8    C3    A    
C8    H5    S    
C18   H8    S    
C12   C13   A    
O4    V1    S    
O3    V1    S    
V1    O10   S    
C39   H28   S    
O15   V3    S    
C24   H14   S    
V3    O20   S    
O7    V2    S    
C22   C34   S    
C7    C8    A    
C19   H9    S    
C16   H7    S    
C9    C10   A    
C24   C32   S    
C8    C9    A    
C11   C33   S    
C27   C29   S    
