data_mof_unit_29012.cif
_audit_creation_date              2012-12-10T19:01:54-0500
_audit_creation_method            fapswitch 2.2
_symmetry_space_group_name_H-M    P1
_symmetry_Int_Tables_number       1
_space_group_crystal_system       triclinic
_cell_length_a                    11.690705
_cell_length_b                    10.850332
_cell_length_c                    9.604641
_cell_angle_alpha                 90.60656
_cell_angle_beta                  88.940893
_cell_angle_gamma                 91.486391
_cell_volume                      1217.64951614

loop_
_atom_site_label
_atom_site_type_symbol
_atom_type_description
_atom_site_fract_x
_atom_site_fract_y
_atom_site_fract_z
_atom_type_partial_charge
C1    C     C_R   0.497236 0.262587 0.499206 0.815245
C2    C     C_R   0.484497 0.129499 0.497343 -0.103416
C3    C     C_R   0.482459 0.062808 0.371161 -0.196171
C4    C     C_R   0.483631 0.934223 0.372368 -0.162661
C5    C     C_R   0.487110 0.871079 0.499666 -0.096993
C6    C     C_R   0.471877 0.938536 0.623171 0.118822
C7    C     C_3   0.537178 0.939890 0.755486 -0.492269
C8    C     C_3   0.534635 0.079235 0.753620 -0.416617
C9    C     C_R   0.593169 0.543875 0.071651 0.205526
C10   C     C_R   0.415146 0.443660 0.078644 -0.125834
C11   C     C_R   0.413388 0.441361 0.931130 0.469456
C12   C     C_R   0.284149 0.500081 0.500883 0.850330
C13   C     C_R   0.593722 0.541712 0.924520 0.110832
C14   C     C_3   0.647097 0.666484 0.914949 -0.521660
C15   C     C_3   0.642916 0.672612 0.073071 0.263105
C16   C     C_R   0.498284 0.737749 0.500438 0.822317
C17   C     C_R   0.715828 0.499534 0.499060 0.846632
C18   C     C_1   0.162390 0.499910 0.502031 -0.097538
C19   C     C_1   0.059870 0.499656 0.500867 0.034183
C20   C     C_1   0.940088 0.499339 0.498707 0.040588
C21   C     C_1   0.837574 0.499224 0.497705 -0.107195
C22   C     C_R   0.470595 0.065442 0.621591 0.199316
Cu1   Cu    Cu3+1 0.499990 0.499980 0.640670 1.025122
Cu2   Cu    Cu3+1 0.500010 0.500020 0.359330 1.003572
N1    N     N_R   0.500710 0.500930 0.147930 -0.255073
N2    N     N_R   0.500710 0.500890 0.852020 -0.242739
O1    O     O_R   0.500000 0.319640 0.618810 -0.547570
O2    O     O_R   0.500010 0.319680 0.381230 -0.593097
O3    O     O_R   0.337190 0.499990 0.618790 -0.490488
O4    O     O_R   0.337200 0.500030 0.381210 -0.596320
O5    O     O_R   0.499990 0.680320 0.618770 -0.588291
O6    O     O_R   0.500000 0.680360 0.381190 -0.575054
O7    O     O_R   0.662800 0.499970 0.618790 -0.591040
O8    O     O_R   0.662810 0.500010 0.381210 -0.512646
H1    H     H_    0.486208 0.109375 0.271924 0.179913
H2    H     H_    0.588647 0.730356 0.866752 0.179924
S1    S     S_3+6 0.782063 0.686073 0.147835 0.027572
O9    O     O_2   0.838685 0.563200 0.145957 -0.269929
O10   O     O_2   0.854596 0.777170 0.066129 -0.265625
O11   O     O_3   0.768331 0.737852 0.312704 -0.546100
H3    H     H_    0.847736 0.749790 0.345440 0.367764
H4    H     H_    0.582389 0.741702 0.114765 0.088696
H5    H     H_    0.487425 0.885341 0.273688 0.167726
H6    H     H_    0.485505 0.900664 0.843457 0.207644
H7    H     H_    0.625120 0.904617 0.740964 0.213752
H8    H     H_    0.481380 0.118868 0.839237 0.231975
H9    H     H_    0.620652 0.123840 0.738577 0.199707
H10   H     H_    0.346164 0.402005 0.139508 0.210166
S2    S     S_3+6 0.287196 0.365774 0.866020 0.015978
O12   O     O_2   0.308054 0.288199 0.738611 -0.292148
O13   O     O_2   0.235801 0.282147 0.975753 -0.314477
O14   O     O_3   0.190782 0.473520 0.832558 -0.515480
H11   H     H_    0.118826 0.426691 0.813366 0.377290
H12   H     H_    0.734136 0.663944 0.866600 0.243280

loop_
_geom_bond_atom_site_label_1
_geom_bond_atom_site_label_2
_ccdc_geom_bond_type
C2    C22   A    
C1    O2    A    
C8    C22   S    
Cu1   Cu2   S    
Cu2   O6    S    
C6    C7    S    
C11   S2    S    
C4    H5    S    
Cu1   O1    S    
C12   O3    A    
C16   O6    A    
C19   C20   S    
C3    H1    S    
S2    O14   S    
S2    O13   D    
C2    C3    A    
C9    C15   S    
C8    H9    S    
C9    N1    A    
C7    C8    S    
S1    O10   D    
C13   C14   S    
Cu2   N1    S    
C16   O5    A    
C10   H10   S    
S1    O9    D    
C17   O7    A    
Cu1   O3    S    
C10   N1    A    
O11   H3    S    
C14   H12   S    
C18   C19   T    
S1    O11   S    
Cu2   O4    S    
C14   H2    S    
C5    C6    A    
S2    O12   D    
C8    H8    S    
C13   N2    A    
C17   O8    A    
C3    C4    A    
C6    C22   A    
C7    H7    S    
Cu2   O8    S    
C20   C21   T    
C1    C2    S    
C10   C11   A    
Cu1   N2    S    
C12   C18   S    
C1    O1    A    
C9    C13   A    
C14   C15   S    
C15   S1    S    
C5    C16   S    
C11   N2    A    
C12   O4    A    
C7    H6    S    
C17   C21   S    
Cu2   O2    S    
C15   H4    S    
O14   H11   S    
C4    C5    A    
Cu1   O7    S    
Cu1   O5    S    
