data_mof_unit_64276.cif
_audit_creation_date              2012-12-10T21:15:58-0500
_audit_creation_method            fapswitch 2.2
_symmetry_space_group_name_H-M    P1
_symmetry_Int_Tables_number       1
_space_group_crystal_system       triclinic
_cell_length_a                    13.643844
_cell_length_b                    16.744839
_cell_length_c                    17.605663
_cell_angle_alpha                 89.995762
_cell_angle_beta                  90.117873
_cell_angle_gamma                 83.086129
_cell_volume                      3993.00206979

loop_
_atom_site_label
_atom_site_type_symbol
_atom_type_description
_atom_site_fract_x
_atom_site_fract_y
_atom_site_fract_z
_atom_type_partial_charge
C1    C     C_R   0.500125 0.499954 0.646780 0.866999
C2    C     C_R   0.442359 0.837945 0.447902 -0.269221
C3    C     C_R   0.556606 0.246379 0.551135 0.012408
C4    C     C_R   0.443394 0.753621 0.448865 0.012409
C5    C     C_R   0.443419 0.257435 0.448776 0.017682
C6    C     C_R   0.556581 0.742565 0.551224 0.017682
C7    C     C_R   0.442409 0.173320 0.447856 -0.271854
C8    C     C_R   0.557591 0.826680 0.552144 -0.271853
C9    C     C_R   0.500020 0.124424 0.499992 0.161639
C10   C     C_R   0.499980 0.875576 0.500008 0.161639
C11   C     C_1   0.500011 0.036574 0.500002 -0.048599
C12   C     C_R   0.499875 0.500046 0.353219 0.867000
C13   C     C_1   0.499989 0.963426 0.499998 -0.048599
C14   C     C_R   0.686153 0.485755 0.500022 0.909692
C15   C     C_R   0.313847 0.514245 0.499978 0.909691
C16   C     C_1   0.210227 0.525155 0.499940 -0.189841
C17   C     C_1   0.789773 0.474845 0.500060 -0.189841
C18   C     C_2   0.018847 0.534676 0.499909 -0.160667
C19   C     C_2   0.981153 0.465324 0.500091 -0.160667
C20   C     C_1   0.877434 0.467704 0.500084 0.007264
C21   C     C_1   0.122566 0.532296 0.499916 0.007264
C22   C     C_R   0.499337 0.427531 0.152347 -0.165599
C23   C     C_R   0.499742 0.572627 0.152328 -0.165599
C24   C     C_R   0.500663 0.572469 0.847653 -0.165599
C25   C     C_R   0.499348 0.427415 0.231055 -0.203419
C26   C     C_R   0.500652 0.572585 0.768945 -0.203418
C27   C     C_R   0.499650 0.500077 0.270758 -0.035404
C28   C     C_R   0.500350 0.499923 0.729242 -0.035404
C29   C     C_R   0.499751 0.572754 0.231041 -0.203360
C30   C     C_R   0.500249 0.427246 0.768959 -0.203360
C31   C     C_R   0.500258 0.427373 0.847672 -0.165599
C32   C     C_R   0.499595 0.500069 0.113598 0.167043
C33   C     C_R   0.500405 0.499931 0.886402 0.167043
C34   C     C_1   0.499867 0.500025 0.033688 -0.070832
C35   C     C_1   0.500133 0.499974 0.966312 -0.070832
C36   C     C_R   0.557641 0.162055 0.552098 -0.269221
H1    H     H_    0.027358 0.407683 0.500241 0.158425
H2    H     H_    0.500085 0.371208 0.878258 0.132783
H3    H     H_    0.603160 0.126575 0.593257 0.138834
H4    H     H_    0.396839 0.873425 0.406743 0.138834
H5    H     H_    0.601308 0.274755 0.591477 0.122838
H6    H     H_    0.398692 0.725244 0.408523 0.122838
H7    H     H_    0.398751 0.294528 0.408371 0.124156
H8    H     H_    0.601249 0.705472 0.591628 0.124155
H9    H     H_    0.396922 0.146743 0.406696 0.138841
H10   H     H_    0.603078 0.853257 0.593303 0.138841
H11   H     H_    0.972642 0.592317 0.499759 0.158425
H12   H     H_    0.499195 0.371357 0.121778 0.132751
H13   H     H_    0.500805 0.628643 0.878222 0.132751
H14   H     H_    0.499171 0.370711 0.260641 0.155159
H15   H     H_    0.500829 0.629289 0.739359 0.155158
H16   H     H_    0.499900 0.629462 0.260618 0.155425
H17   H     H_    0.500100 0.370538 0.739382 0.155425
H18   H     H_    0.499915 0.628792 0.121742 0.132783
N1    N     N_R   0.499970 0.292770 0.499970 -0.087344
N2    N     N_R   0.500030 0.707230 0.500030 -0.087344
O1    O     O_R   0.500000 0.433430 0.610870 -0.625830
O2    O     O_R   0.500000 0.566570 0.389130 -0.625831
O3    O     O_R   0.500010 0.566520 0.610900 -0.626411
O4    O     O_R   0.499990 0.433480 0.389100 -0.626411
O5    O     O_R   0.640340 0.423880 0.499970 -0.611449
O6    O     O_R   0.359660 0.576120 0.500030 -0.611449
O7    O     O_R   0.640350 0.556960 0.500000 -0.611885
O8    O     O_R   0.359650 0.443040 0.500000 -0.611885
Zn1   Zn    Zn3+2 0.500000 0.411140 0.499980 0.945375
Zn2   Zn    Zn3+2 0.500000 0.588860 0.500020 0.945375

loop_
_geom_bond_atom_site_label_1
_geom_bond_atom_site_label_2
_ccdc_geom_bond_type
C9    C36   A    
C2    C4    A    
C15   O8    A    
C31   C33   A    
C16   C21   T    
C1    O1    A    
C25   C27   A    
C18   C21   S    
C11   C13   T    
C5    N1    A    
C22   C32   A    
C26   C28   A    
C24   C33   A    
O5    Zn1   S    
C31   H2    S    
C2    C10   A    
C12   O2    A    
C23   C32   A    
C28   C30   A    
C5    H7    S    
O7    Zn2   S    
C10   C13   S    
C7    H9    S    
C1    C28   S    
C6    H8    S    
C26   H15   S    
C18   H11   S    
C9    C11   S    
C14   C17   S    
C4    H6    S    
C3    C36   A    
N2    Zn2   S    
C14   O7    A    
C23   C29   A    
O8    Zn1   S    
N1    Zn1   S    
C15   O6    A    
C24   C26   A    
O4    Zn1   S    
C18   C19   D    
C5    C7    A    
C1    O3    A    
O3    Zn2   S    
C30   C31   A    
C30   H17   S    
C8    H10   S    
C27   C29   A    
O6    Zn2   S    
C12   C27   S    
C15   C16   S    
C12   O4    A    
C2    H4    S    
C22   H12   S    
C17   C20   T    
C22   C25   A    
C23   H18   S    
C8    C10   A    
C34   C35   T    
O1    Zn1   S    
C24   H13   S    
C7    C9    A    
C25   H14   S    
C3    H5    S    
C6    C8    A    
C19   H1    S    
C33   C35   S    
C14   O5    A    
C3    N1    A    
O2    Zn2   S    
C36   H3    S    
C4    N2    A    
C19   C20   S    
C6    N2    A    
C29   H16   S    
C32   C34   S    
