data_mof_unit_18821.cif
_audit_creation_date              2013-03-05T15:48:31-0500
_audit_creation_method            fapswitch 2.2
_symmetry_space_group_name_H-M    P1
_symmetry_Int_Tables_number       1
_space_group_crystal_system       triclinic
_cell_length_a                    18.209384
_cell_length_b                    19.224089
_cell_length_c                    18.675911
_cell_angle_alpha                 110.268968
_cell_angle_beta                  107.921029
_cell_angle_gamma                 108.629657
_cell_volume                      5127.59670382

loop_
_atom_site_label
_atom_site_type_symbol
_atom_site_description
_atom_site_fract_x
_atom_site_fract_y
_atom_site_fract_z
_atom_type_partial_charge
O1    O     O_R   0.408690 0.356690 0.448570 -0.628344
O2    O     O_R   0.408090 0.460090 0.551440 -0.624293
C1    C     C_R   0.378421 0.381863 0.501630 0.825311
O3    O     O_R   0.592400 0.448300 0.540670 -0.559501
O4    O     O_R   0.591800 0.551700 0.643540 -0.518257
C2    C     C_R   0.618683 0.497918 0.621083 0.928014
Zn1   Zn    Zn3+2 0.500400 0.430960 0.431310 1.055142
Zn2   Zn    Zn3+2 0.499600 0.569040 0.568690 1.057828
O5    O     O_R   0.591910 0.539910 0.448560 -0.604997
O6    O     O_R   0.591310 0.643310 0.551430 -0.600730
O7    O     O_R   0.408200 0.448300 0.356460 -0.637162
O8    O     O_R   0.407600 0.551700 0.459330 -0.645190
C3    C     C_R   0.620026 0.618959 0.497637 0.929993
C4    C     C_R   0.379505 0.499911 0.379507 0.817246
C5    C     C_3   0.713108 0.428751 0.653366 0.066567
H1    H     H_    0.656595 0.365612 0.622862 0.125591
C6    C     C_3   0.787959 0.436233 0.727242 -0.509040
H2    H     H_    0.768706 0.373460 0.723663 0.172366
H3    H     H_    0.849140 0.453015 0.721048 0.235193
H4    H     H_    0.801624 0.586917 0.702629 0.201900
H5    H     H_    0.900479 0.607902 0.816530 0.207107
C7    C     C_3   0.770714 0.586848 0.744888 0.135004
C8    C     C_3   0.646993 0.476711 0.754001 0.413529
C9    C     C_3   0.684855 0.497944 0.691649 -0.277448
C10   C     C_3   0.807280 0.503084 0.815518 -0.043015
C11   C     C_3   0.839548 0.592901 0.823746 -0.124185
C12   C     C_3   0.721558 0.475781 0.823493 -0.445654
H6    H     H_    0.700027 0.411180 0.815226 0.187880
H7    H     H_    0.736933 0.514908 0.890892 0.189974
H8    H     H_    0.168043 0.159906 0.202946 0.139285
C13   C     C_R   0.341914 0.414698 0.655326 -0.133213
C14   C     C_R   0.327996 0.426151 0.727477 0.193284
C15   C     C_R   0.269121 0.357217 0.724970 -0.157747
C16   C     C_R   0.224266 0.278517 0.651679 -0.216623
C17   C     C_R   0.235898 0.265873 0.577230 0.073179
C18   C     C_R   0.296069 0.334679 0.578301 0.068835
C19   C     C_R   0.185373 0.186604 0.500801 -0.188734
C20   C     C_R   0.185891 0.176611 0.422370 0.075657
C21   C     C_R   0.241870 0.246122 0.421803 0.094918
C22   C     C_R   0.304620 0.321074 0.501263 -0.182294
C23   C     C_R   0.129879 0.099004 0.343416 -0.158563
C24   C     C_R   0.125095 0.092860 0.265459 -0.130852
C25   C     C_R   0.174335 0.163716 0.263925 -0.140275
C26   C     C_R   0.231469 0.239785 0.340851 -0.119161
H9    H     H_    0.385654 0.471358 0.661577 0.211440
H10   H     H_    0.255822 0.364701 0.779111 0.149842
H11   H     H_    0.177752 0.228849 0.653806 0.167445
H12   H     H_    0.087850 0.042509 0.340209 0.136452
H13   H     H_    0.081170 0.033455 0.205777 0.143069
H14   H     H_    0.265023 0.293931 0.335556 0.148741
H15   H     H_    0.502272 0.573109 0.202316 0.146237
C27   C     C_R   0.212493 0.466293 0.372219 -0.249486
C28   C     C_R   0.136679 0.462437 0.378184 0.371681
C29   C     C_R   0.083102 0.482110 0.326100 -0.229352
C30   C     C_R   0.101703 0.499435 0.265357 -0.217500
C31   C     C_R   0.173521 0.495096 0.252674 0.090152
C32   C     C_R   0.233627 0.486649 0.312495 0.017454
C33   C     C_R   0.186679 0.499103 0.182464 -0.204104
C34   C     C_R   0.265009 0.503825 0.177171 0.014450
C35   C     C_R   0.331797 0.511554 0.247590 0.052943
C36   C     C_R   0.313877 0.499452 0.312156 -0.149472
C37   C     C_R   0.282684 0.504005 0.107003 0.193027
C38   C     C_R   0.370123 0.539858 0.122552 -0.135360
C39   C     C_R   0.436138 0.552339 0.194312 -0.193891
C40   C     C_R   0.415879 0.531703 0.252211 -0.153151
H16   H     H_    0.254064 0.452111 0.413853 0.179212
H17   H     H_    0.025874 0.483081 0.331437 0.185092
H18   H     H_    0.058865 0.516607 0.229380 0.174910
H19   H     H_    0.386124 0.549856 0.074458 0.138613
H20   H     H_    0.468665 0.535188 0.302103 0.147224
H21   H     H_    0.817288 0.528778 0.393484 0.198117
C41   C     C_R   0.605192 0.770898 0.518838 0.207943
C42   C     C_R   0.620460 0.848038 0.578622 -0.162519
C43   C     C_R   0.696324 0.919117 0.608917 -0.178373
C44   C     C_R   0.754117 0.914134 0.574592 0.142763
C45   C     C_R   0.749356 0.833045 0.528742 0.017293
C46   C     C_R   0.677517 0.760927 0.510796 0.022188
C47   C     C_R   0.809985 0.818758 0.499509 -0.129708
C48   C     C_R   0.803584 0.737803 0.461668 0.014026
C49   C     C_R   0.746945 0.672371 0.466871 -0.028690
C50   C     C_R   0.681436 0.683446 0.489558 -0.192984
C51   C     C_R   0.857348 0.722712 0.423132 -0.195559
C52   C     C_R   0.859518 0.646526 0.395225 0.157715
C53   C     C_R   0.810246 0.585266 0.408270 -0.202671
C54   C     C_R   0.759624 0.599459 0.448956 0.288110
H22   H     H_    0.568784 0.854810 0.592531 0.140491
H23   H     H_    0.701984 0.979372 0.647955 0.147368
H24   H     H_    0.899697 0.770493 0.415706 0.146233
O9    O     O_R   0.946100 0.356720 0.906240 -0.620156
O10   O     O_R   0.049540 0.460090 0.906170 -0.631335
C55   C     C_R   0.998673 0.381527 0.877395 0.860235
O11   O     O_R   0.853530 0.448360 0.905250 -0.634050
O12   O     O_R   0.956970 0.551730 0.905180 -0.616640
C56   C     C_R   0.876317 0.502617 0.880673 0.872111
Zn3   Zn    Zn3+2 0.928290 0.431030 0.997370 0.941416
Zn4   Zn    Zn3+2 0.066410 0.569060 0.997270 0.961841
O13   O     O_R   0.945170 0.540000 0.088470 -0.634209
O14   O     O_R   0.048600 0.643370 0.088400 -0.609060
O15   O     O_R   0.037740 0.448360 0.089460 -0.623309
O16   O     O_R   0.141170 0.551730 0.089390 -0.627355
C57   C     C_R   0.993953 0.617955 0.115408 0.851223
C58   C     C_R   0.118792 0.500132 0.117508 0.830024
O17   O     O_R   0.948510 0.908450 0.356890 -0.625022
O18   O     O_R   0.052500 0.908420 0.460860 -0.608513
C59   C     C_R   0.002374 0.881101 0.380652 0.854177
O19   O     O_R   0.039610 0.091640 0.448030 -0.612778
O20   O     O_R   0.143600 0.091610 0.551990 -0.632490
C60   C     C_R   0.120137 0.118386 0.498924 0.848477
Zn5   Zn    Zn3+2 0.930570 0.000030 0.430590 0.949915
Zn6   Zn    Zn3+2 0.069430 0.999990 0.569430 0.936164
O21   O     O_R   0.947500 0.091600 0.539170 -0.617475
O22   O     O_R   0.051490 0.091570 0.643140 -0.633170
O23   O     O_R   0.856400 0.908420 0.448030 -0.629097
O24   O     O_R   0.960390 0.908390 0.552000 -0.610592
C61   C     C_R   0.002048 0.122290 0.619178 0.832362
C62   C     C_R   0.879157 0.885254 0.503957 0.851800
H25   H     H_    0.021457 0.177678 0.971280 0.142908
C63   C     C_R   0.993417 0.388066 0.724122 -0.250035
C64   C     C_R   0.001947 0.397697 0.655695 0.343188
C65   C     C_R   0.016502 0.340006 0.599735 -0.167923
C66   C     C_R   0.019035 0.272387 0.610192 -0.222681
C67   C     C_R   0.007780 0.260724 0.677825 0.067094
C68   C     C_R   0.001546 0.322663 0.739015 0.023311
C69   C     C_R   0.002709 0.188933 0.685736 -0.188356
C70   C     C_R   0.001067 0.182122 0.758684 0.062146
C71   C     C_R   0.007235 0.249810 0.825619 0.071029
C72   C     C_R   0.003369 0.317622 0.813286 -0.182497
C73   C     C_R   0.993493 0.109531 0.767111 -0.164464
C74   C     C_R   0.999965 0.107928 0.842588 -0.132250
C75   C     C_R   0.014187 0.177935 0.911626 -0.143896
C76   C     C_R   0.017789 0.248037 0.903711 -0.137640
H26   H     H_    0.979205 0.431826 0.764400 0.188031
H27   H     H_    0.025549 0.346854 0.547450 0.228506
H28   H     H_    0.031317 0.230516 0.565210 0.183984
H29   H     H_    0.981529 0.052206 0.716245 0.158376
H30   H     H_    0.994903 0.052376 0.847755 0.151314
H31   H     H_    0.029896 0.300452 0.960443 0.154783
H32   H     H_    0.696116 0.578830 0.032564 0.167238
C77   C     C_R   0.142502 0.715281 0.280149 -0.138705
C78   C     C_R   0.224071 0.773417 0.350398 -0.189930
C79   C     C_R   0.239173 0.853538 0.401167 -0.149564
C80   C     C_R   0.170652 0.874808 0.388073 0.208365
C81   C     C_R   0.081819 0.809745 0.323371 0.018864
C82   C     C_R   0.072348 0.734399 0.263128 0.045463
C83   C     C_R   0.002160 0.813899 0.314138 -0.232600
C84   C     C_R   0.918600 0.748052 0.242019 0.064594
C85   C     C_R   0.916325 0.685207 0.173561 0.064738
C86   C     C_R   0.993616 0.679729 0.185210 -0.180146
C87   C     C_R   0.836494 0.740929 0.236871 -0.147071
C88   C     C_R   0.757478 0.680772 0.162051 -0.140871
C89   C     C_R   0.757388 0.625177 0.090997 -0.092158
C90   C     C_R   0.835798 0.626705 0.096494 -0.172740
H33   H     H_    0.134984 0.655150 0.238713 0.136241
H34   H     H_    0.277508 0.758276 0.361664 0.152310
H35   H     H_    0.306531 0.900312 0.448058 0.141853
H36   H     H_    0.830520 0.779056 0.290435 0.164946
H37   H     H_    0.696076 0.677254 0.159393 0.136068
H38   H     H_    0.832000 0.580183 0.040573 0.130626
N1    N     N_R   0.737158 0.428571 0.584918 0.274346
O25   O     O_R   0.689901 0.361476 0.508685 -0.325586
O26   O     O_R   0.815184 0.481358 0.603819 -0.291017
N2    N     N_R   0.757354 0.661818 0.763417 0.225708
O27   O     O_R   0.782039 0.708468 0.730094 -0.368328
O28   O     O_R   0.720310 0.682617 0.810653 -0.316932
C91   C     C_3   0.867345 0.664276 0.914952 -0.327618
C92   C     C_3   0.935851 0.750606 0.938312 -0.783924
H39   H     H_    0.996662 0.748615 0.940118 0.251234
H40   H     H_    0.911046 0.770728 0.891355 0.298170
H41   H     H_    0.952738 0.798452 0.003423 0.241504
H42   H     H_    0.810743 0.668711 0.921487 0.289036
H43   H     H_    0.897705 0.650791 0.966246 0.186046
C93   C     C_3   0.370994 0.513073 0.804897 -0.383768
C94   C     C_3   0.434163 0.521035 0.886954 -0.829374
H44   H     H_    0.400058 0.472898 0.901704 0.234499
H45   H     H_    0.490042 0.513939 0.879935 0.295224
H46   H     H_    0.460820 0.584481 0.942421 0.251808
H47   H     H_    0.407991 0.562562 0.793055 0.234773
H48   H     H_    0.319019 0.526194 0.815782 0.209703
N3    N     N_R   0.114978 0.439919 0.437701 0.208301
O29   O     O_R   0.041429 0.430855 0.438690 -0.359432
O30   O     O_R   0.167093 0.425745 0.489549 -0.415992
C95   C     C_3   0.214059 0.456228 0.012902 -0.363764
C96   C     C_3   0.230668 0.389863 0.955812 -0.894091
H49   H     H_    0.294955 0.418569 0.957531 0.248067
H50   H     H_    0.227970 0.342068 0.976854 0.274843
H51   H     H_    0.180015 0.357713 0.887491 0.257500
H52   H     H_    0.148906 0.420852 0.005074 0.195005
H53   H     H_    0.213663 0.501512 0.988822 0.233034
C97   C     C_3   0.510394 0.708045 0.455041 -0.379956
C98   C     C_3   0.470772 0.737552 0.394120 -0.887811
H54   H     H_    0.473228 0.798412 0.430852 0.253920
H55   H     H_    0.507002 0.745198 0.356803 0.269846
H56   H     H_    0.400921 0.690103 0.348055 0.260430
H57   H     H_    0.504681 0.647654 0.415238 0.183762
H58   H     H_    0.472239 0.699227 0.490393 0.233939
C99   C     C_3   0.805399 0.995165 0.578705 -0.408481
C100  C     C_3   0.752555 0.999859 0.500641 -0.741290
H59   H     H_    0.735830 0.946697 0.439117 0.263648
H60   H     H_    0.690456 0.997149 0.499934 0.232671
H61   H     H_    0.790501 0.060362 0.504674 0.260820
H62   H     H_    0.820527 0.050357 0.637912 0.196040
H63   H     H_    0.869121 0.003568 0.586144 0.198779
C101  C     C_3   0.920270 0.633091 0.358790 -0.432719
C102  C     C_3   0.997434 0.634094 0.422579 -0.764022
H64   H     H_    0.032866 0.693560 0.485476 0.273022
H65   H     H_    0.974372 0.579377 0.433110 0.283552
H66   H     H_    0.043972 0.630565 0.396299 0.239895
H67   H     H_    0.883197 0.572228 0.297072 0.213786
H68   H     H_    0.947776 0.683627 0.344550 0.218740
N4    N     N_R   0.738428 0.548381 0.486696 0.240721
O31   O     O_R   0.708047 0.467318 0.442853 -0.316506
O32   O     O_R   0.758242 0.584155 0.567835 -0.377718
N5    N     N_R   0.997415 0.466820 0.644348 0.230170
O33   O     O_R   0.989318 0.467803 0.573079 -0.293089
O34   O     O_R   0.002815 0.530150 0.705781 -0.381335
C103  C     C_3   0.201379 0.968986 0.430383 -0.401002
C104  C     C_3   0.255288 0.014410 0.529327 -0.762092
H69   H     H_    0.216118 0.989472 0.558264 0.280664
H70   H     H_    0.315661 0.008223 0.550054 0.214872
H71   H     H_    0.277534 0.083002 0.555959 0.248834
H72   H     H_    0.244292 0.996537 0.405506 0.192674
H73   H     H_    0.147489 0.983889 0.411794 0.187995
N6    N     N_R   0.621315 0.539165 0.796763 0.272809
O35   O     O_R   0.658245 0.584498 0.880559 -0.437715
O36   O     O_R   0.548428 0.536446 0.753033 -0.397201
C105  C     C_3   0.562975 0.387138 0.702046 -0.465586
C106  C     C_3   0.516755 0.367945 0.754345 -0.792468
H74   H     H_    0.563513 0.378292 0.816344 0.245132
H75   H     H_    0.484778 0.407403 0.767907 0.291173
H76   H     H_    0.464525 0.301004 0.716190 0.238144
H77   H     H_    0.514320 0.380865 0.643701 0.202253
H78   H     H_    0.579163 0.335407 0.679753 0.188851

loop_
_geom_bond_atom_site_label_1
_geom_bond_atom_site_label_2
_geom_bond_distance
_ccdc_geom_bond_type
C93   H47   1.111694 S    
C91   H43   1.108255 S    
H5    C11   1.116624 S    
C11   C91   1.564185 S    
O9    Zn3   1.998408 S    
C98   H54   1.110435 S    
C88   H37   1.082757 S    
C49   C50   1.434782 A    
C12   H7    1.105070 S    
C42   C43   1.368558 A    
N6    O35   1.301463 A    
C85   C86   1.400484 A    
C82   C86   1.404029 A    
C73   C74   1.389961 A    
C49   C54   1.435012 A    
C30   H18   1.079156 S    
C57   C86   1.430626 S    
C28   C29   1.395560 A    
C93   C94   1.528149 S    
C104  H71   1.109289 S    
Zn1   O7    2.029786 S    
C105  H77   1.110586 S    
C63   C68   1.419856 A    
C91   C92   1.530201 S    
C55   C72   1.435655 S    
N6    O36   1.300111 A    
C17   C19   1.412462 A    
C19   C20   1.413235 A    
C45   C47   1.432856 A    
C65   H27   1.082677 S    
O2    C1    1.273243 A    
C96   H50   1.110976 S    
O4    C2    1.278195 A    
C7    N2    1.478619 S    
O7    C4    1.271402 A    
Zn3   O15   2.027407 S    
C77   H33   1.080624 S    
C26   H14   1.081090 S    
C81   C82   1.409064 A    
C74   H30   1.082728 S    
C3    C50   1.468960 S    
C31   C32   1.399701 A    
C48   C51   1.425128 A    
C6    H2    1.114903 S    
C16   C17   1.420261 A    
C23   C24   1.391915 A    
C8    N6    1.490651 S    
C100  H60   1.110980 S    
C106  H74   1.109380 S    
O5    C3    1.288654 A    
C103  H72   1.111982 S    
C98   H56   1.109789 S    
C63   C64   1.399727 A    
C79   C80   1.411123 A    
C97   H57   1.090192 S    
N1    O25   1.302196 A    
Zn4   O14   1.998408 S    
C70   C73   1.426098 A    
C89   C90   1.389587 A    
N1    O26   1.301945 A    
C33   C58   1.452415 S    
C8    C12   1.573338 S    
C43   H23   1.084565 S    
O9    C55   1.279752 A    
Zn6   O24   2.029892 S    
C104  H70   1.107315 S    
C51   H24   1.076645 S    
C48   C49   1.404606 A    
Zn5   O23   2.044558 S    
C41   C42   1.386146 A    
O23   C62   1.278617 A    
C44   C99   1.499353 S    
N5    O34   1.301731 A    
C14   C93   1.513028 S    
C2    C9    1.486820 S    
C10   C56   1.461000 S    
C54   N4    1.419416 S    
C92   H40   1.107075 S    
C15   H10   1.083467 S    
C92   H39   1.110759 S    
C97   C98   1.529776 S    
O3    Zn1   2.038346 S    
C28   N3    1.439956 S    
O16   C58   1.288430 A    
O18   C59   1.288430 A    
C83   C84   1.434776 A    
N2    O28   1.298939 A    
C67   C68   1.400013 A    
C94   H45   1.108837 S    
C78   C79   1.379888 A    
C90   H38   1.078982 S    
C43   C44   1.401674 A    
H25   C75   1.082706 S    
C38   H19   1.083280 S    
C18   C22   1.437301 A    
C53   C54   1.396288 A    
C20   C23   1.420719 A    
C52   C101  1.509152 S    
C73   H29   1.076232 S    
C21   C22   1.416706 A    
C47   C48   1.416483 A    
C79   H35   1.081015 S    
C29   H17   1.082250 S    
C24   H13   1.082643 S    
C10   C11   1.569278 S    
C94   H44   1.110234 S    
C4    C36   1.439061 S    
O11   Zn3   2.041964 S    
N3    O29   1.301035 A    
C35   C36   1.415136 A    
O1    C1    1.301638 A    
C17   C18   1.411648 A    
H21   C53   1.083948 S    
C100  H61   1.108956 S    
C44   C45   1.453926 A    
C96   H49   1.108068 S    
C5    N1    1.472528 S    
C37   C38   1.403627 A    
C76   H31   1.077557 S    
C37   C95   1.513451 S    
C84   C87   1.426522 A    
C77   C82   1.413873 A    
C97   H58   1.109924 S    
C68   C72   1.414676 A    
C52   C53   1.381851 A    
C102  H66   1.110516 S    
N5    O33   1.300825 A    
Zn2   O8    2.038343 S    
C103  C104  1.535822 S    
C59   C83   1.447077 S    
C106  H76   1.110847 S    
C30   C31   1.421235 A    
O11   C56   1.281860 A    
C15   C16   1.384674 A    
C65   C66   1.392356 A    
O17   C59   1.287884 A    
O12   C56   1.287954 A    
C95   H53   1.110591 S    
C45   C46   1.412519 A    
C64   C65   1.395591 A    
O10   Zn4   2.043339 S    
C95   C96   1.535730 S    
C66   C67   1.419117 A    
C19   C60   1.442020 S    
O3    C2    1.291413 A    
C5    C9    1.596824 S    
C106  H75   1.103830 S    
C102  H65   1.110602 S    
C1    C22   1.468704 S    
C105  C106  1.534818 S    
O12   Zn4   2.027283 S    
N4    O32   1.297049 A    
C25   C26   1.391904 A    
C13   H9    1.065290 S    
C70   C71   1.400622 A    
C66   H28   1.079728 S    
O20   Zn6   2.044691 S    
C7    C9    1.585168 S    
H8    C25   1.082583 S    
C96   H51   1.107216 S    
O4    Zn2   2.029789 S    
C10   C12   1.551765 S    
C24   C25   1.386632 A    
H4    C7    1.101482 S    
O20   C60   1.289607 A    
C99   H63   1.075756 S    
C41   C97   1.504523 S    
C8    C105  1.578892 S    
C27   H16   1.080938 S    
C27   C28   1.399567 A    
C84   C85   1.400415 A    
C94   H46   1.110522 S    
C93   H48   1.111813 S    
C91   H42   1.100375 S    
C81   C83   1.438679 A    
C29   C30   1.392401 A    
C34   C37   1.443217 A    
C98   H55   1.111102 S    
C61   C69   1.436724 S    
O1    Zn1   2.014468 S    
C33   C34   1.436217 A    
C87   H36   1.076871 S    
C13   C14   1.403091 A    
C47   C62   1.435570 S    
H15   C39   1.082914 S    
O8    C4    1.285378 A    
C99   C100  1.530643 S    
O6    C3    1.286723 A    
C35   C40   1.420676 A    
C41   C46   1.434185 A    
O24   C62   1.295106 A    
C77   C78   1.378671 A    
Zn3   O13   2.043257 S    
C32   C36   1.404644 A    
C21   C26   1.420505 A    
H32   C89   1.082348 S    
N2    O27   1.301900 A    
O14   C57   1.285434 A    
C101  H67   1.111476 S    
C88   C89   1.384947 A    
O17   Zn5   2.016422 S    
C6    C10   1.542596 S    
C14   C15   1.387842 A    
C64   N5    1.439416 S    
Zn5   O21   2.025153 S    
C75   C76   1.389181 A    
C74   C75   1.382120 A    
C80   C103  1.518150 S    
C87   C88   1.392896 A    
C39   C40   1.382710 A    
O18   Zn6   2.025028 S    
O10   C55   1.290471 A    
C20   C21   1.403925 A    
O19   C60   1.280597 A    
C71   C76   1.425220 A    
C71   C72   1.419199 A    
C105  H78   1.106890 S    
C5    H1    1.104048 S    
Zn4   O16   2.041967 S    
C104  H69   1.108561 S    
C6    H3    1.110929 S    
C23   H12   1.079141 S    
C31   C33   1.426271 A    
C85   C90   1.418659 A    
C95   H52   1.095571 S    
N4    O31   1.300517 A    
C100  H59   1.108897 S    
C46   C50   1.434229 A    
Zn6   O22   2.016500 S    
C42   H22   1.084057 S    
C103  H73   1.097473 S    
C63   H26   1.077481 S    
C27   C32   1.419764 A    
C8    C9    1.625300 S    
C38   C39   1.378465 A    
Zn1   O5    2.059021 S    
C34   C35   1.412650 A    
O15   C58   1.291424 A    
C102  H64   1.111269 S    
C92   H41   1.110615 S    
Zn2   O6    2.014467 S    
C51   C52   1.392498 A    
C7    C11   1.551012 S    
O2    Zn2   2.059021 S    
C12   H6    1.112948 S    
C80   C81   1.448609 A    
C13   C18   1.428248 A    
C101  H68   1.102507 S    
O21   C61   1.291812 A    
C16   H11   1.077474 S    
C101  C102  1.526623 S    
C99   H62   1.112313 S    
C5    C6    1.536869 S    
C67   C69   1.415387 A    
O22   C61   1.278468 A    
O13   C57   1.280678 A    
C40   H20   1.077530 S    
C78   H34   1.083154 S    
C69   C70   1.421356 A    
N3    O30   1.301895 A    
O19   Zn5   2.029907 S    
