data_mof_unit_21481.cif
_audit_creation_date              2012-12-11T15:22:35-0500
_audit_creation_method            fapswitch 2.2
_symmetry_space_group_name_H-M    P1
_symmetry_Int_Tables_number       1
_space_group_crystal_system       triclinic
_cell_length_a                    22.48606
_cell_length_b                    12.992771
_cell_length_c                    26.91735
_cell_angle_alpha                 90.112037
_cell_angle_beta                  90.49786
_cell_angle_gamma                 90.052566
_cell_volume                      7863.75610139

loop_
_atom_site_label
_atom_site_type_symbol
_atom_type_description
_atom_site_fract_x
_atom_site_fract_y
_atom_site_fract_z
_atom_type_partial_charge
C1    C     C_R   0.718337 0.339224 0.176063 0.560022
C2    C     C_R   0.446476 0.244502 0.903477 -0.135041
C3    C     C_R   0.009131 0.586279 0.554970 -0.085720
C4    C     C_R   0.502479 0.083550 0.394197 -0.105505
C5    C     C_R   0.496821 0.082913 0.605472 -0.105217
C6    C     C_R   0.002665 0.583511 0.394280 -0.105753
C7    C     C_R   0.997005 0.582944 0.605556 -0.105530
C8    C     C_R   0.740152 0.953890 0.371289 -0.011135
C9    C     C_R   0.259575 0.952942 0.628896 -0.010936
C10   C     C_R   0.240238 0.453720 0.371249 -0.011088
C11   C     C_R   0.759660 0.453161 0.628839 -0.011529
C12   C     C_R   0.689009 0.932841 0.399058 -0.143602
C13   C     C_R   0.058581 0.739494 0.095566 -0.134508
C14   C     C_R   0.310605 0.931302 0.601086 -0.142855
C15   C     C_R   0.189119 0.432149 0.398959 -0.143012
C16   C     C_R   0.810722 0.431855 0.601010 -0.143380
C17   C     C_R   0.692582 0.917418 0.450021 0.058037
C18   C     C_R   0.306900 0.915729 0.550120 0.057763
C19   C     C_R   0.192658 0.416750 0.449928 0.058055
C20   C     C_R   0.807030 0.416382 0.550038 0.057758
C21   C     C_R   0.749334 0.919631 0.472874 -0.051053
C22   C     C_R   0.250105 0.918261 0.527357 -0.051240
C23   C     C_R   0.249375 0.419404 0.472838 -0.051041
C24   C     C_R   0.004184 0.733483 0.892784 -0.137953
C25   C     C_R   0.750232 0.418746 0.527280 -0.051210
C26   C     C_R   0.800891 0.931447 0.444640 -0.117604
C27   C     C_R   0.198625 0.930340 0.555651 -0.117539
C28   C     C_R   0.300936 0.431683 0.444657 -0.117512
C29   C     C_R   0.698737 0.430552 0.555581 -0.117531
C30   C     C_R   0.796843 0.946296 0.393579 0.252660
C31   C     C_R   0.202804 0.945404 0.606704 0.252540
C32   C     C_R   0.296928 0.446587 0.393599 0.252527
C33   C     C_R   0.702905 0.445467 0.606644 0.252456
C34   C     C_R   0.772076 0.987845 0.556525 -0.099081
C35   C     C_R   0.489648 0.245850 0.055241 0.025460
C36   C     C_R   0.227891 0.987146 0.443922 -0.098896
C37   C     C_R   0.271910 0.487778 0.556507 -0.099320
C38   C     C_R   0.727895 0.487439 0.443831 -0.098892
C39   C     C_R   0.721070 0.347143 0.321678 0.591774
C40   C     C_R   0.278903 0.347104 0.678335 0.591219
C41   C     C_R   0.221057 0.847109 0.321694 0.591348
C42   C     C_R   0.778899 0.847122 0.678342 0.598828
C43   C     C_R   0.775392 0.975126 0.608168 0.045286
C44   C     C_R   0.224743 0.974724 0.392239 0.045305
C45   C     C_R   0.275232 0.475075 0.608152 0.045385
C46   C     C_R   0.463407 0.250155 0.953209 -0.001573
C47   C     C_R   0.724714 0.474916 0.392156 0.045579
C48   C     C_R   0.745313 0.795430 0.596421 -0.130970
C49   C     C_R   0.253623 0.794492 0.403572 -0.129849
C50   C     C_R   0.245550 0.295188 0.596391 -0.130374
C51   C     C_R   0.753857 0.294821 0.403540 -0.130045
C52   C     C_R   0.742371 0.809365 0.545786 -0.079739
C53   C     C_R   0.256384 0.808123 0.454238 -0.080317
C54   C     C_R   0.242600 0.309105 0.545754 -0.079915
C55   C     C_R   0.756651 0.308554 0.454198 -0.080401
C56   C     C_R   0.755996 0.905048 0.525909 0.030456
C57   C     C_R   0.041303 0.747385 0.045972 -0.004904
C58   C     C_R   0.243323 0.903945 0.474326 0.030265
C59   C     C_R   0.256016 0.404881 0.525882 0.030504
C60   C     C_R   0.743464 0.404350 0.474255 0.030247
C61   C     C_R   0.762984 0.876559 0.627915 0.010974
C62   C     C_R   0.236701 0.876087 0.372262 0.012491
C63   C     C_R   0.263017 0.376433 0.627891 0.012288
C64   C     C_R   0.736773 0.376284 0.372212 0.012415
C65   C     C_R   0.554301 0.158989 0.321569 0.530629
C66   C     C_R   0.445674 0.158899 0.678418 0.529441
C67   C     C_R   0.054324 0.658986 0.321582 0.529126
C68   C     C_R   0.014263 0.744179 0.944003 0.007489
C69   C     C_R   0.945696 0.658901 0.678431 0.532561
C70   C     C_R   0.731757 0.001481 0.322725 0.540515
C71   C     C_R   0.268187 0.001277 0.677331 0.539254
C72   C     C_R   0.231767 0.501467 0.322722 0.539177
C73   C     C_R   0.768200 0.501306 0.677321 0.541287
C74   C     C_R   0.573941 0.105110 0.091046 -0.131671
C75   C     C_R   0.518240 0.107921 0.888841 -0.142969
C76   C     C_R   0.979669 0.615618 0.111126 -0.143639
C77   C     C_R   0.921335 0.619128 0.909388 -0.139168
C78   C     C_R   0.565025 0.113773 0.040044 -0.006014
C79   C     C_R   0.521455 0.182107 0.022054 0.058962
C80   C     C_R   0.537186 0.115104 0.938387 -0.000006
C81   C     C_R   0.960486 0.625448 0.061713 0.003837
C82   C     C_R   0.931122 0.627887 0.960319 -0.004209
C83   C     C_R   0.583132 0.052368 0.956388 -0.119315
C84   C     C_R   0.597626 0.053081 0.006857 -0.121539
C85   C     C_R   0.894693 0.576155 0.994087 -0.128714
C86   C     C_R   0.910142 0.572459 0.044361 -0.127471
C87   C     C_3   0.607127 0.790171 0.052774 0.014223
C88   C     C_3   0.605404 0.706391 0.093101 -0.262732
C89   C     C_3   0.541599 0.679459 0.106958 -0.463562
C90   C     C_R   0.508120 0.183808 0.971046 0.047763
C91   C     C_3   0.381899 0.028708 0.992944 0.001787
C92   C     C_3   0.393489 0.923363 0.016883 -0.273664
C93   C     C_3   0.459772 0.902493 0.023208 -0.482603
C94   C     C_3   0.126046 0.541428 0.003852 -0.002841
C95   C     C_3   0.112649 0.441858 0.975252 -0.267034
C96   C     C_3   0.046403 0.430295 0.964378 -0.479981
C97   C     C_3   0.903444 0.316517 0.946356 -0.014270
C98   C     C_3   0.896032 0.223848 0.910786 -0.272327
C99   C     C_3   0.953599 0.162590 0.905912 -0.451208
C100  C     C_2   0.789950 0.065453 0.640140 0.572751
C101  C     C_R   0.993086 0.688015 0.028614 0.047973
C102  C     C_2   0.210859 0.065377 0.360475 0.573477
C103  C     C_2   0.289586 0.565476 0.640138 0.573739
C104  C     C_2   0.710679 0.565464 0.360366 0.572685
C105  C     C_2   0.635993 0.905741 0.477943 0.575447
C106  C     C_2   0.363416 0.903717 0.522106 0.575364
C107  C     C_2   0.136051 0.404741 0.477802 0.575403
C108  C     C_2   0.863550 0.404561 0.522017 0.575412
C109  C     C_3   0.859950 0.871257 0.339039 0.023582
C110  C     C_3   0.915190 0.888436 0.307446 -0.248365
C111  C     C_3   0.926521 0.796950 0.273147 -0.467625
C112  C     C_R   0.279989 0.343924 0.822201 0.552186
C113  C     C_R   0.979167 0.687468 0.977692 0.053507
C114  C     C_3   0.139575 0.871773 0.661554 0.024023
C115  C     C_3   0.084558 0.890084 0.693290 -0.248032
C116  C     C_3   0.072992 0.799402 0.727882 -0.468706
C117  C     C_3   0.360421 0.372899 0.338907 0.024314
C118  C     C_3   0.415668 0.391150 0.307450 -0.248249
C119  C     C_3   0.427325 0.300444 0.272749 -0.468919
C120  C     C_3   0.639863 0.370980 0.661349 0.023414
C121  C     C_3   0.584835 0.388632 0.693150 -0.248580
C122  C     C_3   0.573448 0.297451 0.727475 -0.465996
C123  C     C_2   0.807808 0.023580 0.978545 0.532216
C124  C     C_R   0.447359 0.315171 0.036614 -0.112593
C125  C     C_2   0.183049 0.074263 0.035349 0.573895
C126  C     C_2   0.322684 0.570958 0.965785 0.576210
C127  C     C_2   0.649429 0.488020 0.016923 0.522993
C128  C     C_R   0.434295 0.317283 0.985850 -0.116239
C129  C     C_R   0.073003 0.810027 0.012992 -0.122529
C130  C     C_R   0.059497 0.808442 0.962233 -0.131916
C131  C     C_R   0.745037 0.938544 0.134643 -0.020344
C132  C     C_R   0.263122 0.967149 0.871049 0.004798
C133  C     C_R   0.237529 0.466083 0.129177 0.002464
C134  C     C_R   0.757611 0.438494 0.864918 -0.031011
C135  C     C_R   0.803061 0.931452 0.116521 -0.139229
C136  C     C_R   0.220090 0.843679 0.177821 0.551135
C137  C     C_R   0.223920 0.889115 0.885075 -0.131119
C138  C     C_R   0.276349 0.387089 0.115606 -0.129678
C139  C     C_R   0.700698 0.417203 0.882481 -0.125359
C140  C     C_R   0.813497 0.887374 0.070123 -0.139865
C141  C     C_R   0.217542 0.865825 0.935367 -0.118537
C142  C     C_R   0.284316 0.364532 0.065354 -0.117948
C143  C     C_R   0.693901 0.375318 0.929882 -0.101180
C144  C     C_R   0.766054 0.852362 0.040238 0.048211
C145  C     C_R   0.248732 0.923010 0.971398 0.075887
C146  C     C_R   0.254879 0.423172 0.028969 0.073712
C147  C     C_R   0.794898 0.805877 0.827064 0.560574
C148  C     C_R   0.743483 0.363487 0.961921 0.075694
C149  C     C_R   0.708244 0.846328 0.060387 0.280438
C150  C     C_R   0.290367 0.997696 0.957199 0.297380
C151  C     C_R   0.214330 0.500093 0.042649 0.290905
C152  C     C_R   0.801308 0.367381 0.941125 0.273376
C153  C     C_R   0.555606 0.157214 0.176774 0.537415
C154  C     C_R   0.446042 0.158170 0.822356 0.532810
C155  C     C_R   0.054116 0.658040 0.177540 0.531973
C156  C     C_R   0.944774 0.657747 0.823074 0.529090
C157  C     C_R   0.698501 0.892157 0.107602 -0.142045
C158  C     C_R   0.472190 0.171142 0.871737 -0.008057
C159  C     C_R   0.296509 0.020610 0.906927 -0.093536
C160  C     C_R   0.206537 0.521971 0.092870 -0.099449
C161  C     C_R   0.807074 0.406351 0.892711 -0.140773
C162  C     C_R   0.762717 0.745218 0.962099 -0.082014
C163  C     C_R   0.262007 0.814508 0.044913 -0.158618
C164  C     C_R   0.240314 0.314635 0.955453 -0.157268
C165  C     C_R   0.772057 0.294581 0.046164 -0.071160
C166  C     C_R   0.767096 0.735595 0.910330 -0.138321
C167  C     C_R   0.260789 0.799021 0.095852 -0.149699
C168  C     C_R   0.240165 0.299718 0.904426 -0.142496
C169  C     C_R   0.540276 0.164007 0.124270 0.010093
C170  C     C_R   0.770290 0.295425 0.097754 -0.150888
C171  C     C_R   0.800019 0.912259 0.904849 -0.116548
C172  C     C_R   0.211080 0.962965 0.106531 -0.133065
C173  C     C_R   0.291336 0.462422 0.893821 -0.138709
C174  C     C_R   0.690657 0.419376 0.094773 -0.124505
C175  C     C_R   0.794639 0.922862 0.956396 0.078669
C176  C     C_R   0.212328 0.980100 0.055213 0.084954
C177  C     C_R   0.291713 0.478649 0.945300 0.087362
C178  C     C_R   0.693060 0.421440 0.042664 0.050750
C179  C     C_R   0.775614 0.839040 0.985748 0.024218
C180  C     C_R   0.959643 0.666677 0.875635 0.007206
C181  C     C_R   0.238731 0.904678 0.024304 0.015319
C182  C     C_R   0.265136 0.403759 0.976169 0.015943
C183  C     C_R   0.735148 0.358784 0.017285 0.029539
C184  C     C_R   0.785676 0.819148 0.881191 -0.008886
C185  C     C_R   0.234701 0.872563 0.126933 -0.015639
C186  C     C_R   0.266183 0.372965 0.873289 -0.017817
C187  C     C_R   0.729466 0.357460 0.122773 -0.011726
C188  C     C_R   0.527229 0.169475 0.370685 0.004094
C189  C     C_R   0.472751 0.169162 0.629299 0.003689
C190  C     C_R   0.027343 0.669458 0.370734 0.004019
C191  C     C_R   0.029329 0.671113 0.127685 -0.005457
C192  C     C_R   0.972860 0.669173 0.629348 0.003392
C193  C     C_R   0.535938 0.260819 0.397811 -0.132086
C194  C     C_R   0.464703 0.260835 0.602482 -0.131913
C195  C     C_R   0.036098 0.760798 0.397855 -0.131925
C196  C     C_R   0.964849 0.760843 0.602522 -0.132066
C197  C     C_R   0.524748 0.263510 0.448497 -0.119085
C198  C     C_R   0.475880 0.263642 0.551801 -0.119236
C199  C     C_R   0.024990 0.763485 0.448555 -0.119124
C200  C     C_R   0.976112 0.763648 0.551855 -0.119128
C201  C     C_R   0.731844 0.999894 0.179771 0.536302
C202  C     C_R   0.499845 0.237181 0.106449 -0.126447
C203  C     C_R   0.268377 0.000797 0.819936 0.528693
C204  C     C_R   0.231759 0.500300 0.180201 0.529167
C205  C     C_R   0.768034 0.498724 0.819469 0.518063
C206  C     C_R   0.503534 0.175529 0.472775 0.028916
C207  C     C_R   0.496392 0.175410 0.527208 0.028733
C208  C     C_R   0.003826 0.675497 0.472856 0.028858
C209  C     C_R   0.996680 0.675423 0.527289 0.028790
C210  C     C_R   0.490397 0.086802 0.444798 -0.086527
C211  C     C_R   0.508850 0.086244 0.554870 -0.085469
C212  C     C_R   0.990682 0.586750 0.444897 -0.086341
Cr1   Cr    Cr6+3 0.756570 0.170940 0.251190 1.041354
Cr2   Cr    Cr6+3 0.374010 0.036240 0.749520 1.036587
Cr3   Cr    Cr6+3 0.125990 0.536240 0.250480 1.034260
Cr4   Cr    Cr6+3 0.874010 0.536240 0.749520 1.014471
Cr5   Cr    Cr6+3 0.243430 0.170940 0.748810 1.042219
Cr6   Cr    Cr6+3 0.256570 0.670940 0.251190 1.040795
Cr7   Cr    Cr6+3 0.743430 0.670940 0.748810 1.050166
Cr8   Cr    Cr6+3 0.623740 0.299110 0.249580 1.028094
Cr9   Cr    Cr6+3 0.376260 0.299110 0.750420 1.026509
Cr10  Cr    Cr6+3 0.123740 0.799110 0.249580 1.026388
Cr11  Cr    Cr6+3 0.876260 0.799110 0.750420 1.021385
Cr12  Cr    Cr6+3 0.625990 0.036240 0.250480 1.021011
H1    H     H_    0.538246 0.052339 0.863978 0.126464
H2    H     H_    0.325971 0.082510 0.895928 0.110355
H3    H     H_    0.860460 0.172344 0.924106 0.222277
H4    H     H_    0.882774 0.250456 0.873163 0.143786
H5    H     H_    0.989580 0.212624 0.891481 0.145858
H6    H     H_    0.946571 0.097611 0.879638 0.161477
H7    H     H_    0.967345 0.130667 0.942498 0.186771
H8    H     H_    0.785007 0.133193 0.707536 0.335431
H9    H     H_    0.216325 0.133158 0.293244 0.336148
H10   H     H_    0.284546 0.633086 0.707560 0.336121
H11   H     H_    0.716011 0.633179 0.293111 0.333336
H12   H     H_    0.549456 0.864214 0.476045 0.326293
H13   H     H_    0.178018 0.585436 0.103539 0.109768
H14   H     H_    0.449904 0.862183 0.523878 0.326656
H15   H     H_    0.049543 0.363051 0.475794 0.326508
H16   H     H_    0.950044 0.363054 0.523748 0.326464
H17   H     H_    0.821968 0.852335 0.313721 0.134738
H18   H     H_    0.868292 0.804931 0.364390 0.141514
H19   H     H_    0.909078 0.958719 0.284474 0.185981
H20   H     H_    0.954488 0.900089 0.332161 0.173717
H21   H     H_    0.931774 0.725244 0.295121 0.154157
H22   H     H_    0.967804 0.810404 0.251781 0.169485
H23   H     H_    0.888931 0.787304 0.246483 0.147203
H24   H     H_    0.850542 0.418423 0.877378 0.122418
H25   H     H_    0.177597 0.852983 0.686794 0.134810
H26   H     H_    0.130845 0.805051 0.636396 0.141399
H27   H     H_    0.091070 0.960763 0.716050 0.186117
H28   H     H_    0.045196 0.901634 0.668674 0.172950
H29   H     H_    0.067376 0.727298 0.706125 0.156207
H30   H     H_    0.031838 0.813649 0.749312 0.165799
H31   H     H_    0.110637 0.789977 0.754482 0.143039
H32   H     H_    0.322559 0.353897 0.313480 0.134882
H33   H     H_    0.368958 0.306323 0.364059 0.141207
H34   H     H_    0.409397 0.461822 0.284787 0.185773
H35   H     H_    0.555458 0.328159 0.380750 0.141430
H36   H     H_    0.454892 0.402669 0.332262 0.172863
H37   H     H_    0.432723 0.228352 0.294403 0.156055
H38   H     H_    0.468621 0.314663 0.251510 0.164826
H39   H     H_    0.389822 0.291019 0.245981 0.143438
H40   H     H_    0.677939 0.352189 0.686534 0.135238
H41   H     H_    0.631253 0.304441 0.636049 0.141736
H42   H     H_    0.591247 0.459057 0.716113 0.187618
H43   H     H_    0.545442 0.400289 0.668582 0.173525
H44   H     H_    0.567947 0.225591 0.705510 0.155018
H45   H     H_    0.532280 0.311208 0.748958 0.169449
H46   H     H_    0.445726 0.328456 0.619782 0.141974
H47   H     H_    0.611127 0.287892 0.754030 0.148733
H48   H     H_    0.869001 0.114241 0.012535 0.330504
H49   H     H_    0.152738 0.217649 0.049406 0.324103
H50   H     H_    0.367596 0.636045 0.023100 0.322443
H51   H     H_    0.563173 0.526311 0.007416 0.339217
H52   H     H_    0.055577 0.828148 0.380771 0.141896
H53   H     H_    0.945827 0.828453 0.619796 0.141497
H54   H     H_    0.526277 0.018010 0.537163 0.150765
H55   H     H_    0.472399 0.018818 0.462258 0.151151
H56   H     H_    0.026612 0.518060 0.537285 0.150940
H57   H     H_    0.607730 0.053290 0.105088 0.119338
H58   H     H_    0.972739 0.518748 0.462377 0.151104
H59   H     H_    0.503638 0.011441 0.625361 0.157508
H60   H     H_    0.495141 0.012353 0.374050 0.156222
H61   H     H_    0.003806 0.511481 0.625456 0.156866
H62   H     H_    0.995307 0.512309 0.374142 0.156310
H63   H     H_    0.535684 0.332856 0.468994 0.115199
H64   H     H_    0.465478 0.333333 0.531552 0.115570
H65   H     H_    0.035936 0.832843 0.469039 0.115213
H66   H     H_    0.965718 0.833333 0.531590 0.115523
H67   H     H_    0.645361 0.937642 0.381814 0.189163
H68   H     H_    0.883475 0.576147 0.895753 0.108047
H69   H     H_    0.354293 0.935943 0.618286 0.189402
H70   H     H_    0.145485 0.436589 0.381669 0.189460
H71   H     H_    0.854406 0.436631 0.618208 0.189347
H72   H     H_    0.780688 0.062357 0.539982 0.143447
H73   H     H_    0.219697 0.061718 0.460666 0.143162
H74   H     H_    0.280375 0.562345 0.539967 0.143328
H75   H     H_    0.719611 0.562002 0.460552 0.143217
H76   H     H_    0.606942 0.001274 0.931694 0.140421
H77   H     H_    0.633096 0.003937 0.020104 0.159315
H78   H     H_    0.855220 0.536488 0.981386 0.158853
H79   H     H_    0.956598 0.564800 0.136411 0.118623
H80   H     H_    0.883220 0.527332 0.069452 0.130152
H81   H     H_    0.729591 0.745561 0.521954 0.129273
H82   H     H_    0.268665 0.744027 0.477922 0.128796
H83   H     H_    0.229977 0.245216 0.521919 0.129226
H84   H     H_    0.769039 0.244547 0.477900 0.128865
H85   H     H_    0.736836 0.718879 0.610677 0.149117
H86   H     H_    0.261694 0.717874 0.389121 0.149440
H87   H     H_    0.237231 0.218584 0.610648 0.149408
H88   H     H_    0.762018 0.218210 0.389118 0.149393
H89   H     H_    0.844336 0.929703 0.462411 0.138827
H90   H     H_    0.814944 0.977489 0.883186 0.137338
H91   H     H_    0.155150 0.928835 0.537920 0.138622
H92   H     H_    0.344358 0.430349 0.462477 0.138894
H93   H     H_    0.655261 0.428863 0.537856 0.138649
H94   H     H_    0.410428 0.292954 0.890212 0.138716
H95   H     H_    0.475971 0.285635 0.132355 0.102232
H96   H     H_    0.031151 0.775409 0.866431 0.102429
H97   H     H_    0.097087 0.782509 0.108571 0.136913
H98   H     H_    0.400221 0.369178 0.972313 0.136469
H99   H     H_    0.423390 0.365812 0.061408 0.132471
H100  H     H_    0.085251 0.855341 0.937094 0.128287
H101  H     H_    0.189069 0.017700 0.130602 0.171382
H102  H     H_    0.109472 0.857394 0.026207 0.134199
H103  H     H_    0.840101 0.963900 0.137240 0.140380
H104  H     H_    0.198180 0.847453 0.857404 0.109533
H105  H     H_    0.300774 0.344383 0.143620 0.111989
H106  H     H_    0.661710 0.436002 0.860418 0.139494
H107  H     H_    0.749702 0.679393 0.983909 0.191353
H108  H     H_    0.282023 0.756759 0.021419 0.174476
H109  H     H_    0.219838 0.257524 0.978897 0.175673
H110  H     H_    0.802264 0.241430 0.029165 0.202111
H111  H     H_    0.757302 0.662107 0.893201 0.139027
H112  H     H_    0.313427 0.516950 0.869748 0.163520
H113  H     H_    0.277626 0.727098 0.110599 0.156400
H114  H     H_    0.222246 0.228462 0.889604 0.162558
H115  H     H_    0.799038 0.242910 0.117896 0.144547
H116  H     H_    0.858415 0.886900 0.055940 0.167507
H117  H     H_    0.187490 0.805084 0.946381 0.133619
H118  H     H_    0.314474 0.303571 0.054707 0.138786
H119  H     H_    0.649327 0.360642 0.942982 0.149652
H120  H     H_    0.576292 0.766439 0.022381 0.173333
H121  H     H_    0.589365 0.864792 0.066170 0.102007
H122  H     H_    0.628053 0.636690 0.079535 0.211071
H123  H     H_    0.657287 0.464931 0.113555 0.146064
H124  H     H_    0.629266 0.730909 0.127287 0.143951
H125  H     H_    0.518560 0.748532 0.121694 0.146700
H126  H     H_    0.541890 0.618899 0.136014 0.164020
H127  H     H_    0.516794 0.649872 0.074041 0.160939
H128  H     H_    0.405185 0.087883 0.015583 0.170201
H129  H     H_    0.401344 0.032029 0.955060 0.134396
H130  H     H_    0.372294 0.920843 0.053994 0.185728
H131  H     H_    0.374005 0.861682 0.993174 0.176603
H132  H     H_    0.482772 0.908822 0.986996 0.166041
H133  H     H_    0.466275 0.823485 0.037856 0.138597
H134  H     H_    0.654640 0.896836 0.123147 0.109569
H135  H     H_    0.479518 0.957838 0.050098 0.157822
H136  H     H_    0.105814 0.605963 0.982930 0.174932
H137  H     H_    0.104674 0.540181 0.041037 0.131285
H138  H     H_    0.136914 0.442385 0.939465 0.192416
H139  H     H_    0.127652 0.374781 0.997533 0.151376
H140  H     H_    0.020571 0.433642 0.999339 0.160897
H141  H     H_    0.038234 0.354963 0.946058 0.143213
H142  H     H_    0.031177 0.492166 0.938929 0.162337
H143  H     H_    0.935803 0.295179 0.975979 0.165267
H144  H     H_    0.923668 0.383680 0.927453 0.128038
O1    O     O_R   0.769900 0.064540 0.196060 -0.520515
O2    O     O_R   0.433710 0.069580 0.694600 -0.510570
O3    O     O_R   0.066290 0.569580 0.305400 -0.511147
O4    O     O_R   0.933710 0.569580 0.694600 -0.508532
O5    O     O_R   0.680760 0.993330 0.302620 -0.512689
O6    O     O_R   0.319240 0.993330 0.697380 -0.512464
O7    O     O_R   0.180760 0.493330 0.302620 -0.512599
O8    O     O_R   0.819240 0.493330 0.697380 -0.510337
O9    O     O_3   0.668770 0.168760 0.250420 -0.255339
O10   O     O_3   0.331230 0.168760 0.749580 -0.258956
O11   O     O_3   0.168770 0.668760 0.250420 -0.258773
O12   O     O_R   0.230100 0.064540 0.803940 -0.517225
O13   O     O_3   0.831230 0.668760 0.749580 -0.276172
O14   O     O_R   0.750800 0.274080 0.199250 -0.499948
O15   O     O_R   0.249200 0.274080 0.800750 -0.499024
O16   O     O_R   0.250800 0.774080 0.199250 -0.499178
O17   O     O_R   0.749200 0.774080 0.800750 -0.479870
O18   O     O_R   0.669990 0.371670 0.194150 -0.507154
O19   O     O_R   0.330010 0.371670 0.805850 -0.511406
O20   O     O_R   0.169990 0.871670 0.194150 -0.511164
O21   O     O_R   0.830010 0.871670 0.805850 -0.503817
O22   O     O_R   0.574600 0.238480 0.197800 -0.502370
O23   O     O_R   0.269900 0.564540 0.196060 -0.517826
O24   O     O_R   0.425400 0.238480 0.802200 -0.511791
O25   O     O_R   0.074600 0.738480 0.197800 -0.510675
O26   O     O_R   0.925400 0.738480 0.802200 -0.518244
O27   O     O_R   0.566130 0.068680 0.194240 -0.518419
O28   O     O_R   0.433870 0.068680 0.805760 -0.506112
O29   O     O_R   0.066130 0.568680 0.194240 -0.506443
O30   O     O_R   0.933870 0.568680 0.805760 -0.515228
O31   O     O_R   0.680610 0.992490 0.199570 -0.507963
O32   O     O_R   0.319390 0.992490 0.800430 -0.493648
O33   O     O_R   0.180610 0.492490 0.199570 -0.493732
O34   O     O_R   0.730100 0.564540 0.803940 -0.519661
O35   O     O_R   0.819390 0.492490 0.800430 -0.512438
O36   O     O_R   0.770060 0.065440 0.307230 -0.474277
O37   O     O_R   0.229940 0.065440 0.692770 -0.474521
O38   O     O_R   0.270060 0.565440 0.307230 -0.474811
O39   O     O_R   0.729940 0.565440 0.692770 -0.473444
O40   O     O_R   0.750960 0.274920 0.302300 -0.502230
O41   O     O_R   0.249040 0.274920 0.697700 -0.502539
O42   O     O_R   0.250960 0.774920 0.302300 -0.502460
O43   O     O_R   0.749040 0.774920 0.697700 -0.498088
O44   O     O_R   0.670160 0.372580 0.305320 -0.486806
O45   O     O_R   0.574760 0.239320 0.300850 -0.514477
O46   O     O_R   0.329840 0.372580 0.694680 -0.485175
O47   O     O_R   0.170160 0.872580 0.305320 -0.485302
O48   O     O_R   0.829840 0.872580 0.694680 -0.483869
O49   O     O_3   0.664035 0.799887 0.030992 -0.562142
O50   O     O_3   0.320683 0.053997 0.993141 -0.577472
O51   O     O_3   0.187875 0.560925 0.006492 -0.577959
O52   O     O_3   0.850375 0.344089 0.971267 -0.611678
O53   O     O_2   0.815343 0.140082 0.622495 -0.520983
O54   O     O_R   0.773120 0.067028 0.690036 -0.686309
O55   O     O_2   0.185977 0.140420 0.378286 -0.520180
O56   O     O_R   0.425240 0.239320 0.699150 -0.513583
O57   O     O_R   0.227730 0.066751 0.310590 -0.692160
O58   O     O_2   0.314765 0.640325 0.622495 -0.519640
O59   O     O_R   0.272811 0.566855 0.690049 -0.692265
O60   O     O_2   0.685694 0.640419 0.378160 -0.521322
O61   O     O_R   0.727528 0.566848 0.310476 -0.693702
O62   O     O_2   0.633062 0.930451 0.521702 -0.530512
O63   O     O_R   0.585205 0.868504 0.453463 -0.695524
O64   O     O_2   0.366305 0.928080 0.478344 -0.530955
O65   O     O_R   0.414199 0.866601 0.546507 -0.695040
O66   O     O_2   0.133044 0.429253 0.521582 -0.530994
O67   O     O_R   0.074760 0.739320 0.300850 -0.513532
O68   O     O_R   0.085322 0.367462 0.453250 -0.695061
O69   O     O_2   0.866425 0.429085 0.478276 -0.530949
O70   O     O_R   0.914345 0.367405 0.546386 -0.695425
O71   O     O_3   0.848353 0.961313 0.366839 -0.547420
O72   O     O_3   0.151383 0.961185 0.633477 -0.547626
O73   O     O_3   0.348445 0.462445 0.366974 -0.547517
O74   O     O_3   0.651470 0.460728 0.633463 -0.547347
O75   O     O_2   0.768887 0.088950 0.980231 -0.547210
O76   O     O_R   0.864892 0.043377 0.997223 -0.730741
O77   O     O_2   0.164969 0.077168 0.992395 -0.550602
O78   O     O_R   0.925240 0.739320 0.699150 -0.513255
O79   O     O_R   0.174393 0.159093 0.066558 -0.714798
O80   O     O_2   0.329098 0.647409 0.939905 -0.544901
O81   O     O_R   0.346203 0.569789 0.014067 -0.723424
O82   O     O_2   0.665973 0.552963 0.987329 -0.535597
O83   O     O_R   0.588937 0.477165 0.027347 -0.710469
O84   O     O_R   0.566290 0.069580 0.305400 -0.510368

loop_
_geom_bond_atom_site_label_1
_geom_bond_atom_site_label_2
_ccdc_geom_bond_type
C21   C26   A    
C34   C56   A    
C101  C113  A    
C165  H110  S    
C142  C146  A    
C114  C115  S    
C116  H30   S    
Cr8   O9    S    
C12   H67   S    
C95   H139  S    
Cr4   O30   S    
C35   C124  A    
C157  H134  S    
C154  C158  S    
C173  H112  S    
C72   O38   A    
C117  H32   S    
C40   O41   A    
C149  O49   S    
C177  C182  A    
C167  C185  A    
C66   C189  S    
C29   C33   A    
C37   H74   S    
C156  O26   A    
C141  H117  S    
Cr6   O16   S    
C110  C111  S    
C79   C90   A    
H16   O70   S    
H14   O65   S    
C189  C194  A    
Cr8   O45   S    
C170  C187  A    
C49   C62   A    
C25   C60   S    
Cr5   O41   S    
C81   C86   A    
C141  C145  A    
C164  H109  S    
C83   H76   S    
C42   O43   A    
C67   O67   A    
C153  O22   A    
C197  C206  A    
Cr12  O9    S    
C80   C83   A    
C114  O72   S    
C197  H63   S    
C204  O33   A    
C130  H100  S    
C25   C29   A    
H15   O68   S    
C77   C180  A    
C150  C159  A    
C16   H71   S    
C27   C31   A    
C165  C183  A    
C140  C144  A    
C164  C168  A    
C168  C186  A    
C161  H24   S    
C105  O63   S    
C47   C64   A    
C106  O64   D    
C206  C207  S    
C134  C205  S    
C171  H90   S    
C132  C137  A    
C17   C21   A    
C19   C23   A    
C87   H120  S    
C102  O55   D    
C31   O72   S    
C147  O21   A    
C30   O71   S    
C11   C33   A    
C162  H107  S    
C208  C212  A    
Cr1   O40   S    
C92   H130  S    
C152  O52   S    
Cr6   O23   S    
Cr1   O14   S    
C108  O69   D    
C34   H72   S    
C40   O46   A    
C86   H80   S    
C22   C27   A    
C97   H143  S    
C163  H108  S    
C36   C44   A    
C203  O32   A    
C37   C45   A    
Cr12  O5    S    
C91   C92   S    
C43   C61   A    
C100  O54   S    
C51   H88   S    
C123  O76   S    
C67   O3    A    
C132  C203  S    
C47   C104  S    
C199  H65   S    
Cr9   O19   S    
C127  C178  S    
C51   C64   A    
C200  C209  A    
C22   C58   S    
C99   H7    S    
C53   C58   A    
Cr3   O7    S    
Cr4   O13   S    
C118  H34   S    
C82   C85   A    
C151  O51   S    
C210  H55   S    
C104  O60   D    
C211  H54   S    
C133  C160  A    
C102  O57   S    
C5    C189  A    
C73   O8    A    
C156  C180  S    
C4    C188  A    
H9    O57   S    
C109  H18   S    
Cr12  O27   S    
C111  H22   S    
C49   C53   A    
C51   C55   A    
C150  O50   S    
C48   C52   A    
C118  H36   S    
C88   C89   S    
C65   O45   A    
C98   C99   S    
C127  O82   D    
Cr7   O13   S    
C96   H142  S    
C170  H115  S    
C20   C108  S    
C136  O20   A    
H51   O83   S    
Cr5   O12   S    
Cr6   O42   S    
C129  H102  S    
Cr2   O28   S    
C121  H43   S    
Cr1   O1    S    
C97   C98   S    
C122  H44   S    
C81   C101  A    
C85   C86   A    
C91   H129  S    
C23   C59   S    
C77   C82   A    
C88   H122  S    
C17   C105  S    
C107  O68   S    
C115  H27   S    
Cr11  O48   S    
C145  C181  S    
C174  H123  S    
C196  H53   S    
C66   O2    A    
C122  H45   S    
C169  C202  A    
C212  H58   S    
C74   H57   S    
C120  O74   S    
C24   C180  A    
C104  O61   S    
Cr6   O11   S    
C50   H87   S    
C137  H104  S    
C66   O56   A    
Cr8   O44   S    
C27   H91   S    
Cr3   O29   S    
H50   O81   S    
C207  C211  A    
C50   C63   A    
C71   O37   A    
C99   H5    S    
C195  C199  A    
C54   C59   A    
C1    C187  S    
C143  C148  A    
C138  H105  S    
C132  C159  A    
C156  O30   A    
C160  H13   S    
C202  H95   S    
C75   H1    S    
C54   H83   S    
C201  O31   A    
C134  C139  A    
Cr11  O26   S    
C125  O77   D    
C114  H25   S    
C136  O16   A    
C2    H94   S    
Cr2   O10   S    
C18   C106  S    
C69   O4    A    
C174  C187  A    
Cr4   O8    S    
C206  C210  A    
C83   C84   A    
C172  C185  A    
C8    C12   A    
Cr10  O11   S    
C162  C179  A    
C13   H97   S    
C23   C28   A    
C68   C130  A    
C37   C59   A    
C190  C195  A    
C38   C60   A    
C124  H99   S    
C188  C193  A    
C26   C30   A    
C70   O5    A    
C203  O12   A    
C168  H114  S    
C120  C121  S    
C142  H118  S    
C98   H3    S    
C198  C207  A    
C41   O47   A    
C34   C43   A    
C148  C152  A    
C82   C113  A    
C147  O17   A    
C103  O58   D    
C123  C175  S    
Cr10  O47   S    
C57   C101  A    
C39   O44   A    
C8    C70   S    
C134  C161  A    
Cr9   O24   S    
C94   H136  S    
C172  H101  S    
Cr2   O6    S    
C117  C118  S    
C73   O39   A    
C194  C198  A    
C148  C183  S    
C35   C79   A    
C199  C208  A    
C4    H60   S    
C146  C151  A    
Cr11  O21   S    
C111  H23   S    
C93   H133  S    
C200  H66   S    
C52   H81   S    
C117  O73   S    
C125  C176  S    
C39   O40   A    
C172  C176  A    
C19   C107  S    
C147  C184  S    
C3    C209  A    
C87   C88   S    
C15   H70   S    
C89   H127  S    
C127  O83   S    
C205  O35   A    
C77   H68   S    
C67   C190  S    
C125  O79   S    
H49   O79   S    
C126  O80   D    
C39   C64   S    
C93   H132  S    
C50   C54   A    
C40   C63   S    
C192  C196  A    
C87   O49   S    
C129  C130  A    
C3    C7    A    
C105  O62   D    
C107  O66   D    
C119  H38   S    
C163  C181  A    
C20   C25   A    
C69   C192  S    
C41   O42   A    
C159  H2    S    
C131  C157  A    
C74   C169  A    
H11   O61   S    
C71   O6    A    
C162  C166  A    
C145  C150  A    
C110  H19   S    
Cr10  O20   S    
C208  C209  S    
C12   C17   A    
Cr8   O18   S    
Cr7   O43   S    
C194  H46   S    
C174  C178  A    
C198  H64   S    
C178  C183  A    
C108  O70   S    
C68   C113  A    
C124  C128  A    
C85   H78   S    
C65   C188  S    
C133  C138  A    
C18   C22   A    
C55   C60   A    
C89   H125  S    
C126  O81   S    
C176  C181  A    
C41   C62   S    
C72   O7    A    
C116  H29   S    
C123  O75   D    
C135  C140  A    
C5    C211  A    
C26   H89   S    
C146  C182  S    
C88   H124  S    
C171  C184  A    
C201  O1    A    
C43   C100  S    
C138  C142  A    
C196  C200  A    
C44   C102  S    
Cr5   O10   S    
C94   O51   S    
Cr3   O11   S    
C9    C14   A    
C7    H61   S    
C11   C16   A    
C28   C32   A    
C2    C158  A    
C93   H135  S    
C166  C184  A    
Cr7   O39   S    
C121  C122  S    
C75   C158  A    
C155  O29   A    
C11   C73   S    
C154  O24   A    
Cr9   O10   S    
C57   C129  A    
C89   H126  S    
Cr10  O25   S    
C137  C141  A    
C91   H128  S    
Cr7   O34   S    
C9    C71   S    
C166  H111  S    
C121  H42   S    
Cr4   O4    S    
C21   C56   S    
Cr1   O36   S    
C35   C202  A    
C33   O74   S    
C46   C90   A    
Cr11  O13   S    
C106  O65   S    
C36   C58   A    
C8    C30   A    
C96   H140  S    
C109  C110  S    
C53   H82   S    
C103  O59   S    
C3    H56   S    
C92   C93   S    
C193  H35   S    
C28   H92   S    
C94   C95   S    
C131  C201  S    
C164  C182  A    
C24   C68   A    
C84   H77   S    
C13   C57   A    
C1    O14   A    
C74   C78   A    
C153  C169  S    
C97   H144  S    
C149  C157  A    
C76   H79   S    
C115  C116  S    
C100  O53   D    
C116  H31   S    
C95   H138  S    
C136  C185  S    
C14   C18   A    
C95   C96   S    
Cr2   O2    S    
C97   O52   S    
Cr5   O37   S    
C36   H73   S    
C155  O25   A    
C2    C46   A    
C10   C32   A    
C46   C128  A    
C6    H62   S    
C204  O23   A    
C131  C135  A    
C10   C15   A    
C87   H121  S    
C112  C186  S    
H48   O76   S    
C6    C212  A    
C114  H26   S    
C4    C210  A    
C126  C177  S    
C118  C119  S    
C45   C103  S    
C15   C19   A    
C42   O48   A    
C120  H40   S    
C69   O78   A    
C109  H17   S    
C49   H86   S    
C96   H141  S    
C16   C20   A    
C133  C204  S    
C38   H75   S    
C165  C170  A    
C70   O36   A    
C139  C143  A    
C98   H4    S    
C112  O19   A    
C135  H103  S    
C119  H39   S    
C173  C186  A    
C111  H21   S    
C140  H116  S    
C78   C79   A    
C175  C179  A    
C115  H28   S    
Cr3   O33   S    
C44   C62   A    
C171  C175  A    
C45   C63   A    
Cr8   O22   S    
C92   H131  S    
C163  C167  A    
C94   H137  S    
Cr1   O9    S    
C144  C149  A    
Cr7   O17   S    
C110  H20   S    
C117  H33   S    
Cr3   O3    S    
C144  C179  S    
C173  C177  A    
C6    C190  A    
Cr12  O31   S    
C42   C61   S    
C38   C47   A    
C155  C191  S    
C32   O73   S    
C122  H47   S    
Cr4   O35   S    
Cr10  O67   S    
Cr9   O46   S    
H8    O54   S    
Cr12  O84   S    
C99   H6    S    
C167  H113  S    
C75   C80   A    
C112  O15   A    
C120  H41   S    
C5    H59   S    
C205  O34   A    
C152  C161  A    
C76   C81   A    
C91   O50   S    
H10   O59   S    
C13   C191  A    
Cr6   O38   S    
C65   O84   A    
C151  C160  A    
C109  O71   S    
Cr2   O32   S    
C24   H96   S    
C76   C191  A    
C48   C61   A    
C119  H37   S    
C193  C197  A    
C153  O27   A    
C128  H98   S    
C154  O28   A    
C80   C90   A    
C48   H85   S    
C7    C192  A    
C29   H93   S    
C9    C31   A    
H12   O63   S    
C78   C84   A    
C55   H84   S    
C143  H119  S    
C1    O18   A    
Cr5   O15   S    
C195  H52   S    
Cr11  O78   S    
C52   C56   A    
Cr9   O56   S    
C10   C72   S    
C14   H69   S    
C139  H106  S    
