data_mof_unit_32176.cif
_audit_creation_date              2012-12-10T18:16:24-0500
_audit_creation_method            fapswitch 2.2
_symmetry_space_group_name_H-M    P1
_symmetry_Int_Tables_number       1
_space_group_crystal_system       triclinic
_cell_length_a                    12.639128
_cell_length_b                    13.006824
_cell_length_c                    26.805417
_cell_angle_alpha                 91.297335
_cell_angle_beta                  101.208641
_cell_angle_gamma                 82.443648
_cell_volume                      4285.06370435

loop_
_atom_site_label
_atom_site_type_symbol
_atom_type_description
_atom_site_fract_x
_atom_site_fract_y
_atom_site_fract_z
_atom_type_partial_charge
C1    C     C_R   0.439084 0.691510 0.495599 0.845896
C2    C     C_R   0.387546 0.634718 0.701292 -0.072085
C3    C     C_R   0.468405 0.602900 0.743488 0.254263
C4    C     C_R   0.439717 0.697802 0.892189 -0.054880
C5    C     C_R   0.532020 0.714505 0.873105 -0.050671
C6    C     C_R   0.615303 0.760050 0.904364 -0.174830
C7    C     C_R   0.352968 0.657868 0.860066 -0.020681
C8    C     C_R   0.488710 0.529511 0.646357 -0.041637
C9    C     C_R   0.489765 0.533061 0.352468 -0.190332
C10   C     C_R   0.537812 0.726414 0.030122 0.052035
C11   C     C_R   0.342344 0.713793 0.015318 -0.023896
C12   C     C_R   0.499114 0.502610 0.594242 0.907202
C13   C     C_R   0.443275 0.713888 0.049110 0.087073
C14   C     C_R   0.639397 0.709040 0.063249 -0.259827
C15   C     C_R   0.648553 0.686228 0.114850 0.508475
C16   C     C_R   0.553643 0.678583 0.134265 -0.086502
C17   C     C_R   0.450470 0.695277 0.101596 -0.175477
C18   C     C_R   0.354734 0.689247 0.120930 -0.129716
C19   C     C_R   0.365091 0.669539 0.173189 0.622946
C20   C     C_R   0.558763 0.649112 0.184987 0.655747
C21   C     C_R   0.513195 0.666968 0.295050 0.458955
C22   C     C_R   0.522249 0.629182 0.344199 -0.278925
C23   C     C_R   0.560835 0.308827 0.506304 0.984594
C24   C     C_R   0.447474 0.472307 0.310870 -0.183325
C25   C     C_R   0.440330 0.509379 0.260769 0.384672
C26   C     C_R   0.473196 0.606526 0.253560 0.205744
C27   C     C_R   0.529438 0.743892 0.977299 0.002448
C28   C     C_R   0.436068 0.716709 0.943943 0.073931
C29   C     C_R   0.341312 0.702979 0.962576 0.075476
C30   C     C_R   0.613135 0.779031 0.955879 -0.073244
C31   C     C_R   0.258600 0.646696 0.878259 -0.116476
C32   C     C_R   0.247472 0.715774 0.035543 -0.211790
C33   C     C_R   0.252509 0.702389 0.087281 0.491384
C34   C     C_R   0.498780 0.503001 0.405584 0.941289
C35   C     C_R   0.252032 0.670338 0.928471 -0.200647
C36   C     C_R   0.693027 0.074865 0.582133 0.475784
C37   C     C_R   0.598987 0.200598 0.518037 -0.185834
C38   C     C_R   0.304749 0.838818 0.459458 -0.171822
C39   C     C_R   0.279509 0.944360 0.449068 -0.113919
C40   C     C_R   0.354017 0.011360 0.469322 -0.106500
C41   C     C_R   0.452598 0.973367 0.502215 0.114380
C42   C     C_R   0.464300 0.872370 0.521694 -0.035746
C43   C     C_R   0.537660 0.034184 0.517821 -0.023984
C44   C     C_R   0.618107 0.005265 0.562006 -0.078146
C45   C     C_R   0.537840 0.686731 0.822738 0.538285
C46   C     C_R   0.616510 0.911770 0.586664 -0.227153
C47   C     C_R   0.540887 0.845405 0.567253 0.418434
C48   C     C_R   0.543984 0.124322 0.491174 -0.126945
C49   C     C_R   0.676263 0.174968 0.562349 -0.125616
C50   C     C_R   0.399548 0.801978 0.494295 -0.131247
C51   C     C_R   0.120536 0.302545 0.463184 -0.259943
C52   C     C_R   0.792918 0.642165 0.553056 0.058948
C53   C     C_R   0.895313 0.674172 0.564924 -0.230612
C54   C     C_R   0.981945 0.616273 0.548060 -0.154186
C55   C     C_R   0.966375 0.525019 0.519594 0.024664
C56   C     C_R   0.364403 0.626202 0.810918 0.516861
C57   C     C_R   0.861101 0.493996 0.509023 0.150132
C58   C     C_R   0.050280 0.465103 0.499652 -0.003849
C59   C     C_R   0.036487 0.362592 0.482108 0.069117
C60   C     C_R   0.936387 0.325841 0.481225 -0.161823
C61   C     C_R   0.846101 0.400174 0.481957 -0.107600
C62   C     C_R   0.146958 0.503591 0.495694 -0.010858
C63   C     C_R   0.211374 0.346640 0.458135 0.070527
C64   C     C_R   0.559814 0.533532 0.736918 -0.204842
C65   C     C_R   0.571716 0.497824 0.688098 0.429515
C66   C     C_R   0.396505 0.596649 0.653385 -0.305887
H1    H     H_    0.333098 0.623212 0.621268 0.160615
H2    H     H_    0.621517 0.507927 0.769783 0.157073
H3    H     H_    0.190110 0.617302 0.854057 0.198041
H4    H     H_    0.167624 0.725268 0.011534 0.180569
H5    H     H_    0.178886 0.655085 0.940451 0.156710
H6    H     H_    0.722803 0.233150 0.582022 0.204265
H7    H     H_    0.670779 0.890480 0.622364 0.189099
H8    H     H_    0.317476 0.689318 0.705606 0.169099
H9    H     H_    0.252236 0.785864 0.439175 0.172893
H10   H     H_    0.333900 0.092592 0.459200 0.109638
H11   H     H_    0.205412 0.973415 0.423028 0.167645
H12   H     H_    0.276663 0.300399 0.443961 0.154146
H13   H     H_    0.117177 0.222968 0.451399 0.177177
H14   H     H_    0.164918 0.579130 0.509431 0.113982
H15   H     H_    0.725650 0.686996 0.566195 0.177387
H16   H     H_    0.681512 0.782465 0.888485 0.223847
H17   H     H_    0.060710 0.642478 0.559069 0.135624
H18   H     H_    0.907494 0.743598 0.587206 0.155070
H19   H     H_    0.552738 0.676210 0.376399 0.175559
H20   H     H_    0.713671 0.706142 0.048757 0.146029
N1    N     N_R   0.456563 0.639714 0.793338 -0.344517
N2    N     N_R   0.465519 0.644081 0.202878 -0.329144
N3    N     N_R   0.222180 0.444690 0.474320 -0.101414
N4    N     N_R   0.776980 0.554780 0.525420 -0.131228
O1    O     O_R   0.366730 0.627160 0.487740 -0.631689
O2    O     O_2   0.655784 0.623589 0.216212 -0.426274
O3    O     O_2   0.285254 0.579578 0.781479 -0.554420
O4    O     O_2   0.276367 0.675094 0.194605 -0.494888
O5    O     O_R   0.544830 0.662520 0.504140 -0.597353
O6    O     O_R   0.410970 0.482310 0.563040 -0.636385
O7    O     O_R   0.589070 0.517670 0.579450 -0.553688
O8    O     O_R   0.455170 0.337480 0.495860 -0.617764
O9    O     O_R   0.633270 0.372840 0.512260 -0.607110
O10   O     O_R   0.410930 0.482330 0.420550 -0.552694
O11   O     O_R   0.589030 0.517690 0.436960 -0.605485
O12   O     O_2   0.624270 0.705910 0.803411 -0.542050
Zn1   Zn    Zn3+2 0.381080 0.476390 0.489050 0.977292
Zn2   Zn    Zn3+2 0.618920 0.523610 0.510950 1.006887
C67   C     C_2   0.415690 0.369720 0.319499 0.953637
O13   O     O_2   0.467849 0.291091 0.306618 -0.576846
O14   O     O_R   0.324126 0.363309 0.340708 -0.752235
H21   H     H_    0.309080 0.289231 0.343591 0.354115
O15   O     O_3   0.156080 0.696322 0.102882 -0.693463
H22   H     H_    0.163071 0.626870 0.118601 0.368763
O16   O     O_3   0.401829 0.454335 0.217726 -0.731063
H23   H     H_    0.366669 0.395817 0.226843 0.362114
O17   O     O_3   0.776787 0.051825 0.623216 -0.735825
H24   H     H_    0.804296 0.977164 0.622001 0.326970
C68   C     C_2   0.511508 0.131156 0.434468 0.936274
O18   O     O_2   0.493087 0.215063 0.412821 -0.616937
O19   O     O_R   0.507667 0.040266 0.405587 -0.781959
H25   H     H_    0.485957 0.054558 0.367700 0.369104
O20   O     O_3   0.538147 0.760243 0.596502 -0.757935
H26   H     H_    0.462662 0.743083 0.590047 0.312813
C69   C     C_2   0.917337 0.217161 0.468086 0.976493
O21   O     O_2   0.938051 0.177739 0.428673 -0.607353
O22   O     O_R   0.867976 0.162885 0.499643 -0.777318
H27   H     H_    0.855481 0.090977 0.486391 0.350708
C70   C     C_2   0.769441 0.402508 0.432912 0.997302
O23   O     O_2   0.768230 0.470879 0.402071 -0.593458
O24   O     O_R   0.706757 0.321537 0.419523 -0.764638
H28   H     H_    0.662123 0.329249 0.383744 0.361645
O25   O     O_3   0.541694 0.762988 0.286343 -0.708460
H29   H     H_    0.567966 0.795700 0.319434 0.355139
O26   O     O_3   0.749814 0.669793 0.146388 -0.665730
H30   H     H_    0.806980 0.679570 0.126942 0.349151
C71   C     C_2   0.690473 0.846792 0.984089 0.914436
O27   O     O_2   0.779565 0.848061 0.972821 -0.605287
O28   O     O_R   0.660116 0.911489 0.022706 -0.770355
H31   H     H_    0.719356 0.954050 0.038940 0.365272
O29   O     O_3   0.661925 0.431697 0.680443 -0.752342
H32   H     H_    0.711994 0.417478 0.713620 0.347402

loop_
_geom_bond_atom_site_label_1
_geom_bond_atom_site_label_2
_ccdc_geom_bond_type
C10   C27   A    
C58   C62   A    
C23   O9    A    
C21   C26   A    
C8    C66   A    
C6    H16   S    
C1    O5    A    
C41   C42   A    
C67   O13   D    
C52   N4    A    
O16   H23   S    
O22   H27   S    
C53   C54   A    
C52   C53   A    
C67   O14   S    
C53   H18   S    
C64   H2    S    
C62   H14   S    
C28   C29   A    
C45   N1    A    
O17   H24   S    
C5    C6    A    
C9    C22   A    
C68   O18   D    
C62   N3    A    
C18   C19   A    
C22   H19   S    
C54   C55   A    
C16   C17   A    
C68   O19   S    
C49   H6    S    
C34   O10   A    
O14   H21   S    
C43   C48   A    
C2    H8    S    
C16   C20   A    
C65   O29   S    
C47   O20   S    
O9    Zn2   S    
C35   H5    S    
C8    C65   A    
C1    O1    A    
C21   C22   A    
N3    Zn1   S    
C27   C30   A    
C41   C43   A    
C60   C69   S    
C7    C56   A    
C4    C7    A    
C36   O17   S    
C54   H17   S    
C4    C28   A    
C44   C46   A    
C38   H9    S    
C56   O3    S    
C34   O11   A    
C7    C31   A    
C57   N4    A    
C3    N1    S    
O28   H31   S    
C51   C63   A    
C24   C25   A    
C14   H20   S    
C19   N2    A    
C10   C14   A    
C39   C40   A    
C56   N1    A    
C32   H4    S    
C58   C59   A    
C23   C37   S    
C5    C45   A    
O10   Zn1   S    
C40   H10   S    
C60   C61   A    
C38   C39   A    
C43   C44   A    
C37   C49   A    
C31   H3    S    
C8    C12   S    
C30   C71   S    
N4    Zn2   S    
C63   N3    A    
C17   C18   A    
C69   O21   D    
C37   C48   A    
C21   O25   S    
C12   O7    A    
C19   O4    S    
C42   C50   A    
C48   C68   S    
C40   C41   A    
C6    C30   A    
C11   C32   A    
O11   Zn2   S    
C55   C57   A    
C70   O23   D    
C31   C35   A    
C20   O2    S    
C51   C59   A    
O26   H30   S    
C39   H11   S    
O5    Zn2   S    
C70   O24   S    
O25   H29   S    
C1    C50   S    
C46   C47   A    
O1    Zn1   S    
C4    C5    A    
C2    C66   A    
C10   C13   A    
O20   H26   S    
C9    C24   A    
C57   C61   A    
O24   H28   S    
C38   C50   A    
O29   H32   S    
C29   C35   A    
C13   C17   A    
C64   C65   A    
C2    C3    A    
C25   C26   A    
O19   H25   S    
C32   C33   A    
C11   C13   A    
C71   O27   D    
C15   C16   A    
C20   N2    A    
C9    C34   S    
C66   H1    S    
C33   O15   S    
C42   C47   A    
C3    C64   A    
C52   H15   S    
C18   C33   A    
C51   H13   S    
C69   O22   S    
O7    Zn2   S    
C36   C44   A    
C45   O12   S    
C25   O16   S    
C59   C60   A    
C23   O8    A    
C15   O26   S    
C11   C29   A    
C26   N2    S    
C55   C58   A    
O15   H22   S    
C27   C28   A    
C71   O28   S    
C14   C15   A    
C12   O6    A    
C61   C70   S    
C24   C67   S    
O6    Zn1   S    
C46   H7    S    
C36   C49   A    
O8    Zn1   S    
C63   H12   S    
