data_mof_unit_29021.cif
_audit_creation_date              2012-12-10T17:33:02-0500
_audit_creation_method            fapswitch 2.2
_symmetry_space_group_name_H-M    P1
_symmetry_Int_Tables_number       1
_space_group_crystal_system       triclinic
_cell_length_a                    12.458322
_cell_length_b                    13.285157
_cell_length_c                    14.304391
_cell_angle_alpha                 94.230888
_cell_angle_beta                  108.174724
_cell_angle_gamma                 117.605459
_cell_volume                      1925.16454526

loop_
_atom_site_label
_atom_site_type_symbol
_atom_type_description
_atom_site_fract_x
_atom_site_fract_y
_atom_site_fract_z
_atom_type_partial_charge
C1    C     C_R   0.650652 0.714131 0.508515 0.788848
C2    C     C_R   0.882561 0.548026 0.926077 0.089384
C3    C     C_R   0.836675 0.568306 0.000445 0.170608
C4    C     C_R   0.999168 0.541925 0.955909 0.064827
C5    C     C_R   0.058598 0.541341 0.058148 0.068147
C6    C     C_R   0.011826 0.564668 0.130620 -0.218032
C7    C     C_R   0.903658 0.578944 0.102085 -0.239885
C8    C     C_R   0.059281 0.537992 0.887466 -0.226717
C9    C     C_R   0.168714 0.525417 0.916495 -0.232385
C10   C     C_R   0.220448 0.513784 0.013694 0.165531
C11   C     C_R   0.164538 0.519677 0.084892 0.088355
C12   C     C_R   0.619974 0.518997 0.686915 0.795474
C13   C     C_R   0.327965 0.496481 0.040703 -0.198775
C14   C     C_R   0.380482 0.484512 0.137768 -0.199354
C15   C     C_R   0.214735 0.500996 0.179979 -0.248548
C16   C     C_R   0.134086 0.960016 0.358608 0.181517
C17   C     C_R   0.247752 0.160190 0.462270 -0.095121
C18   C     C_R   0.732236 0.925133 0.571050 -0.186427
C19   C     C_R   0.822858 0.043853 0.588044 0.227151
C20   C     C_R   0.922472 0.075620 0.551315 -0.209751
C21   C     C_R   0.929975 0.989581 0.493301 0.052334
C22   C     C_R   0.826687 0.871175 0.464678 0.081990
C23   C     C_R   0.345174 0.284935 0.484839 0.809885
C24   C     C_R   0.035622 0.017709 0.461351 0.049299
C25   C     C_R   0.028721 0.931187 0.390794 0.152872
C26   C     C_R   0.915813 0.818817 0.352854 -0.239285
C27   C     C_R   0.816448 0.789730 0.388436 -0.191193
C28   C     C_R   0.149179 0.129442 0.499396 -0.270548
C29   C     C_R   0.242104 0.075253 0.394072 -0.189759
C30   C     C_R   0.735117 0.838015 0.511897 -0.151703
C31   C     C_R   0.262876 0.696048 0.660398 0.085095
C32   C     C_R   0.646968 0.327064 0.376639 0.080979
C33   C     C_R   0.714209 0.269045 0.374260 -0.263505
C34   C     C_R   0.382627 0.484567 0.313486 0.779312
C35   C     C_R   0.848109 0.325349 0.433810 -0.206268
C36   C     C_R   0.921643 0.445900 0.487009 0.020270
C37   C     C_R   0.844103 0.493740 0.499545 0.287096
C38   C     C_R   0.065565 0.517427 0.534946 -0.080659
C39   C     C_R   0.123813 0.624861 0.609172 0.113930
C40   C     C_R   0.042006 0.660008 0.630859 -0.276191
C41   C     C_R   0.906728 0.597508 0.576341 -0.205510
C42   C     C_R   0.154583 0.492403 0.507975 0.308766
C43   C     C_R   0.343238 0.663949 0.632993 0.013364
C44   C     C_R   0.692942 0.536479 0.795266 -0.052845
C45   C     C_R   0.324031 0.487067 0.207964 -0.048689
C46   C     C_R   0.723156 0.576577 0.972161 -0.202665
C47   C     C_R   0.652061 0.561459 0.870147 -0.194463
C48   C     C_R   0.806988 0.529638 0.823645 -0.257178
Cu1   Cu    Cu3+1 0.416420 0.526630 0.522910 0.924757
Cu2   Cu    Cu3+1 0.583580 0.473370 0.477090 0.917595
H1    H     H_    0.870706 0.596160 0.159862 0.137201
H2    H     H_    0.372200 0.493378 0.987032 0.130984
H3    H     H_    0.319553 0.099872 0.365671 0.147441
H4    H     H_    0.903042 0.751686 0.295697 0.149468
H5    H     H_    0.163542 0.195563 0.558102 0.156685
H6    H     H_    0.660641 0.900675 0.605561 0.153827
H7    H     H_    0.729753 0.703195 0.352826 0.172161
H8    H     H_    0.449313 0.717411 0.671143 0.135300
H9    H     H_    0.081951 0.738927 0.689103 0.171734
H10   H     H_    0.541541 0.281174 0.334600 0.123595
H11   H     H_    0.887939 0.269019 0.441394 0.161513
H12   H     H_    0.661336 0.178206 0.330950 0.150157
H13   H     H_    0.853860 0.631287 0.599853 0.204858
H14   H     H_    0.465660 0.474462 0.158076 0.151176
H15   H     H_    0.564453 0.567754 0.849882 0.152185
H16   H     H_    0.832873 0.505945 0.763994 0.159708
H17   H     H_    0.059121 0.576021 0.210995 0.147175
H18   H     H_    0.026720 0.548265 0.811538 0.154353
N1    N     N_R   0.290690 0.566960 0.557640 -0.195147
N2    N     N_R   0.709100 0.433710 0.442970 -0.208462
O1    O     O_R   0.545970 0.684450 0.528810 -0.576274
O2    O     O_R   0.687130 0.639470 0.490120 -0.601037
O3    O     O_R   0.519670 0.535100 0.660030 -0.580908
O4    O     O_R   0.660830 0.490120 0.621340 -0.593007
O5    O     O_R   0.312870 0.360530 0.509880 -0.582436
O6    O     O_R   0.454030 0.315550 0.471190 -0.584270
O7    O     O_R   0.339170 0.509880 0.378660 -0.589642
O8    O     O_R   0.480330 0.464900 0.339970 -0.592298
C49   C     C_3   0.132176 0.871039 0.285074 -0.888517
H19   H     H_    0.122882 0.795047 0.316962 0.236086
H20   H     H_    0.048120 0.840243 0.211044 0.236678
H21   H     H_    0.223810 0.908739 0.270359 0.235205
H22   H     H_    0.989997 0.168556 0.566690 0.130892
C50   C     C_3   0.817113 0.137593 0.648147 -0.869955
H23   H     H_    0.733721 0.099313 0.673104 0.231226
H24   H     H_    0.910067 0.190143 0.716819 0.235945
H25   H     H_    0.804500 0.196753 0.600528 0.241642
H26   H     H_    0.168868 0.495159 0.233451 0.152618
C51   C     C_3   0.328199 0.807063 0.743685 -0.901461
H27   H     H_    0.294903 0.785979 0.806954 0.240308
H28   H     H_    0.437178 0.849983 0.775721 0.227736
H29   H     H_    0.302967 0.871106 0.712942 0.245161
C52   C     C_3   0.097543 0.385751 0.421844 -0.778267
H30   H     H_    0.159290 0.382203 0.385234 0.266085
H31   H     H_    0.070957 0.306590 0.451323 0.198169
H32   H     H_    0.015548 0.378876 0.356588 0.195199
H33   H     H_    0.212035 0.523257 0.861895 0.147681
H34   H     H_    0.688643 0.593547 0.028914 0.129603

loop_
_geom_bond_atom_site_label_1
_geom_bond_atom_site_label_2
_ccdc_geom_bond_type
C52   H30   S    
C12   O4    A    
C42   C52   S    
C17   C29   A    
C35   C36   A    
C50   H25   S    
C23   O6    A    
C4    C8    A    
C26   C27   A    
C17   C23   S    
C31   C43   A    
C21   C22   A    
C36   C37   A    
C50   H24   S    
C5    C11   A    
C3    C7    A    
Cu2   O4    S    
C34   O7    A    
C5    C6    A    
Cu2   O8    S    
C18   C19   A    
Cu2   O2    S    
C43   H8    S    
C11   C15   A    
C19   C20   A    
C31   C39   A    
C8    C9    A    
C31   C51   S    
Cu1   O5    S    
C18   C30   A    
C51   H28   S    
C9    C10   A    
C44   C47   A    
C18   H6    S    
C46   H34   S    
C52   H31   S    
C40   H9    S    
Cu1   N1    S    
C13   C14   A    
C37   C41   A    
C26   H4    S    
C28   H5    S    
C14   C45   A    
C1    O2    A    
C50   H23   S    
C27   H7    S    
C39   C40   A    
C49   H20   S    
C33   H12   S    
C32   N2    A    
C2    C48   A    
C16   C29   A    
C42   N1    A    
C2    C4    A    
Cu2   O6    S    
C13   H2    S    
C14   H14   S    
C35   H11   S    
C34   C45   S    
C1    O1    A    
C24   C25   A    
C51   H29   S    
C40   C41   A    
C8    H18   S    
C52   H32   S    
C22   C27   A    
Cu1   O3    S    
C20   H22   S    
C32   H10   S    
C19   C50   S    
C16   C25   A    
C46   C47   A    
C6    H17   S    
C9    H33   S    
C22   C30   A    
C17   C28   A    
C24   C28   A    
C23   O5    A    
C4    C5    A    
C10   C13   A    
C49   H21   S    
C38   C42   A    
C6    C7    A    
C3    C46   A    
C16   C49   S    
C37   N2    A    
C32   C33   A    
C36   C38   A    
C2    C3    A    
C25   C26   A    
C7    H1    S    
C12   C44   S    
C34   O8    A    
C38   C39   A    
C29   H3    S    
C1    C30   S    
C33   C35   A    
Cu1   O7    S    
Cu2   N2    S    
C10   C11   A    
C49   H19   S    
C20   C21   A    
C43   N1    A    
Cu1   Cu2   S    
Cu1   O1    S    
C21   C24   A    
C41   H13   S    
C48   H16   S    
C51   H27   S    
C12   O3    A    
C47   H15   S    
C44   C48   A    
C15   H26   S    
C15   C45   A    
