data_mof_unit_34810.cif
_audit_creation_date              2012-12-10T18:06:40-0500
_audit_creation_method            fapswitch 2.2
_symmetry_space_group_name_H-M    P1
_symmetry_Int_Tables_number       1
_space_group_crystal_system       triclinic
_cell_length_a                    12.592202
_cell_length_b                    13.227486
_cell_length_c                    15.432466
_cell_angle_alpha                 83.391126
_cell_angle_beta                  98.753892
_cell_angle_gamma                 96.542724
_cell_volume                      2511.45353546

loop_
_atom_site_label
_atom_site_type_symbol
_atom_type_description
_atom_site_fract_x
_atom_site_fract_y
_atom_site_fract_z
_atom_type_partial_charge
C1    C     C_R   0.444365 0.308352 0.511405 0.865221
C2    C     C_R   0.458466 0.576119 0.095768 0.046323
C3    C     C_R   0.351987 0.599533 0.060414 0.149647
C4    C     C_R   0.537936 0.577399 0.039977 0.065042
C5    C     C_R   0.504684 0.580801 0.948585 0.017449
C6    C     C_R   0.401021 0.610218 0.913822 -0.236995
C7    C     C_R   0.325362 0.621747 0.968598 0.186101
C8    C     C_R   0.649049 0.572958 0.072421 -0.214407
C9    C     C_R   0.722333 0.558937 0.016943 -0.240670
C10   C     C_R   0.685989 0.544390 0.928985 0.179489
C11   C     C_R   0.576177 0.553412 0.894899 0.107182
C12   C     C_R   0.436190 0.515505 0.335785 0.868096
C13   C     C_R   0.757006 0.518730 0.874944 -0.206354
C14   C     C_R   0.718719 0.498616 0.788274 -0.205974
C15   C     C_R   0.538693 0.527151 0.810021 -0.262264
C16   C     C_R   0.729675 0.933417 0.533731 -0.201712
C17   C     C_R   0.592974 0.798798 0.490886 -0.049236
C18   C     C_R   0.301766 0.173038 0.471037 -0.247626
C19   C     C_R   0.276965 0.084555 0.428947 -0.153935
C20   C     C_R   0.357811 0.022186 0.423427 0.208999
C21   C     C_R   0.460925 0.038329 0.476804 0.058731
C22   C     C_R   0.485345 0.129097 0.519102 0.046816
C23   C     C_R   0.556747 0.691106 0.490950 0.864776
C24   C     C_R   0.541392 0.969301 0.489553 0.082779
C25   C     C_R   0.648845 0.999680 0.527061 0.173086
C26   C     C_R   0.671383 0.090782 0.565717 -0.247797
C27   C     C_R   0.588584 0.150326 0.567911 -0.180448
C28   C     C_R   0.514549 0.866764 0.477795 -0.271310
C29   C     C_R   0.701890 0.833038 0.513930 -0.197600
C30   C     C_R   0.408113 0.200125 0.508120 -0.112045
C31   C     C_R   0.137968 0.639791 0.623489 -0.308663
C32   C     C_R   0.757783 0.379763 0.396549 0.020602
C33   C     C_R   0.853337 0.353920 0.374792 -0.254993
C34   C     C_R   0.565486 0.489990 0.663894 0.852587
C35   C     C_R   0.950986 0.399417 0.414202 -0.201325
C36   C     C_R   0.952908 0.471251 0.475910 0.017784
C37   C     C_R   0.853309 0.494539 0.495904 0.237150
C38   C     C_R   0.048967 0.520535 0.518483 -0.012962
C39   C     C_R   0.043703 0.590966 0.580535 0.201025
C40   C     C_R   0.944509 0.612012 0.599013 -0.302099
C41   C     C_R   0.850616 0.564515 0.556930 -0.228692
C42   C     C_R   0.150943 0.503010 0.502056 -0.056937
C43   C     C_R   0.236375 0.618729 0.604336 0.009413
C44   C     C_R   0.403569 0.540744 0.241420 -0.058315
C45   C     C_R   0.608744 0.501874 0.755981 -0.058049
C46   C     C_R   0.274643 0.597975 0.117932 -0.197687
C47   C     C_R   0.300554 0.569338 0.207731 -0.204436
C48   C     C_R   0.480815 0.543781 0.185357 -0.243291
H1    H     H_    0.841655 0.513583 0.899867 0.136822
H2    H     H_    0.763684 0.780564 0.524231 0.155679
H3    H     H_    0.751173 0.112344 0.599751 0.149455
H4    H     H_    0.812578 0.957105 0.559596 0.137068
H5    H     H_    0.430894 0.836943 0.466129 0.185076
H6    H     H_    0.241030 0.226331 0.464257 0.162650
H7    H     H_    0.197191 0.070969 0.391984 0.150327
H8    H     H_    0.606869 0.214790 0.606838 0.164226
H9    H     H_    0.310742 0.655271 0.636747 0.132729
H10   H     H_    0.453506 0.523125 0.785797 0.162967
H11   H     H_    0.939362 0.665587 0.646033 0.155615
H12   H     H_    0.135478 0.693364 0.671102 0.141527
H13   H     H_    0.163663 0.451589 0.456269 0.122565
H14   H     H_    0.681246 0.344884 0.366379 0.143644
H15   H     H_    0.022840 0.376560 0.395182 0.133307
H16   H     H_    0.851799 0.298929 0.327693 0.151034
H17   H     H_    0.776960 0.584064 0.573561 0.213925
H18   H     H_    0.774757 0.480668 0.746873 0.164230
H19   H     H_    0.806588 0.554872 0.043881 0.144178
H20   H     H_    0.193428 0.617363 0.094219 0.150539
H21   H     H_    0.239849 0.569079 0.250532 0.158946
H22   H     H_    0.557854 0.516901 0.212199 0.160771
H23   H     H_    0.378450 0.627037 0.843678 0.147777
H24   H     H_    0.681617 0.582383 0.140213 0.148969
N1    N     N_R   0.239390 0.551900 0.544730 -0.102291
N2    N     N_R   0.759950 0.448600 0.455730 -0.132544
O1    O     O_R   0.374950 0.371210 0.521360 -0.611719
O2    O     O_R   0.542050 0.338030 0.492790 -0.612692
O3    O     O_R   0.368720 0.526070 0.390200 -0.617240
O4    O     O_R   0.535820 0.492890 0.361630 -0.620252
O5    O     O_R   0.457950 0.661970 0.507210 -0.617516
O6    O     O_R   0.625050 0.628790 0.478640 -0.634024
O7    O     O_R   0.464180 0.507110 0.638370 -0.614998
O8    O     O_R   0.631280 0.473930 0.609800 -0.640247
Zn1   Zn    Zn3+2 0.388420 0.522150 0.519080 0.936288
Zn2   Zn    Zn3+2 0.611580 0.477850 0.480920 0.925034
C49   C     C_3   0.215847 0.652999 0.927248 -0.944095
H25   H     H_    0.209977 0.668843 0.854487 0.240216
H26   H     H_    0.152185 0.590732 0.941751 0.239493
H27   H     H_    0.200435 0.723683 0.953759 0.243092
C50   C     C_3   0.334725 0.953671 0.349417 -0.956602
H28   H     H_    0.409773 0.934211 0.328574 0.253679
H29   H     H_    0.283282 0.883378 0.368972 0.243599
H30   H     H_    0.290572 0.993937 0.289922 0.246318

loop_
_geom_bond_atom_site_label_1
_geom_bond_atom_site_label_2
_ccdc_geom_bond_type
C43   N1    A    
C37   N2    A    
C17   C29   A    
C19   C20   A    
O6    Zn2   S    
O2    Zn2   S    
C49   H25   S    
C26   C27   A    
C17   C23   S    
C31   C43   A    
C5    C6    A    
C36   C37   A    
C38   C42   A    
C3    C7    A    
C32   N2    A    
C38   C39   A    
O3    Zn1   S    
C18   C19   A    
C47   H21   S    
C11   C15   A    
C35   C36   A    
C8    C9    A    
C12   O4    A    
C18   C30   A    
C34   O7    A    
C23   O6    A    
C50   H29   S    
C9    C10   A    
C44   C47   A    
C4    C8    A    
C40   H11   S    
C13   C14   A    
C17   C28   A    
O7    Zn1   S    
C14   C45   A    
C29   H2    S    
C49   H26   S    
C6    H23   S    
C8    H24   S    
C1    O1    A    
C16   H4    S    
C24   C25   A    
C48   H22   S    
C39   C40   A    
C18   H6    S    
C27   H8    S    
C41   H17   S    
C2    C48   A    
C25   C26   A    
C31   H12   S    
C2    C4    A    
C9    H19   S    
C46   H20   S    
C12   O3    A    
C14   H18   S    
C34   C45   S    
C50   H30   S    
C42   H13   S    
C13   H1    S    
C40   C41   A    
O8    Zn2   S    
C22   C27   A    
C15   H10   S    
C15   C45   A    
C49   H27   S    
C19   H7    S    
C16   C25   A    
C46   C47   A    
C42   N1    A    
C22   C30   A    
C1    O2    A    
C24   C28   A    
N2    Zn2   S    
C4    C5    A    
C10   C13   A    
C28   H5    S    
C5    C11   A    
C6    C7    A    
C20   C50   S    
C3    C46   A    
C32   C33   A    
C36   C38   A    
C2    C3    A    
C16   C29   A    
C32   H14   S    
C12   C44   S    
C26   H3    S    
O5    Zn1   S    
O1    Zn1   S    
C7    C49   S    
C33   H16   S    
C1    C30   S    
C33   C35   A    
C31   C39   A    
C37   C41   A    
C10   C11   A    
C43   H9    S    
O4    Zn2   S    
C20   C21   A    
C21   C24   A    
C35   H15   S    
C34   O8    A    
C23   O5    A    
C50   H28   S    
C21   C22   A    
N1    Zn1   S    
C44   C48   A    
