data_mof_unit_66170.cif
_audit_creation_date              2012-12-10T20:17:42-0500
_audit_creation_method            fapswitch 2.2
_symmetry_space_group_name_H-M    P1
_symmetry_Int_Tables_number       1
_space_group_crystal_system       triclinic
_cell_length_a                    19.305055
_cell_length_b                    18.449625
_cell_length_c                    23.433489
_cell_angle_alpha                 90.043563
_cell_angle_beta                  90.158552
_cell_angle_gamma                 90.271543
_cell_volume                      8346.20161799

loop_
_atom_site_label
_atom_site_type_symbol
_atom_type_description
_atom_site_fract_x
_atom_site_fract_y
_atom_site_fract_z
_atom_type_partial_charge
C1    C     C_R   0.366022 0.499831 0.498626 0.971029
C2    C     C_R   0.634127 0.500227 0.499897 0.985598
C3    C     C_R   0.497149 0.434091 0.237803 -0.117128
C4    C     C_R   0.492852 0.565974 0.762030 -0.100633
C5    C     C_R   0.498492 0.434017 0.297019 -0.155062
C6    C     C_R   0.494209 0.565941 0.702836 -0.216771
C7    C     C_R   0.498067 0.499920 0.327005 -0.011343
C8    C     C_R   0.498486 0.500097 0.673006 -0.004074
C9    C     C_R   0.495896 0.565771 0.297103 -0.223134
C10   C     C_R   0.501052 0.434371 0.703056 -0.190297
C11   C     C_R   0.494503 0.565639 0.237904 -0.095103
C12   C     C_R   0.499630 0.434608 0.762263 -0.099896
C13   C     C_R   0.495295 0.499862 0.208335 0.314231
C14   C     C_R   0.495648 0.500365 0.791638 0.317078
C15   C     C_R   0.745128 0.465360 0.454212 -0.048728
C16   C     C_R   0.255270 0.526035 0.546372 -0.045094
C17   C     C_R   0.254704 0.479651 0.447559 -0.052079
C18   C     C_R   0.746052 0.540446 0.541289 -0.042010
C19   C     C_R   0.817225 0.468164 0.453684 -0.190719
C20   C     C_R   0.183603 0.532094 0.543770 -0.193816
C21   C     C_R   0.182712 0.484727 0.447323 -0.185079
C22   C     C_R   0.817969 0.543153 0.538626 -0.194825
C23   C     C_R   0.853095 0.506908 0.495464 0.051571
C24   C     C_R   0.147338 0.510293 0.495078 0.052491
C25   C     C_R   0.709233 0.501267 0.498774 -0.196816
C26   C     C_R   0.291119 0.499733 0.497954 -0.188853
C27   C     C_R   0.499489 0.499984 0.389193 0.974681
C28   C     C_R   0.499824 0.500010 0.610808 0.999293
C29   C     C_R   0.964324 0.483921 0.542975 -0.166301
C30   C     C_R   0.035284 0.535749 0.447239 -0.168728
C31   C     C_R   0.035999 0.484800 0.542926 -0.169143
C32   C     C_R   0.963436 0.533974 0.447060 -0.167039
C33   C     C_R   0.071822 0.510948 0.495155 0.120394
C34   C     C_R   0.928096 0.508263 0.495021 0.118049
C35   C     C_R   0.541959 0.726088 0.536951 0.036531
C36   C     C_R   0.458431 0.273774 0.462841 0.036164
C37   C     C_R   0.458142 0.725749 0.463072 0.032514
C38   C     C_R   0.541690 0.274358 0.537127 0.032525
C39   C     C_R   0.542822 0.802114 0.537718 -0.260529
C40   C     C_R   0.457729 0.197750 0.462106 -0.271441
C41   C     C_R   0.457458 0.801760 0.462353 -0.264379
C42   C     C_R   0.542562 0.198344 0.537863 -0.263357
C43   C     C_R   0.500189 0.841328 0.500040 0.113006
C44   C     C_R   0.500182 0.158645 0.499991 0.117638
C45   C     C_R   0.493748 0.961844 0.448759 -0.170854
C46   C     C_R   0.506809 0.038109 0.551279 -0.170704
C47   C     C_R   0.506836 0.962030 0.551290 -0.169406
C48   C     C_R   0.493748 0.037918 0.448744 -0.170488
C49   C     C_R   0.500254 0.077294 0.500005 0.120244
C50   C     C_R   0.500277 0.922666 0.500032 0.120323
C51   C     C_R   0.553314 0.523636 0.880734 0.503777
C52   C     C_R   0.437108 0.477013 0.119250 0.504839
C53   C     C_R   0.437268 0.477462 0.880288 0.505960
C54   C     C_R   0.553247 0.522931 0.119586 0.506288
C55   C     C_R   0.435956 0.476823 0.939872 -0.018020
C56   C     C_R   0.554432 0.523763 0.060030 -0.018052
C57   C     C_R   0.495184 0.500423 0.969989 -0.020801
C58   C     C_R   0.495161 0.500258 0.029939 -0.021132
C59   C     C_R   0.554462 0.524143 0.940300 -0.016479
C60   C     C_R   0.435894 0.476555 0.059654 -0.016189
C61   C     C_R   0.377148 0.453351 0.969856 -0.155491
C62   C     C_R   0.613229 0.547272 0.030059 -0.155533
C63   C     C_R   0.377113 0.453232 0.029267 -0.155245
C64   C     C_R   0.613237 0.547479 0.970672 -0.154928
H1    H     H_    0.331060 0.435019 0.947564 0.194703
H2    H     H_    0.659342 0.565556 0.052342 0.194802
H3    H     H_    0.575036 0.696225 0.565832 0.143546
H4    H     H_    0.425554 0.303502 0.433749 0.163540
H5    H     H_    0.425030 0.695630 0.434149 0.126668
H6    H     H_    0.574551 0.304565 0.566186 0.129322
H7    H     H_    0.577365 0.829863 0.567008 0.147226
H8    H     H_    0.423446 0.169925 0.432657 0.143478
H9    H     H_    0.422983 0.829222 0.433074 0.140113
H10   H     H_    0.576920 0.170995 0.567299 0.140566
H11   H     H_    0.489797 0.933696 0.408324 0.136735
H12   H     H_    0.510727 0.066243 0.591720 0.136945
H13   H     H_    0.510787 0.934015 0.591732 0.137784
H14   H     H_    0.489816 0.065911 0.408292 0.137312
H15   H     H_    0.330994 0.434819 0.051242 0.194690
H16   H     H_    0.659356 0.565906 0.948703 0.195171
H17   H     H_    0.497955 0.383233 0.214717 0.144570
H18   H     H_    0.489703 0.616804 0.784997 0.143764
H19   H     H_    0.500053 0.382566 0.319201 0.167869
H20   H     H_    0.491978 0.617281 0.680538 0.163332
H21   H     H_    0.495301 0.617253 0.319335 0.162497
H22   H     H_    0.504349 0.382943 0.680935 0.158038
H23   H     H_    0.492945 0.616491 0.214893 0.143547
H24   H     H_    0.502001 0.383903 0.785422 0.141539
H25   H     H_    0.845869 0.440835 0.420305 0.179763
H26   H     H_    0.155491 0.552425 0.580382 0.178330
H27   H     H_    0.153640 0.467129 0.410140 0.180436
H28   H     H_    0.847132 0.572545 0.570895 0.172909
H29   H     H_    0.937038 0.463348 0.579973 0.147541
H30   H     H_    0.062268 0.556731 0.410261 0.149445
H31   H     H_    0.063425 0.464050 0.579798 0.144706
H32   H     H_    0.935379 0.553316 0.410016 0.148418
N1    N     N_R   0.495341 0.500565 0.852313 -0.359786
N2    N     N_R   0.495177 0.499922 0.147636 -0.358326
N3    N     N_R   0.500000 0.689440 0.500000 -0.102126
N4    N     N_R   0.500000 0.310560 0.500000 -0.101752
O1    O     O_R   0.398180 0.560840 0.499980 -0.632194
O2    O     O_R   0.601820 0.439160 0.500020 -0.611578
O3    O     O_R   0.601820 0.560840 0.500020 -0.613919
O4    O     O_R   0.398180 0.439160 0.499980 -0.577870
O5    O     O_R   0.499980 0.560830 0.416150 -0.647926
O6    O     O_R   0.500020 0.439170 0.583850 -0.633265
O7    O     O_R   0.500020 0.560830 0.583850 -0.619874
O8    O     O_R   0.499980 0.439170 0.416150 -0.591851
O9    O     O_2   0.609660 0.545488 0.851283 -0.550045
O10   O     O_2   0.380762 0.455266 0.148739 -0.554908
O11   O     O_2   0.381047 0.455622 0.850399 -0.546702
O12   O     O_2   0.609660 0.544429 0.149392 -0.548002
Zn1   Zn    Zn3+2 0.500000 0.581210 0.500000 0.982751
Zn2   Zn    Zn3+2 0.500000 0.418790 0.500000 1.011620
C65   C     C_2   0.709897 0.426767 0.406414 0.917505
O13   O     O_2   0.654197 0.447894 0.388142 -0.646256
O14   O     O_R   0.742093 0.367394 0.380718 -0.798320
H33   H     H_    0.713640 0.346076 0.348316 0.350513
C66   C     C_2   0.290314 0.546264 0.600798 0.912180
O15   O     O_2   0.343107 0.515365 0.615885 -0.649254
O16   O     O_R   0.261318 0.599313 0.635956 -0.797041
H34   H     H_    0.289407 0.607899 0.671982 0.353581
C67   C     C_2   0.288890 0.455216 0.393815 0.874612
O17   O     O_2   0.346337 0.427827 0.394596 -0.656266
O18   O     O_R   0.254098 0.462534 0.341685 -0.795412
H35   H     H_    0.282169 0.444061 0.308221 0.362955
C68   C     C_2   0.711703 0.576988 0.590098 0.905683
O19   O     O_2   0.735687 0.633593 0.609096 -0.619888
O20   O     O_R   0.653672 0.545667 0.615804 -0.829701
H36   H     H_    0.636066 0.575360 0.649119 0.343032

loop_
_geom_bond_atom_site_label_1
_geom_bond_atom_site_label_2
_ccdc_geom_bond_type
C44   C49   S    
C51   N1    A    
C29   H29   S    
C38   H6    S    
C37   H5    S    
O1    Zn1   S    
C19   C23   A    
C46   H12   S    
C67   O17   D    
C63   H15   S    
C15   C19   A    
C46   C49   A    
C59   C64   A    
O6    Zn2   S    
C60   C63   A    
C19   H25   S    
C17   C26   A    
C45   C50   A    
O5    Zn1   S    
O3    Zn1   S    
C38   C42   A    
C5    H19   S    
C67   O18   S    
C27   O5    A    
C28   O7    A    
C58   C60   A    
C65   O13   D    
C7    C27   S    
C48   H14   S    
C13   N2    S    
C61   C63   A    
O7    Zn1   S    
C62   C64   A    
C52   C60   A    
C9    H21   S    
C64   H16   S    
C17   C67   S    
C20   C24   A    
C11   H23   S    
C65   O14   S    
C3    H17   S    
C31   C33   A    
C52   O10   S    
C3    C13   A    
C53   O11   S    
C53   C55   A    
C51   O9    S    
C37   C41   A    
C41   C43   A    
C18   C25   A    
C42   C44   A    
C35   N3    A    
C47   C50   A    
C66   O16   S    
C16   C26   A    
C54   C56   A    
C42   H10   S    
C6    H20   S    
C12   H24   S    
C36   C40   A    
N4    Zn2   S    
C38   N4    A    
C16   C66   S    
C28   O6    A    
C5    C7    A    
C62   H2    S    
C39   C43   A    
C53   N1    A    
C20   H26   S    
C29   C34   A    
C17   C21   A    
C32   C34   A    
C35   C39   A    
C68   O20   S    
O2    Zn2   S    
C18   C68   S    
C35   H3    S    
C16   C20   A    
C23   C34   S    
C54   O12   S    
C36   N4    A    
C9    C11   A    
C1    O4    A    
O16   H34   S    
C10   C12   A    
O4    Zn2   S    
C4    C6    A    
C48   C49   A    
C32   H32   S    
C12   C14   A    
C55   C57   A    
C1    C26   S    
C8    C28   S    
C56   C62   A    
C51   C59   A    
C47   H13   S    
C68   O19   D    
C1    O1    A    
C37   N3    A    
C14   N1    S    
O20   H36   S    
C21   H27   S    
C45   C48   A    
C7    C9    A    
C46   C47   A    
C10   H22   S    
C39   H7    S    
C40   H8    S    
C30   C33   A    
C18   C22   A    
C8    C10   A    
C22   H28   S    
C3    C5    A    
N3    Zn1   S    
C6    C8    A    
C66   O15   D    
C36   H4    S    
C43   C50   S    
C24   C33   S    
C45   H11   S    
O8    Zn2   S    
C29   C31   A    
O14   H33   S    
C30   C32   A    
C11   C13   A    
C57   C58   A    
O18   H35   S    
C27   O8    A    
C31   H31   S    
C55   C61   A    
C52   N2    A    
C56   C58   A    
C2    C25   S    
C15   C65   S    
C4    C14   A    
C2    O3    A    
C57   C59   A    
C41   H9    S    
C61   H1    S    
C40   C44   A    
C4    H18   S    
C15   C25   A    
C30   H30   S    
C21   C24   A    
C2    O2    A    
C22   C23   A    
C54   N2    A    
