data_mof_unit_28665.cif
_audit_creation_date              2012-12-10T20:41:47-0500
_audit_creation_method            fapswitch 2.2
_symmetry_space_group_name_H-M    P1
_symmetry_Int_Tables_number       1
_space_group_crystal_system       triclinic
_cell_length_a                    15.125613
_cell_length_b                    15.122811
_cell_length_c                    9.994713
_cell_angle_alpha                 89.995636
_cell_angle_beta                  88.282501
_cell_angle_gamma                 89.986747
_cell_volume                      2285.18136978

loop_
_atom_site_label
_atom_site_type_symbol
_atom_type_description
_atom_site_fract_x
_atom_site_fract_y
_atom_site_fract_z
_atom_type_partial_charge
C1    C     C_R   0.381846 0.878831 0.501636 0.903210
C2    C     C_R   0.385126 0.124515 0.500543 0.949434
C3    C     C_R   0.884574 0.376054 0.500762 0.936435
C4    C     C_R   0.881233 0.620351 0.501475 0.887947
C5    C     C_3   0.262377 0.194498 0.741368 0.171206
C6    C     C_3   0.183952 0.899864 0.576240 0.229426
C7    C     C_3   0.679596 0.595111 0.533349 0.204356
C8    C     C_3   0.754970 0.313202 0.739112 0.162312
C9    C     C_R   0.423944 0.012445 0.074000 -0.135027
C10   C     C_R   0.922946 0.491971 0.073705 -0.150183
C11   C     C_R   0.576523 0.991183 0.067536 0.458741
C12   C     C_R   0.076797 0.505271 0.067519 0.461074
C13   C     C_R   0.576536 0.990509 0.925711 0.475701
C14   C     C_R   0.076843 0.506038 0.925879 0.475305
C15   C     C_R   0.423880 0.016043 0.932831 0.117415
C16   C     C_R   0.923029 0.489512 0.932268 0.114464
C17   C     C_3   0.337594 0.965971 0.933164 0.703007
C18   C     C_3   0.841826 0.546650 0.929688 0.742059
C19   C     C_3   0.339802 0.961063 0.087068 -0.289886
C20   C     C_3   0.841954 0.549586 0.083935 -0.257812
C21   C     C_R   0.622557 0.117294 0.498521 0.917166
C22   C     C_R   0.618199 0.878959 0.498525 0.886948
C23   C     C_R   0.118483 0.620766 0.498300 0.971256
C24   C     C_R   0.122895 0.383031 0.498348 0.957755
C25   C     C_R   0.299488 0.238844 0.619033 0.075115
C26   C     C_R   0.242912 0.820115 0.582364 0.027691
C27   C     C_R   0.736958 0.672708 0.565440 0.028278
C28   C     C_R   0.794688 0.266124 0.620484 0.076760
C29   C     C_R   0.334753 0.204980 0.499957 -0.268900
C30   C     C_R   0.320932 0.807373 0.507405 -0.261562
C31   C     C_R   0.819225 0.690377 0.506126 -0.310399
C32   C     C_R   0.833044 0.296672 0.501363 -0.269003
C33   C     C_R   0.321545 0.251780 0.379808 0.320238
C34   C     C_R   0.335305 0.728806 0.432154 0.378856
C35   C     C_R   0.837698 0.772942 0.444675 0.483525
C36   C     C_R   0.822514 0.247212 0.382987 0.327087
C37   C     C_R   0.772873 0.837994 0.446255 0.473281
C38   C     C_R   0.751583 0.186720 0.378402 0.352668
C39   C     C_R   0.250185 0.311837 0.375609 0.362252
C40   C     C_R   0.268314 0.664784 0.431238 0.457918
C41   C     C_R   0.687297 0.815892 0.495088 -0.353301
C42   C     C_R   0.700360 0.171322 0.496879 -0.281793
C43   C     C_R   0.201562 0.330021 0.495736 -0.271295
C44   C     C_R   0.186764 0.684649 0.493755 -0.271717
C45   C     C_R   0.669613 0.732906 0.549302 0.000837
C46   C     C_R   0.728701 0.204971 0.618016 -0.001299
C47   C     C_R   0.233161 0.299851 0.616912 -0.005561
C48   C     C_R   0.173682 0.762736 0.563716 -0.054354
C49   C     C_3   0.608447 0.662088 0.499698 0.227268
C50   C     C_3   0.680032 0.245303 0.736189 0.280109
C51   C     C_3   0.187337 0.262074 0.739481 0.270729
C52   C     C_3   0.111211 0.837398 0.534442 0.210806
H1    H     H_    0.242965 0.125161 0.721151 0.155055
H2    H     H_    0.205909 0.949522 0.500483 0.152758
H3    H     H_    0.705662 0.554912 0.447553 0.116208
H4    H     H_    0.736171 0.382502 0.716303 0.159798
N1    N     N_R   0.499140 0.000000 0.142800 -0.207104
N2    N     N_R   0.999140 0.500000 0.142800 -0.208965
N3    N     N_R   0.499160 1.000000 0.857150 -0.221117
N4    N     N_R   0.999160 0.500000 0.857150 -0.222432
O1    O     O_R   0.408400 0.908380 0.614690 -0.547436
O2    O     O_R   0.408400 0.091620 0.614690 -0.566253
O3    O     O_R   0.908400 0.408380 0.614690 -0.562706
O4    O     O_R   0.908400 0.591620 0.614690 -0.533506
O5    O     O_R   0.408370 0.908370 0.385350 -0.655414
O6    O     O_R   0.408370 0.091630 0.385350 -0.552118
O7    O     O_R   0.908370 0.408370 0.385350 -0.575562
O8    O     O_R   0.908370 0.591630 0.385350 -0.687217
O9    O     O_R   0.591610 0.091610 0.614650 -0.616690
O10   O     O_R   0.591610 0.908390 0.614650 -0.603863
O11   O     O_R   0.091610 0.591610 0.614650 -0.621875
O12   O     O_R   0.091610 0.408390 0.614650 -0.621868
O13   O     O_R   0.591590 0.091600 0.385310 -0.580905
O14   O     O_R   0.591590 0.908400 0.385310 -0.662653
O15   O     O_R   0.091590 0.591600 0.385310 -0.639926
O16   O     O_R   0.091590 0.408400 0.385310 -0.570227
Zn1   Zn    Zn3+2 0.500010 0.000000 0.653130 1.054639
Zn2   Zn    Zn3+2 0.000010 0.500000 0.653130 1.058164
Zn3   Zn    Zn3+2 0.499980 0.000000 0.346870 0.995203
Zn4   Zn    Zn3+2 0.999980 0.500000 0.346870 0.988824
O17   O     O_3   0.376007 0.235832 0.268881 -0.728774
H5    H     H_    0.378610 0.289835 0.212803 0.369275
O18   O     O_3   0.410194 0.714544 0.353414 -0.729361
H6    H     H_    0.455051 0.759606 0.372723 0.335110
O19   O     O_3   0.916119 0.791913 0.377416 -0.668687
H7    H     H_    0.957899 0.742324 0.385794 0.308840
O20   O     O_3   0.879474 0.260767 0.274169 -0.721327
H8    H     H_    0.883558 0.205473 0.221219 0.373255
C53   C     C_2   0.271098 0.015740 0.163218 0.550820
H9    H     H_    0.261878 0.084887 0.137734 0.076561
O21   O     O_2   0.225956 0.984015 0.254085 -0.569098
C54   C     C_2   0.350129 0.866985 0.135976 0.581001
H10   H     H_    0.415518 0.839153 0.148482 0.074214
O22   O     O_2   0.285384 0.819687 0.153443 -0.511239
C55   C     C_2   0.857400 0.641696 0.136960 0.517537
H11   H     H_    0.924223 0.665916 0.149400 0.078642
O23   O     O_2   0.795179 0.691561 0.159181 -0.513379
C56   C     C_2   0.767196 0.501345 0.156182 0.482200
H12   H     H_    0.780649 0.444950 0.219511 0.096398
O24   O     O_2   0.690901 0.525799 0.145614 -0.508022
O25   O     O_3   0.795333 0.920232 0.394854 -0.638337
H13   H     H_    0.749319 0.964052 0.420163 0.327096
O26   O     O_3   0.728406 0.147171 0.259954 -0.710425
H14   H     H_    0.745587 0.186389 0.184172 0.360682
O27   O     O_3   0.223828 0.347806 0.256202 -0.701358
H15   H     H_    0.239471 0.306598 0.182177 0.349322
O28   O     O_3   0.279239 0.583925 0.367930 -0.714011
H16   H     H_    0.341412 0.576833 0.336012 0.411482
O29   O     O_3   0.530162 0.656661 0.578542 -0.715031
H17   H     H_    0.501786 0.599539 0.556379 0.389502
O30   O     O_3   0.677401 0.187085 0.845946 -0.640295
H18   H     H_    0.656894 0.221973 0.925072 0.356527
O31   O     O_3   0.187421 0.322412 0.846456 -0.632266
H19   H     H_    0.167777 0.289461 0.927932 0.352138
O32   O     O_3   0.035526 0.835992 0.619382 -0.702110
H20   H     H_    0.006516 0.894508 0.610687 0.396873
C57   C     C_2   0.593462 0.664612 0.350975 0.426479
H21   H     H_    0.617071 0.719657 0.290104 0.107226
O33   O     O_2   0.554768 0.603883 0.297555 -0.457269
C58   C     C_2   0.591176 0.284467 0.703574 0.355928
H22   H     H_    0.586151 0.330780 0.621120 0.058559
O34   O     O_2   0.524511 0.264198 0.768329 -0.454813
C59   C     C_2   0.097737 0.221857 0.714174 0.348413
H23   H     H_    0.090726 0.174035 0.634154 0.056449
O35   O     O_2   0.032689 0.242935 0.782134 -0.461959
C60   C     C_2   0.091759 0.848909 0.388027 0.475090
H24   H     H_    0.110147 0.798256 0.315458 0.087190
O36   O     O_2   0.055436 0.916043 0.349747 -0.444409
O37   O     O_3   0.319277 0.205508 0.848378 -0.609922
H25   H     H_    0.286785 0.183038 0.928974 0.344692
O38   O     O_3   0.167135 0.938877 0.701924 -0.696918
H26   H     H_    0.156200 0.891335 0.769090 0.401196
O39   O     O_3   0.658957 0.542327 0.645945 -0.729203
H27   H     H_    0.637544 0.581301 0.719969 0.395032
O40   O     O_3   0.809025 0.304104 0.849853 -0.618096
H28   H     H_    0.776245 0.332004 0.926190 0.354647
O41   O     O_3   0.657058 0.980868 0.125668 -0.631144
H29   H     H_    0.650494 0.998170 0.219738 0.404101
O42   O     O_3   0.157780 0.512652 0.125276 -0.624558
H30   H     H_    0.150013 0.501164 0.221093 0.420708
O43   O     O_3   0.657140 0.978393 0.861027 -0.643474
H31   H     H_    0.653587 0.001849 0.770128 0.389933
O44   O     O_3   0.157981 0.515976 0.861805 -0.640204
H32   H     H_    0.152932 0.498662 0.768236 0.394133
O45   O     O_3   0.268811 0.018170 0.887181 -0.755995
H33   H     H_    0.213059 0.991602 0.923088 0.359707
O46   O     O_3   0.341496 0.883877 0.866047 -0.687975
H34   H     H_    0.399762 0.855998 0.881460 0.310196
O47   O     O_3   0.854512 0.629086 0.865403 -0.694586
H35   H     H_    0.914420 0.651644 0.884921 0.309916
O48   O     O_3   0.770208 0.501025 0.877976 -0.738253
H36   H     H_    0.717896 0.539245 0.894894 0.386075

loop_
_geom_bond_atom_site_label_1
_geom_bond_atom_site_label_2
_ccdc_geom_bond_type
O8    Zn4   S    
C44   C48   A    
O20   H8    S    
C60   H24   S    
O5    Zn3   S    
C21   O13   A    
C51   C59   S    
N1    Zn3   S    
O2    Zn1   S    
O9    Zn1   S    
C55   H11   S    
C7    H3    S    
C8    H4    S    
O45   H33   S    
C59   H23   S    
O19   H7    S    
C1    C30   S    
O6    Zn3   S    
N4    Zn2   S    
C33   C39   A    
C2    C29   S    
C34   C40   A    
C32   C36   A    
C5    H1    S    
C17   O46   S    
C7    O39   S    
C57   O33   D    
C16   N4    A    
C59   O35   D    
C22   C41   S    
O32   H20   S    
C29   C33   A    
C11   C13   A    
C7    C27   S    
C15   C17   S    
C42   C46   A    
C54   H10   S    
O12   Zn2   S    
C19   C54   S    
O31   H19   S    
C9    C19   S    
C49   C57   S    
O46   H34   S    
C10   C20   S    
C10   N2    A    
C1    O5    A    
O28   H16   S    
C13   O43   S    
C53   O21   D    
C18   O47   S    
O40   H28   S    
O15   Zn4   S    
C25   C47   A    
C40   C44   A    
C18   C20   S    
N2    Zn4   S    
C12   N2    A    
C27   C45   A    
C5    O37   S    
C8    O40   S    
C37   C41   A    
N3    Zn1   S    
O4    Zn2   S    
C6    H2    S    
C58   O34   D    
O17   H5    S    
C36   O20   S    
C25   C29   A    
C30   C34   A    
C27   C31   A    
O25   H13   S    
C23   O11   A    
C28   C32   A    
C7    C49   S    
O1    Zn1   S    
C4    O8    A    
C52   C60   S    
C24   O16   A    
C39   C43   A    
C23   C44   S    
C21   O9    A    
C17   O45   S    
C38   O26   S    
C19   C53   S    
O18   H6    S    
C45   C49   S    
O48   H36   S    
C28   C46   A    
C54   O22   D    
O13   Zn3   S    
C12   O42   S    
C51   O31   S    
C40   O28   S    
C5    C25   S    
C3    O3    A    
C20   C55   S    
C12   C14   A    
C26   C30   A    
C56   O24   D    
O14   Zn3   S    
O39   H27   S    
C8    C28   S    
C50   C58   S    
C34   O18   S    
C22   O14   A    
C18   O48   S    
C8    C50   S    
C58   H22   S    
C24   O12   A    
C49   O29   S    
O37   H25   S    
O27   H15   S    
C52   O32   S    
C39   O27   S    
C4    O4    A    
C14   O44   S    
C60   O36   D    
O30   H18   S    
C35   C37   A    
C15   N3    A    
C3    O7    A    
O7    Zn4   S    
O16   Zn4   S    
C23   O15   A    
C6    O38   S    
C2    O6    A    
C1    O1    A    
C47   C51   S    
O42   H30   S    
C55   O23   D    
C38   C42   A    
C13   N3    A    
C26   C48   A    
C14   N4    A    
O41   H29   S    
C46   C50   S    
C57   H21   S    
C36   C38   A    
O44   H32   S    
C9    C15   A    
C11   N1    A    
O47   H35   S    
C37   O25   S    
C35   O19   S    
C6    C26   S    
C33   O17   S    
C31   C35   A    
C50   O30   S    
C17   C19   S    
C9    N1    A    
C11   O41   S    
C3    C32   S    
C4    C31   S    
C21   C42   S    
C2    O2    A    
C48   C52   S    
C20   C56   S    
C16   C18   S    
C56   H12   S    
O29   H17   S    
O26   H14   S    
C24   C43   S    
C41   C45   A    
C5    C51   S    
C10   C16   A    
C6    C52   S    
C53   H9    S    
O43   H31   S    
C43   C47   A    
C22   O10   A    
O11   Zn2   S    
O38   H26   S    
O10   Zn1   S    
O3    Zn2   S    
