data_mof_unit_42305.cif
_audit_creation_date              2013-03-05T15:50:47-0500
_audit_creation_method            fapswitch 2.2
_symmetry_space_group_name_H-M    P1
_symmetry_Int_Tables_number       1
_space_group_crystal_system       triclinic
_cell_length_a                    14.26632
_cell_length_b                    14.720265
_cell_length_c                    33.149552
_cell_angle_alpha                 97.415475
_cell_angle_beta                  90.344705
_cell_angle_gamma                 118.21198
_cell_volume                      6065.31001562

loop_
_atom_site_label
_atom_site_type_symbol
_atom_site_description
_atom_site_fract_x
_atom_site_fract_y
_atom_site_fract_z
_atom_type_partial_charge
O1    O     O_R   0.318160 0.824460 0.443680 -0.519795
O2    O     O_R   0.525040 0.857250 0.449830 -0.497910
C1    C     C_R   0.617474 0.910187 0.437219 0.545274
O3    O     O_R   0.684760 0.998800 0.456360 -0.516718
O4    O     O_R   0.647540 0.166310 0.470260 -0.499009
C2    C     C_R   0.594253 0.206262 0.456720 0.541703
O5    O     O_R   0.500960 0.181750 0.467450 -0.530076
O6    O     O_R   0.331100 0.981120 0.457080 -0.513004
C3    C     C_R   0.291306 0.891898 0.435160 0.532832
O7    O     O_R   0.315560 0.821140 0.532010 -0.521434
O8    O     O_R   0.522630 0.854180 0.531710 -0.499115
C4    C     C_R   0.614315 0.904804 0.551329 0.546003
O9    O     O_R   0.682160 0.995480 0.544690 -0.515336
O10   O     O_R   0.645130 0.163230 0.552140 -0.500270
C5    C     C_R   0.588831 0.198347 0.571142 0.544403
O11   O     O_R   0.498360 0.178430 0.555780 -0.518033
O12   O     O_R   0.328690 0.978040 0.538950 -0.497204
C6    C     C_R   0.289298 0.886851 0.548859 0.542612
Cr1   Cr    Cr6+3 0.424820 0.846020 0.489780 1.013457
Cr2   Cr    Cr6+3 0.657880 0.078580 0.505700 1.016225
Cr3   Cr    Cr6+3 0.417280 0.075360 0.504550 1.004775
O13   O     O_3   0.499990 0.999990 0.500010 -0.233206
C7    C     C_R   0.734009 0.445220 0.105466 -0.006526
C8    C     C_R   0.650912 0.441266 0.129092 -0.143540
C9    C     C_R   0.649449 0.428277 0.170115 0.010924
C10   C     C_R   0.736655 0.423904 0.188540 -0.004109
C11   C     C_R   0.814694 0.418467 0.164298 -0.110210
C12   C     C_R   0.812176 0.424957 0.122497 0.178301
C13   C     C_R   0.750904 0.337064 0.245856 -0.102335
C14   C     C_R   0.747324 0.327663 0.287014 -0.129385
C15   C     C_R   0.737779 0.401475 0.315626 0.008197
C16   C     C_R   0.739588 0.490549 0.302898 0.243765
C17   C     C_R   0.745702 0.499828 0.261234 -0.051520
C18   C     C_R   0.745891 0.420998 0.232577 -0.003396
C19   C     C_R   0.613294 0.357513 0.370812 -0.068888
C20   C     C_R   0.577412 0.308726 0.405180 -0.128928
C21   C     C_R   0.741249 0.298749 0.412967 -0.129936
C22   C     C_R   0.777159 0.347800 0.378792 -0.124928
C23   C     C_R   0.711977 0.374349 0.356760 0.063071
C24   C     C_R   0.639135 0.274842 0.425463 0.017203
H1    H     H_    0.587418 0.451210 0.115791 0.143703
H2    H     H_    0.853373 0.360003 0.368199 0.127373
H3    H     H_    0.745365 0.258842 0.296264 0.139415
H4    H     H_    0.752316 0.276144 0.224132 0.151596
H5    H     H_    0.748533 0.567848 0.250853 0.146767
H6    H     H_    0.561427 0.376426 0.353792 0.127239
H7    H     H_    0.499234 0.292633 0.414523 0.123135
H8    H     H_    0.877560 0.408395 0.178105 0.176481
H9    H     H_    0.791326 0.274773 0.428279 0.129094
H10   H     H_    0.007799 0.621312 0.115381 0.186098
H11   H     H_    0.030011 0.643728 0.189243 0.162419
C25   C     C_R   0.218927 0.869949 0.397881 -0.015511
C26   C     C_R   0.220872 0.953658 0.379193 -0.017449
C27   C     C_R   0.169059 0.930500 0.340252 -0.137513
C28   C     C_R   0.120501 0.830228 0.318906 0.004176
C29   C     C_R   0.112945 0.746455 0.337344 0.249906
C30   C     C_R   0.152066 0.764984 0.378703 -0.002940
C31   C     C_R   0.027961 0.704781 0.174743 -0.100433
C32   C     C_R   0.016028 0.692588 0.132539 -0.123566
C33   C     C_R   0.023719 0.861531 0.136079 -0.122641
C34   C     C_R   0.036881 0.874251 0.178804 -0.106853
C35   C     C_R   0.039693 0.795820 0.197972 0.023062
C36   C     C_1   0.062559 0.809493 0.241106 0.015984
C37   C     C_1   0.086315 0.817941 0.276749 0.051753
C38   C     C_R   0.015266 0.771009 0.112583 -0.001763
H12   H     H_    0.046234 0.945297 0.196772 0.163304
H13   H     H_    0.021334 0.922275 0.121562 0.149819
H14   H     H_    0.171016 0.991390 0.324633 0.131690
H15   H     H_    0.859983 0.967247 0.119467 0.172422
H16   H     H_    0.830684 0.972828 0.328915 0.137778
H17   H     H_    0.806161 0.997800 0.401696 0.130805
C39   C     C_R   0.640389 0.877200 0.396251 0.023457
C40   C     C_R   0.557509 0.797727 0.369217 -0.104513
C41   C     C_R   0.571942 0.784188 0.327713 -0.077851
C42   C     C_R   0.669372 0.849165 0.313043 0.061975
C43   C     C_R   0.754851 0.922574 0.340115 -0.078845
C44   C     C_R   0.740639 0.936421 0.381588 -0.113182
C45   C     C_R   0.778913 0.926839 0.174271 0.220606
C46   C     C_R   0.790393 0.910749 0.132250 -0.112772
C47   C     C_R   0.625389 0.747306 0.123871 -0.132395
C48   C     C_R   0.613525 0.761662 0.165389 -0.157321
C49   C     C_R   0.691476 0.848478 0.190890 0.022436
C50   C     C_1   0.684660 0.849101 0.234033 0.041217
C51   C     C_1   0.678269 0.848035 0.270072 0.020870
C52   C     C_R   0.716374 0.819206 0.107224 -0.020549
H18   H     H_    0.479436 0.750913 0.379564 0.139225
H19   H     H_    0.545994 0.701842 0.177984 0.126615
H20   H     H_    0.566664 0.676220 0.105338 0.146133
H21   H     H_    0.505510 0.726893 0.306834 0.126519
H22   H     H_    0.840759 0.374451 0.908095 0.168624
H23   H     H_    0.802237 0.284886 0.690829 0.140664
H24   H     H_    0.773224 0.249058 0.616133 0.125378
C53   C     C_R   0.618619 0.243952 0.614629 0.018538
C54   C     C_R   0.543084 0.255596 0.638768 -0.135319
C55   C     C_R   0.559277 0.274264 0.681191 -0.134677
C56   C     C_R   0.651659 0.283159 0.700052 0.031939
C57   C     C_R   0.730312 0.277899 0.676397 -0.105199
C58   C     C_R   0.713918 0.258285 0.633839 -0.133722
C59   C     C_R   0.761346 0.324729 0.847666 0.214724
C60   C     C_R   0.769415 0.357299 0.889934 -0.123029
C61   C     C_R   0.596261 0.349497 0.884869 -0.138076
C62   C     C_R   0.587545 0.317994 0.842961 -0.163789
C63   C     C_R   0.671076 0.309741 0.823975 0.022638
C64   C     C_1   0.667127 0.298634 0.780191 0.033005
C65   C     C_1   0.661991 0.291939 0.743617 0.000027
C66   C     C_R   0.689542 0.374465 0.908457 -0.021980
H25   H     H_    0.468590 0.244437 0.625062 0.131789
H26   H     H_    0.517930 0.306094 0.824941 0.119930
H27   H     H_    0.533308 0.361876 0.898168 0.145628
H28   H     H_    0.498112 0.278541 0.699307 0.108885
C67   C     C_R   0.984441 0.706776 0.898736 0.007778
C68   C     C_R   0.989830 0.792143 0.882065 -0.115376
C69   C     C_R   0.996510 0.795377 0.840447 -0.115468
C70   C     C_R   0.995574 0.712379 0.814027 0.024026
C71   C     C_R   0.987705 0.625573 0.830426 -0.104704
C72   C     C_R   0.982549 0.623026 0.872470 -0.118152
C73   C     C_R   0.072871 0.684571 0.748982 -0.118793
C74   C     C_R   0.097586 0.704768 0.709461 -0.158790
C75   C     C_R   0.060107 0.762136 0.690121 0.009063
C76   C     C_R   0.991303 0.794508 0.710171 0.215328
C77   C     C_R   0.966297 0.772755 0.749933 -0.115692
C78   C     C_R   0.009230 0.720638 0.770072 -0.014552
C79   C     C_R   0.161960 0.901099 0.647412 -0.062536
C80   C     C_R   0.217982 0.932003 0.612875 -0.126548
C81   C     C_R   0.153043 0.750457 0.584666 -0.123412
C82   C     C_R   0.096866 0.719789 0.618926 -0.111311
C83   C     C_R   0.103162 0.794752 0.651018 0.073678
C84   C     C_R   0.216720 0.856766 0.581867 0.018830
H29   H     H_    0.989516 0.857473 0.901163 0.147725
H30   H     H_    0.975860 0.555299 0.884384 0.161193
H31   H     H_    0.051833 0.637493 0.621174 0.109493
H32   H     H_    0.151077 0.680152 0.694663 0.118626
H33   H     H_    0.108400 0.645476 0.763710 0.128009
H34   H     H_    0.004697 0.864393 0.829167 0.124454
H35   H     H_    0.913248 0.797030 0.765285 0.144836
H36   H     H_    0.168747 0.960083 0.672186 0.135153
H37   H     H_    0.266933 0.014359 0.611523 0.122456
H38   H     H_    0.985057 0.559518 0.810796 0.148548
H39   H     H_    0.149812 0.690774 0.560985 0.126144
C85   C     C_R   0.663349 0.742776 0.911496 0.022948
C86   C     C_R   0.598787 0.649406 0.885378 -0.122168
C87   C     C_R   0.576601 0.651634 0.844626 -0.117310
C88   C     C_R   0.617366 0.747226 0.829837 0.026805
C89   C     C_R   0.674207 0.840653 0.856837 -0.110709
C90   C     C_R   0.697394 0.838426 0.897362 -0.117788
C91   C     C_R   0.588358 0.823394 0.771528 -0.108567
C92   C     C_R   0.598282 0.837489 0.730916 -0.116861
C93   C     C_R   0.631596 0.779029 0.703839 0.051898
C94   C     C_R   0.652030 0.702463 0.717418 0.052535
C95   C     C_R   0.641912 0.689228 0.758617 -0.096414
C96   C     C_R   0.611846 0.750590 0.785828 0.013870
C97   C     C_R   0.567435 0.730792 0.630713 -0.128845
C98   C     C_R   0.563461 0.761741 0.593063 -0.121275
C99   C     C_R   0.716419 0.930435 0.616559 -0.111192
C100  C     C_R   0.719693 0.899648 0.654242 -0.060805
C101  C     C_R   0.643174 0.801067 0.661823 0.029536
C102  C     C_R   0.635012 0.863483 0.586370 0.020900
H40   H     H_    0.572363 0.574587 0.895551 0.130094
H41   H     H_    0.747312 0.911287 0.917012 0.142567
H42   H     H_    0.777605 0.955041 0.678337 0.177259
H43   H     H_    0.581125 0.895357 0.720557 0.119957
H44   H     H_    0.564610 0.871042 0.792045 0.123132
H45   H     H_    0.531892 0.578820 0.824249 0.110159
H46   H     H_    0.662466 0.634433 0.769856 0.104397
H47   H     H_    0.507005 0.655009 0.636484 0.110300
H48   H     H_    0.500216 0.708464 0.570195 0.127737
H49   H     H_    0.707100 0.915289 0.845982 0.134667
H50   H     H_    0.772408 0.009311 0.612289 0.135772
O14   O     O_R   0.828710 0.851830 0.052170 -0.517269
O15   O     O_R   0.005980 0.823990 0.047210 -0.483712
C103  C     C_R   0.998856 0.750949 0.067648 0.561144
O16   O     O_R   0.031900 0.688850 0.050170 -0.483294
O17   O     O_R   0.830940 0.518420 0.048680 -0.467688
C104  C     C_R   0.743224 0.484828 0.066000 0.561587
O18   O     O_R   0.668160 0.499860 0.053480 -0.522850
O19   O     O_R   0.689170 0.693840 0.050110 -0.499909
C105  C     C_R   0.743154 0.788952 0.066562 0.539414
O20   O     O_R   0.803860 0.812940 0.962540 -0.520245
O21   O     O_R   0.982950 0.787950 0.964120 -0.489441
C106  C     C_R   0.971880 0.702798 0.942791 0.550636
O22   O     O_R   0.007050 0.649970 0.960540 -0.489061
O23   O     O_R   0.807910 0.482370 0.965590 -0.507772
C107  C     C_R   0.712506 0.437135 0.949378 0.546929
O24   O     O_R   0.643310 0.460980 0.963840 -0.509963
O25   O     O_R   0.666140 0.657800 0.967020 -0.498412
C108  C     C_R   0.711004 0.739815 0.950209 0.536088
Cr4   Cr    Cr6+3 0.903360 0.812540 0.006510 1.035287
Cr5   Cr    Cr6+3 0.914630 0.587050 0.006280 1.088570
Cr6   Cr    Cr6+3 0.673560 0.582680 0.008540 1.016741
O26   O     O_3   0.830520 0.660760 0.007110 -0.302963
N1    N     N_R   0.069625 0.643919 0.313872 0.068304
O27   O     O_R   0.119644 0.589721 0.314937 -0.349174
O28   O     O_R   0.984878 0.607488 0.288986 -0.352776
C109  C     C_3   0.114490 0.673299 0.402705 -0.263692
C110  C     C_3   0.992840 0.613170 0.402471 -0.391432
H51   H     H_    0.961255 0.667452 0.413016 0.194546
H52   H     H_    0.955300 0.571037 0.371729 0.225692
H53   H     H_    0.969851 0.554408 0.423537 0.129969
H54   H     H_    0.145877 0.619930 0.390698 0.195271
H55   H     H_    0.141817 0.699038 0.435423 0.160433
C111  C     C_3   0.279506 0.067170 0.400045 -0.247096
C112  C     C_3   0.268229 0.148093 0.378591 -0.463845
H56   H     H_    0.306737 0.155896 0.349288 0.150779
H57   H     H_    0.182859 0.126801 0.373361 0.162153
H58   H     H_    0.308620 0.225240 0.398256 0.139364
H59   H     H_    0.248762 0.071875 0.430528 0.173321
H60   H     H_    0.365940 0.091722 0.403550 0.182797
N2    N     N_R   0.886815 0.407892 0.097931 0.076770
O29   O     O_R   0.855616 0.354482 0.061481 -0.303320
O30   O     O_R   0.979034 0.428105 0.114324 -0.338698
N3    N     N_R   0.858081 0.020029 0.199441 0.076634
O31   O     O_R   0.951784 0.074726 0.186601 -0.348938
O32   O     O_R   0.834279 0.056447 0.233435 -0.341916
N4    N     N_R   0.846712 0.311973 0.829378 0.071431
O33   O     O_R   0.940860 0.355085 0.848649 -0.356051
O34   O     O_R   0.828954 0.249880 0.795203 -0.333570
N5    N     N_R   0.946608 0.849169 0.690953 0.054743
O35   O     O_R   0.923553 0.829990 0.651699 -0.356165
O36   O     O_R   0.919272 0.911223 0.713114 -0.368319
C113  C     C_3   0.689867 0.638268 0.689760 -0.257452
C114  C     C_3   0.602997 0.525044 0.679943 -0.456146
H61   H     H_    0.582864 0.488508 0.708155 0.149743
H62   H     H_    0.530070 0.520018 0.665407 0.148687
H63   H     H_    0.632123 0.481363 0.658457 0.162261
H64   H     H_    0.714874 0.669476 0.660693 0.199055
H65   H     H_    0.760931 0.641039 0.704960 0.157078
C115  C     C_3   0.552913 0.417487 0.192573 -0.268536
C116  C     C_3   0.486405 0.307255 0.202649 -0.413332
H66   H     H_    0.462616 0.249339 0.174424 0.169850
H67   H     H_    0.531434 0.289048 0.224749 0.158390
H68   H     H_    0.413113 0.300488 0.216495 0.152637
H69   H     H_    0.576462 0.475073 0.220702 0.150279
H70   H     H_    0.500050 0.434193 0.173553 0.144231
N6    N     N_R   0.734722 0.570990 0.331236 0.075090
O37   O     O_R   0.765922 0.586364 0.369617 -0.353335
O38   O     O_R   0.706592 0.634927 0.318185 -0.359019

loop_
_geom_bond_atom_site_label_1
_geom_bond_atom_site_label_2
_geom_bond_distance
_ccdc_geom_bond_type
C11   H8    1.083571 S    
C31   C35   1.391719 A    
C59   C63   1.413651 A    
C103  O16   1.291332 A    
O17   Cr5   1.915195 S    
C82   C83   1.399853 A    
C47   C48   1.388894 A    
C98   H48   1.083087 S    
C17   H5    1.083272 S    
C111  C112  1.532692 S    
C76   C77   1.404883 A    
C1    C39   1.473861 S    
C55   C56   1.396741 A    
H17   C44   1.083032 S    
C56   C65   1.433610 S    
C73   H33   1.082497 S    
C116  H67   1.108613 S    
C57   C58   1.398379 A    
O25   C108  1.274807 A    
H24   C58   1.082972 S    
C79   C80   1.399367 A    
C7    C104  1.481654 S    
C16   N6    1.442494 S    
C26   C27   1.402029 A    
C81   H39   1.083265 S    
N3    O31   1.301594 A    
C4    O9    1.274275 A    
C91   H44   1.083339 S    
O8    Cr1   1.915364 S    
C10   C11   1.403607 A    
C47   C52   1.403601 A    
C81   C82   1.391805 A    
C112  H57   1.110922 S    
C38   C103  1.475698 S    
C50   C51   1.200251 T    
H10   C32   1.080189 S    
C41   H21   1.083636 S    
C11   C12   1.402608 A    
C21   C22   1.391256 A    
C67   C68   1.406722 A    
C22   H2    1.083521 S    
C114  H63   1.109661 S    
O4    C2    1.269649 A    
C90   H41   1.083380 S    
N4    O34   1.301303 A    
C42   C51   1.429539 S    
O21   Cr4   1.916088 S    
O15   C103  1.308019 A    
C61   H27   1.083012 S    
C88   C89   1.403260 A    
C47   H20   1.083178 S    
C29   C30   1.419843 A    
C20   H7    1.081326 S    
Cr5   O26   1.959993 S    
C40   C41   1.395187 A    
O14   C105  1.275539 A    
C74   C75   1.404504 A    
C113  C114  1.523781 S    
Cr4   O26   1.971972 S    
C42   C43   1.396703 A    
C39   C44   1.407333 A    
C6    C84   1.473315 S    
O23   C107  1.275405 A    
C86   C87   1.393670 A    
C34   H12   1.082883 S    
C10   C18   1.472894 S    
C109  H55   1.105010 S    
C92   C93   1.401606 A    
C33   H13   1.082562 S    
C15   C23   1.470360 S    
N2    O29   1.301432 A    
C112  H58   1.110103 S    
O15   Cr4   1.917361 S    
C81   C84   1.406122 A    
C111  H59   1.110949 S    
C8    C9    1.396426 A    
C62   H26   1.084086 S    
C67   C72   1.403526 A    
C4    C102  1.467835 S    
C34   C35   1.403943 A    
C80   C84   1.403751 A    
C110  H53   1.110807 S    
C88   C96   1.468995 S    
C115  H69   1.106288 S    
C100  H42   1.082808 S    
C29   N1    1.440360 S    
Cr3   O13   1.960275 S    
C56   C57   1.398930 A    
C8    H1    1.083316 S    
C99   H50   1.083087 S    
C54   C55   1.393846 A    
C3    C25   1.504643 S    
N6    O38   1.301608 A    
H22   C60   1.082846 S    
C64   C65   1.202633 T    
O22   Cr5   2.031567 S    
C48   C49   1.396655 A    
C100  C101  1.400121 A    
C43   C44   1.393872 A    
O7    C6    1.262407 A    
C97   H47   1.082617 S    
C115  H70   1.111947 S    
C54   H25   1.082945 S    
O1    Cr1   2.035128 S    
C77   C78   1.407480 A    
C41   C42   1.398053 A    
C89   H49   1.083227 S    
N1    O27   1.300834 A    
C61   C62   1.391949 A    
O10   Cr2   1.917875 S    
C80   H37   1.083205 S    
C20   C24   1.403907 A    
Cr1   O13   1.975135 S    
O1    C3    1.281650 A    
C85   C86   1.404754 A    
O14   Cr4   2.033590 S    
C99   C102  1.403861 A    
C69   C70   1.402903 A    
C112  H56   1.110919 S    
C87   H45   1.083281 S    
O4    Cr2   1.907705 S    
N4    O33   1.301547 A    
O6    C3    1.272386 A    
C110  H51   1.110839 S    
C9    C10   1.414823 A    
O17   C104  1.279468 A    
C13   C18   1.396051 A    
C9    C115  1.520596 S    
O12   Cr3   1.917599 S    
C36   C37   1.201599 T    
C33   C34   1.404056 A    
C19   C20   1.395137 A    
C70   C78   1.484107 S    
C19   C23   1.402939 A    
C73   C78   1.400900 A    
N1    O28   1.300272 A    
C107  O24   1.271782 A    
C5    C53   1.477315 S    
C13   C14   1.387853 A    
O20   C108  1.269777 A    
C114  H61   1.110569 S    
C21   H9    1.082984 S    
C45   C49   1.414917 A    
C79   C83   1.405889 A    
C115  C116  1.527380 S    
C97   C101  1.398413 A    
C71   H38   1.082597 S    
O7    Cr1   2.035285 S    
C7    C8    1.407066 A    
C27   H14   1.080996 S    
C28   C37   1.437587 S    
C35   C36   1.431608 S    
O12   C6    1.276082 A    
C111  H60   1.109384 S    
C113  H65   1.110329 S    
Cr6   O26   1.979765 S    
H11   C31   1.084335 S    
O23   Cr5   1.931968 S    
C7    C12   1.414811 A    
H23   C57   1.083492 S    
O25   Cr6   1.905290 S    
C99   C100  1.390495 A    
C48   H19   1.084227 S    
O20   Cr4   2.030958 S    
N2    O30   1.301624 A    
O19   C105  1.276385 A    
N3    O32   1.301291 A    
Cr2   O13   1.980535 S    
C33   C38   1.405652 A    
C69   H34   1.082561 S    
C13   H4    1.083410 S    
H16   C43   1.083772 S    
C67   C106  1.477713 S    
C68   H29   1.082865 S    
C2    C24   1.472929 S    
C14   H3    1.083797 S    
H15   C46   1.082705 S    
N5    O36   1.301233 A    
N6    O37   1.300655 A    
C1    O3    1.273071 A    
C46   C52   1.405252 A    
C106  O22   1.298505 A    
C91   C92   1.386426 A    
C61   C66   1.402975 A    
C27   C28   1.384559 A    
O9    Cr2   2.022432 S    
O2    Cr1   1.918655 S    
O10   C5    1.274243 A    
C15   C16   1.417344 A    
C92   H43   1.084020 S    
C39   C40   1.406610 A    
C55   H28   1.083748 S    
O6    Cr3   1.926902 S    
C85   C90   1.401546 A    
O18   Cr6   2.023100 S    
C75   C76   1.414458 A    
O11   Cr3   2.043523 S    
C70   C71   1.409020 A    
C2    O5    1.270005 A    
C59   N4    1.442813 S    
O21   C106  1.295664 A    
C21   C24   1.406365 A    
C95   H46   1.084088 S    
C53   C54   1.407328 A    
C30   C109  1.529770 S    
C60   C66   1.407084 A    
C95   C96   1.405056 A    
C59   C60   1.406713 A    
C79   H36   1.083136 S    
C89   C90   1.389765 A    
C85   C108  1.463907 S    
C16   C17   1.404500 A    
O2    C1    1.280667 A    
C31   C32   1.386369 A    
C114  H62   1.109989 S    
O5    Cr3   2.034083 S    
C94   C95   1.403038 A    
C32   C38   1.406851 A    
C45   C46   1.406229 A    
C14   C15   1.405019 A    
O19   Cr6   1.922442 S    
C22   C23   1.399988 A    
C82   H31   1.083466 S    
O16   Cr5   2.049137 S    
C12   N2    1.438978 S    
C5    O11   1.267652 A    
C53   C58   1.407885 A    
N5    O35   1.301320 A    
C17   C18   1.402650 A    
C113  H64   1.109140 S    
C109  C110  1.530078 S    
C68   C69   1.388850 A    
C93   C94   1.413478 A    
C98   C102  1.406164 A    
C62   C63   1.398989 A    
C26   C111  1.530658 S    
C66   C107  1.477969 S    
C74   H32   1.083673 S    
C25   C30   1.430759 A    
C76   N5    1.439557 S    
C28   C29   1.405553 A    
C116  H66   1.110922 S    
C91   C96   1.397962 A    
O3    Cr2   2.034438 S    
C109  H54   1.109107 S    
C86   H40   1.083369 S    
C72   H30   1.082207 S    
C97   C98   1.392430 A    
C77   H35   1.082978 S    
C52   C105  1.474196 S    
C49   C50   1.433192 S    
C63   C64   1.437202 S    
C87   C88   1.402279 A    
O24   Cr6   2.041413 S    
C40   H18   1.083051 S    
C93   C101  1.463270 S    
C73   C74   1.391429 A    
C19   H6    1.083355 S    
C45   N3    1.442898 S    
C94   C113  1.513120 S    
C116  H68   1.110397 S    
C71   C72   1.400505 A    
O8    C4    1.277599 A    
C25   C26   1.438004 A    
C110  H52   1.107370 S    
C104  O18   1.269021 A    
C75   C83   1.476300 S    
