data_mof_unit_67446.cif
_audit_creation_date              2012-12-10T16:45:59-0500
_audit_creation_method            fapswitch 2.2
_symmetry_space_group_name_H-M    P1
_symmetry_Int_Tables_number       1
_space_group_crystal_system       triclinic
_cell_length_a                    10.721344
_cell_length_b                    8.713465
_cell_length_c                    7.467765
_cell_angle_alpha                 102.692991
_cell_angle_beta                  95.037924
_cell_angle_gamma                 92.226117
_cell_volume                      676.746106769

loop_
_atom_site_label
_atom_site_type_symbol
_atom_type_description
_atom_site_fract_x
_atom_site_fract_y
_atom_site_fract_z
_atom_type_partial_charge
C1    C     C_R   0.492466 0.200241 0.453286 0.803578
C2    C     C_3   0.878870 0.489734 0.503685 -0.027388
C3    C     C_3   0.936640 0.659652 0.512686 0.103253
C4    C     C_3   0.914266 0.376100 0.324712 -0.460911
C5    C     C_2   0.476848 0.032761 0.424559 0.071494
C6    C     C_2   0.502701 0.967111 0.568429 -0.443259
C7    C     C_R   0.260242 0.490482 0.499669 0.815354
C8    C     C_R   0.501272 0.799785 0.545808 0.905934
C9    C     C_R   0.739985 0.495743 0.499494 0.768166
C10   C     C_3   0.082686 0.415061 0.665711 0.104602
C11   C     C_3   0.936606 0.426205 0.678391 0.460314
C12   C     C_3   0.080706 0.655219 0.514023 -0.453701
C13   C     C_3   0.057062 0.382769 0.317128 -0.394772
C14   C     C_3   0.122550 0.485026 0.500938 -0.001284
Cu1   Cu    Cu3+1 0.514070 0.517380 0.684380 0.933547
Cu2   Cu    Cu3+1 0.485930 0.482620 0.315620 0.935891
H1    H     H_    0.134644 0.485539 0.793862 0.155880
H2    H     H_    0.869278 0.407116 0.199284 0.195724
H3    H     H_    0.111668 0.698742 0.394945 0.197424
H4    H     H_    0.531119 0.038309 0.705992 0.147900
H5    H     H_    0.596663 0.623966 0.052098 0.224953
H6    H     H_    0.914106 0.737272 0.643315 0.164054
H7    H     H_    0.079764 0.434169 0.199755 0.194625
H8    H     H_    0.091317 0.262112 0.285538 0.155251
H9    H     H_    0.880089 0.252772 0.317636 0.169250
N1    N     N_2   0.464720 0.456420 0.038520 -0.220643
N2    N     N_2   0.535280 0.543580 0.961480 -0.219561
O1    O     O_R   0.509140 0.286130 0.619770 -0.600592
O2    O     O_R   0.485380 0.256770 0.308360 -0.591575
O3    O     O_R   0.329570 0.514650 0.655700 -0.586909
O4    O     O_R   0.305810 0.485300 0.344290 -0.594483
O5    O     O_R   0.514620 0.743230 0.691640 -0.593770
O6    O     O_R   0.490860 0.713870 0.380230 -0.531258
O7    O     O_R   0.694190 0.514700 0.655710 -0.582083
O8    O     O_R   0.670430 0.485350 0.344300 -0.601900
N3    N     N_2   0.886520 0.726609 0.359816 -0.423698
H10   H     H_    0.825186 0.658300 0.257104 0.277122
C15   C     C_3   0.858064 0.890440 0.405001 -0.758507
H11   H     H_    0.837270 0.933030 0.276602 0.223449
H12   H     H_    0.939741 0.961778 0.486724 0.253587
H13   H     H_    0.775025 0.904727 0.484870 0.230375
N4    N     N_2   0.432553 0.942756 0.244247 -0.378966
H14   H     H_    0.476489 0.974590 0.139222 0.257834
C16   C     C_3   0.297436 0.929398 0.206611 -0.640613
H15   H     H_    0.270667 0.847008 0.071293 0.220688
H16   H     H_    0.261141 0.046377 0.201915 0.203139
H17   H     H_    0.254001 0.882503 0.314719 0.223026
H18   H     H_    0.404931 0.375221 0.947520 0.225001
N5    N     N_2   0.121744 0.252945 0.641906 -0.419303
H19   H     H_    0.082269 0.167247 0.531884 0.264214
C17   C     C_3   0.184714 0.198419 0.793877 -0.702090
H20   H     H_    0.132705 0.091652 0.813668 0.220603
H21   H     H_    0.191366 0.289085 0.925007 0.216011
H22   H     H_    0.279989 0.165008 0.759685 0.230485
N6    N     N_2   0.878210 0.267650 0.668758 -0.427853
H23   H     H_    0.796361 0.233488 0.583536 0.233376
C18   C     C_3   0.880045 0.205094 0.833691 -0.707681
H24   H     H_    0.884487 0.075188 0.796076 0.222494
H25   H     H_    0.792681 0.232226 0.900983 0.217324
H26   H     H_    0.962060 0.254763 0.932629 0.255646
N7    N     N_2   0.909524 0.531564 0.853680 -0.436771
H27   H     H_    0.833333 0.502773 0.917366 0.286388
C19   C     C_3   0.984780 0.669828 0.957721 -0.815786
H28   H     H_    0.035342 0.642379 0.080827 0.257222
H29   H     H_    0.922423 0.766753 0.002099 0.250954
H30   H     H_    0.054514 0.713730 0.879897 0.213949
H31   H     H_    0.129774 0.738526 0.635880 0.125274

loop_
_geom_bond_atom_site_label_1
_geom_bond_atom_site_label_2
_ccdc_geom_bond_type
C1    O1    A    
C2    C4    S    
C5    N4    S    
C19   H29   S    
C17   H20   S    
Cu2   O6    S    
C6    H4    S    
Cu1   O7    S    
Cu1   N2    S    
C16   H17   S    
N1    H18   S    
N6    H23   S    
C17   H22   S    
C4    H2    S    
N5    C17   S    
C1    O2    A    
C4    H9    S    
Cu1   O1    S    
C19   H30   S    
Cu1   O5    S    
C7    O3    A    
C13   C14   S    
Cu2   O4    S    
C15   H12   S    
C2    C9    S    
N1    N2    D    
C9    O7    A    
N4    C16   S    
C3    N3    S    
C15   H13   S    
C1    C5    S    
C5    C6    D    
C12   H3    S    
N3    C15   S    
N3    H10   S    
C12   C14   S    
C2    C3    S    
C18   H24   S    
C8    O6    A    
N6    C18   S    
Cu2   O8    S    
Cu2   N1    S    
N7    H27   S    
H5    N2    S    
C12   H31   S    
C18   H25   S    
C7    O4    A    
N4    H14   S    
C2    C11   S    
C10   H1    S    
Cu1   Cu2   S    
C8    O5    A    
C18   H26   S    
C11   N6    S    
C16   H15   S    
C13   H7    S    
Cu1   O3    S    
C9    O8    A    
N5    H19   S    
C10   C11   S    
C4    C13   S    
N7    C19   S    
C3    H6    S    
C6    C8    S    
C3    C12   S    
C16   H16   S    
C17   H21   S    
Cu2   O2    S    
C10   N5    S    
C7    C14   S    
C19   H28   S    
C13   H8    S    
C10   C14   S    
C11   N7    S    
C15   H11   S    
