data_mof_unit_46974.cif
_audit_creation_date              2012-12-11T16:20:14-0500
_audit_creation_method            fapswitch 2.2
_symmetry_space_group_name_H-M    P1
_symmetry_Int_Tables_number       1
_space_group_crystal_system       triclinic
_cell_length_a                    6.912466
_cell_length_b                    34.342184
_cell_length_c                    38.365076
_cell_angle_alpha                 99.600794
_cell_angle_beta                  89.835338
_cell_angle_gamma                 90.324368
_cell_volume                      8979.73130724

loop_
_atom_site_label
_atom_site_type_symbol
_atom_type_description
_atom_site_fract_x
_atom_site_fract_y
_atom_site_fract_z
_atom_type_partial_charge
O1    O     O_R   0.494320 0.461440 0.460990 -0.509133
O2    O     O_R   0.821450 0.462560 0.532500 -0.546990
O3    O     O_R   0.994330 0.538560 0.539010 -0.540379
C1    C     C_R   0.652231 0.453692 0.543666 0.708294
O4    O     O_R   0.823870 0.456770 0.460860 -0.541507
O5    O     O_R   0.996760 0.532730 0.466860 -0.519129
C2    C     C_R   0.654659 0.445928 0.448024 0.745541
O6    O     O_R   0.491880 0.467270 0.533140 -0.545105
O7    O     O_3   0.661650 0.524930 0.502050 -0.358089
V1    V     V_3+5 0.935500 0.495380 0.499620 1.463336
O8    O     O_R   0.326630 0.537440 0.467500 -0.519790
C3    C     C_R   0.158100 0.546086 0.456184 0.781414
O9    O     O_R   0.324210 0.543230 0.539140 -0.546732
C4    C     C_R   0.155412 0.553886 0.552097 0.702642
V2    V     V_3+5 0.435810 0.504620 0.500380 1.486223
O10   O     O_3   0.159790 0.475070 0.497950 -0.365221
C5    C     C_R   0.167036 0.828123 0.798208 0.569429
N1    N     N_R   0.040510 0.823713 0.824869 -0.559568
C6    C     C_R   0.925420 0.790672 0.822474 0.623946
C7    C     C_R   0.931682 0.760784 0.792075 -0.185715
C8    C     C_R   0.065249 0.764680 0.764934 -0.096148
C9    C     C_R   0.183780 0.798575 0.768144 -0.022088
C10   C     C_R   0.809660 0.727096 0.788201 0.371137
C11   C     C_R   0.831455 0.696492 0.759045 0.379665
C12   C     C_R   0.963428 0.700566 0.731518 -0.171158
C13   C     C_R   0.081561 0.734700 0.734655 -0.142885
C14   C     C_R   0.217920 0.738722 0.707762 0.002839
C15   C     C_R   0.338864 0.772685 0.711857 0.196094
C16   C     C_R   0.319258 0.802137 0.741610 -0.226061
C17   C     C_R   0.981851 0.671304 0.700965 0.643941
N2    N     N_R   0.111820 0.675836 0.674933 -0.559794
C18   C     C_R   0.228517 0.708552 0.677709 0.659647
O11   O     O_2   0.276182 0.861169 0.800626 -0.533327
O12   O     O_2   0.808427 0.786427 0.849794 -0.494983
O13   O     O_2   0.871665 0.638354 0.697211 -0.499820
O14   O     O_2   0.352653 0.711889 0.651172 -0.490418
H1    H     H_    0.413553 0.827756 0.743969 0.171142
C19   C     C_R   0.972756 0.639660 0.619517 -0.161418
H2    H     H_    0.846605 0.658404 0.623584 0.145130
C20   C     C_R   0.981653 0.609789 0.589871 -0.198084
H3    H     H_    0.860808 0.605862 0.571689 0.144527
C21   C     C_R   0.146071 0.585713 0.583457 -0.065991
C22   C     C_R   0.300417 0.591900 0.607598 -0.253836
H4    H     H_    0.427705 0.573418 0.603408 0.131980
C23   C     C_R   0.289671 0.621171 0.637950 0.218362
C24   C     C_R   0.125475 0.645488 0.643902 0.383694
C25   C     C_R   0.194917 0.865362 0.876505 -0.087444
H5    H     H_    0.331901 0.851002 0.869408 0.135287
C26   C     C_R   0.185089 0.895136 0.906236 -0.204615
H6    H     H_    0.315687 0.903170 0.921322 0.130564
C27   C     C_R   0.008720 0.914033 0.916494 -0.056558
C28   C     C_R   0.842570 0.902375 0.896173 -0.206964
H7    H     H_    0.704646 0.916385 0.903155 0.128811
C29   C     C_R   0.853156 0.872957 0.866154 -0.088203
H8    H     H_    0.723975 0.864978 0.850632 0.139359
C30   C     C_R   0.029412 0.854114 0.855992 0.360808
C31   C     C_R   0.065426 0.864821 0.182168 0.598627
O15   O     O_2   0.084769 0.904244 0.192008 -0.524944
N3    N     N_R   0.030011 0.849251 0.147436 -0.537378
C32   C     C_R   0.007045 0.809267 0.137161 0.580720
C33   C     C_R   0.856582 0.876476 0.100610 -0.184470
C34   C     C_R   0.848837 0.901118 0.074894 0.362730
C35   C     C_R   0.172264 0.925979 0.092354 0.136034
C36   C     C_R   0.179562 0.899592 0.116691 -0.128187
C37   C     C_R   0.022034 0.875157 0.121320 0.276745
C38   C     C_R   0.052894 0.799127 0.197891 -0.054722
C39   C     C_R   0.080287 0.840040 0.207820 -0.064642
C40   C     C_R   0.131681 0.855130 0.242712 -0.203836
C41   C     C_R   0.017511 0.783561 0.162153 -0.023807
C42   C     C_R   0.005795 0.926826 0.070756 -0.184443
H9    H     H_    0.307671 0.898476 0.132687 0.142845
H10   H     H_    0.170032 0.886036 0.250156 0.171541
C43   C     C_R   0.149227 0.572783 0.429371 -0.152262
C44   C     C_R   0.070757 0.764725 0.285658 -0.015571
C45   C     C_R   0.083918 0.707027 0.238113 -0.001717
C46   C     C_R   0.085607 0.723246 0.274601 -0.011042
C47   C     C_R   0.026010 0.779300 0.321676 0.509002
C48   C     C_R   0.038566 0.753427 0.346630 -0.250035
C49   C     C_R   0.081254 0.713369 0.336306 -0.062709
C50   C     C_R   0.097592 0.697776 0.300172 -0.110737
C51   C     C_R   0.123373 0.656698 0.289672 -0.124036
C52   C     C_R   0.131866 0.632282 0.315984 0.609521
N4    N     N_R   0.121548 0.648300 0.351171 -0.544682
C53   C     C_R   0.097805 0.688144 0.361547 0.607455
C54   C     C_R   0.981301 0.622503 0.402244 -0.136900
C55   C     C_R   0.990335 0.598395 0.428359 0.112592
C56   C     C_R   0.298335 0.572337 0.403895 0.343035
C57   C     C_R   0.290608 0.597966 0.378997 -0.175193
C58   C     C_R   0.131327 0.622774 0.377613 0.275958
O16   O     O_2   0.091845 0.703495 0.396289 -0.527405
C59   C     C_R   0.089506 0.790017 0.259791 0.052727
C60   C     C_R   0.063689 0.773748 0.223587 0.009055
C61   C     C_R   0.053196 0.732248 0.212758 0.077323
C62   C     C_R   0.144661 0.830467 0.268236 0.243495
H11   H     H_    0.857261 0.641461 0.401381 0.149412
H12   H     H_    0.006276 0.763920 0.374151 0.167104
O17   O     O_2   0.977306 0.794267 0.102785 -0.528600
C63   C     C_R   0.995506 0.742699 0.152085 -0.129605
H13   H     H_    0.732776 0.858114 0.104324 0.155620
H14   H     H_    0.965401 0.729896 0.124875 0.169036
C64   C     C_R   0.114087 0.666085 0.228177 -0.260866
C65   C     C_R   0.139352 0.641323 0.253275 0.479142
O18   O     O_2   0.146435 0.592780 0.306545 -0.494064
C66   C     C_R   0.013976 0.717478 0.176801 -0.177786
H15   H     H_    0.125987 0.652434 0.200832 0.138401
H16   H     H_    0.408631 0.598192 0.360396 0.154707
H17   H     H_    0.991638 0.686456 0.167136 0.125034
C67   C     C_R   0.508918 0.316195 0.641424 0.569586
O19   O     O_2   0.397817 0.308337 0.612236 -0.537781
N5    N     N_R   0.626284 0.348781 0.646235 -0.551412
C68   C     C_R   0.743240 0.357082 0.675326 0.704028
C69   C     C_R   0.469314 0.397268 0.614647 -0.131013
C70   C     C_R   0.474546 0.422578 0.589540 -0.205591
C71   C     C_R   0.803624 0.402478 0.574428 -0.284206
C72   C     C_R   0.796627 0.376084 0.598697 0.500495
C73   C     C_R   0.630785 0.374276 0.619790 0.269177
C74   C     C_R   0.625324 0.298067 0.696469 -0.113031
C75   C     C_R   0.505129 0.290518 0.666404 -0.001268
C76   C     C_R   0.383423 0.257461 0.661715 -0.134337
C77   C     C_R   0.747872 0.331595 0.700967 -0.122184
C78   C     C_R   0.642809 0.425892 0.569479 -0.118098
H18   H     H_    0.934495 0.404071 0.559112 0.146455
H19   H     H_    0.287656 0.251341 0.639131 0.159582
C79   C     C_R   0.513908 0.073271 0.929548 -0.095035
C80   C     C_R   0.499930 0.211567 0.741336 0.045229
C81   C     C_R   0.709082 0.257694 0.780471 -0.024361
C82   C     C_R   0.599319 0.222243 0.773881 0.057437
C83   C     C_R   0.399862 0.175016 0.735245 -0.190116
C84   C     C_R   0.390175 0.150809 0.760860 -0.128937
C85   C     C_R   0.480579 0.161810 0.793576 -0.014468
C86   C     C_R   0.585879 0.197539 0.800306 -0.116111
C87   C     C_R   0.677434 0.208439 0.833421 -0.152379
C88   C     C_R   0.661767 0.182970 0.858846 0.661683
N6    N     N_R   0.559199 0.148372 0.851506 -0.540277
C89   C     C_R   0.469112 0.137532 0.819666 0.594932
C90   C     C_R   0.696552 0.096754 0.881784 0.502896
C91   C     C_R   0.680162 0.072517 0.908115 -0.379348
C92   C     C_R   0.363241 0.099647 0.924928 0.157314
C93   C     C_R   0.380278 0.123973 0.899049 -0.213976
C94   C     C_R   0.545666 0.122884 0.877775 0.285139
O20   O     O_2   0.369255 0.103222 0.813200 -0.534665
C95   C     C_R   0.501150 0.237874 0.716261 0.053660
C96   C     C_R   0.621145 0.272180 0.721980 0.000883
C97   C     C_R   0.735461 0.280848 0.753018 -0.071304
C98   C     C_R   0.381332 0.231674 0.686001 -0.197455
H20   H     H_    0.797170 0.052937 0.912013 0.146658
H21   H     H_    0.310903 0.123213 0.754795 0.165660
H22   H     H_    0.330082 0.163720 0.710535 0.124052
H23   H     H_    0.278729 0.207716 0.680776 0.122745
O21   O     O_2   0.853674 0.390021 0.679327 -0.484685
C99   C     C_R   0.874839 0.337940 0.730166 0.140254
H24   H     H_    0.348099 0.440109 0.586325 0.147355
H25   H     H_    0.339869 0.395735 0.630339 0.187382
C100  C     C_R   0.782668 0.269522 0.814909 -0.230569
C101  C     C_R   0.778722 0.244642 0.840285 0.453147
O22   O     O_2   0.747217 0.192603 0.890699 -0.485183
C102  C     C_R   0.875629 0.311821 0.754841 0.391668
H26   H     H_    0.839565 0.298770 0.823580 0.207714
H27   H     H_    0.264739 0.144212 0.895690 0.169102
C103  C     C_R   0.701174 0.176622 0.197525 0.582828
N7    N     N_R   0.546807 0.176180 0.174893 -0.554586
C104  C     C_R   0.405436 0.204511 0.181460 0.579635
C105  C     C_R   0.414961 0.234192 0.211610 -0.031841
C106  C     C_R   0.573835 0.235198 0.234622 -0.020059
C107  C     C_R   0.718980 0.206377 0.227474 -0.024524
C108  C     C_R   0.270119 0.262992 0.219148 -0.145209
C109  C     C_R   0.283536 0.292441 0.248982 -0.141635
C110  C     C_R   0.442209 0.293868 0.272044 -0.030247
C111  C     C_R   0.587522 0.265084 0.264872 -0.020868
C112  C     C_R   0.746390 0.266092 0.287890 -0.034522
C113  C     C_R   0.891371 0.237326 0.280321 -0.150479
C114  C     C_R   0.877838 0.207850 0.250503 -0.143220
C115  C     C_R   0.459419 0.323487 0.302098 0.590952
N8    N     N_R   0.613459 0.323858 0.324784 -0.542774
C116  C     C_R   0.755503 0.295689 0.318114 0.582163
O23   O     O_2   0.836223 0.148067 0.191435 -0.530357
O24   O     O_2   0.257095 0.204422 0.158667 -0.524882
H28   H     H_    0.145490 0.262836 0.202076 0.172125
H29   H     H_    0.168755 0.314010 0.253941 0.169759
O25   O     O_2   0.323953 0.351955 0.308281 -0.529043
O26   O     O_2   0.903956 0.295833 0.340892 -0.527155
H30   H     H_    0.016022 0.237490 0.297389 0.169714
H31   H     H_    0.992566 0.186268 0.245552 0.168606
C117  C     C_R   0.469838 0.359738 0.380213 -0.171393
H32   H     H_    0.341742 0.341311 0.375534 0.171030
C118  C     C_R   0.477873 0.389118 0.410425 0.406858
C119  C     C_R   0.643769 0.413632 0.416941 -0.171136
C120  C     C_R   0.800088 0.407221 0.393139 -0.257692
H33   H     H_    0.928978 0.425470 0.397400 0.173462
C121  C     C_R   0.790049 0.378031 0.362991 -0.083713
H34   H     H_    0.910716 0.374451 0.344695 0.176734
C122  C     C_R   0.624844 0.353957 0.356161 0.293628
C123  C     C_R   0.688336 0.139045 0.119693 -0.082788
H35   H     H_    0.817908 0.157074 0.123858 0.158056
C124  C     C_R   0.677510 0.109124 0.090104 -0.203821
H36   H     H_    0.799865 0.104576 0.072212 0.138135
C125  C     C_R   0.509635 0.085773 0.083396 -0.058801
C126  C     C_R   0.353444 0.092819 0.107142 -0.204500
H37   H     H_    0.222805 0.075118 0.102849 0.130588
C127  C     C_R   0.366204 0.122116 0.137222 -0.082239
H38   H     H_    0.245750 0.126284 0.155548 0.165160
C128  C     C_R   0.533572 0.145699 0.143806 0.353240
O27   O     O_R   0.662230 0.032770 0.966890 -0.548165
O28   O     O_R   0.330090 0.043230 0.039150 -0.540567
O29   O     O_R   0.157350 0.967260 0.033130 -0.519386
C129  C     C_R   0.499021 0.053882 0.052123 0.715509
O30   O     O_R   0.332650 0.037450 0.967510 -0.519149
O31   O     O_R   0.159930 0.961430 0.960980 -0.543472
C130  C     C_R   0.501946 0.046359 0.956303 0.751981
O32   O     O_R   0.659640 0.038600 0.039040 -0.541088
O33   O     O_3   0.492510 0.975090 0.997960 -0.356246
V3    V     V_3+5 0.218600 0.004620 0.000380 1.465083
O34   O     O_R   0.830050 0.956730 0.960830 -0.547136
C131  C     C_R   0.998931 0.946017 0.947864 0.684405
O35   O     O_R   0.827490 0.962520 0.032470 -0.509720
C132  C     C_R   0.996074 0.954043 0.044087 0.756681
V4    V     V_3+5 0.718310 0.995320 0.999580 1.462435
O36   O     O_3   0.994270 0.024900 0.002040 -0.367892
O37   O     O_3   0.673004 0.722596 0.813664 -0.520259
C133  C     C_3   0.494791 0.736946 0.803454 -0.093088
H39   H     H_    0.505089 0.768917 0.801764 0.123916
H40   H     H_    0.384704 0.733590 0.823850 0.156700
H41   H     H_    0.443279 0.719872 0.777915 0.139391
N9    N     N_3   0.331754 0.952604 0.090328 -0.583094
H42   H     H_    0.446297 0.946481 0.106285 0.245263
H43   H     H_    0.284509 0.981043 0.100777 0.208557
N10   N     N_3   0.840460 0.601018 0.454513 -0.629278
H44   H     H_    0.836107 0.630139 0.467880 0.231415
H45   H     H_    0.708362 0.594947 0.441533 0.270857
O38   O     O_3   0.937453 0.816193 0.329792 -0.542781
C134  C     C_3   0.968516 0.834994 0.364991 -0.219459
H46   H     H_    0.120616 0.831968 0.373628 0.145061
H47   H     H_    0.864157 0.823835 0.383118 0.143042
H48   H     H_    0.940514 0.867010 0.366553 0.162600
O39   O     O_3   0.713769 0.663460 0.756922 -0.519598
C135  C     C_3   0.799101 0.636970 0.776710 -0.086454
H49   H     H_    0.947500 0.628465 0.767025 0.126794
H50   H     H_    0.710000 0.609649 0.773542 0.158217
H51   H     H_    0.802872 0.649460 0.805377 0.143130
N11   N     N_3   0.239044 0.845554 0.300969 -0.636521
H52   H     H_    0.381716 0.852653 0.295283 0.231926
H53   H     H_    0.170966 0.871823 0.312151 0.244506
O40   O     O_3   0.682299 0.901236 0.055070 -0.536428
C136  C     C_3   0.692140 0.869907 0.026276 -0.149443
H54   H     H_    0.693740 0.840786 0.035375 0.143664
H55   H     H_    0.820387 0.872981 0.009279 0.106728
H56   H     H_    0.561210 0.870749 0.009768 0.155280
O41   O     O_3   0.456375 0.547855 0.403890 -0.556013
C137  C     C_3   0.419700 0.512564 0.380246 -0.181436
H57   H     H_    0.403186 0.518212 0.352671 0.156040
H58   H     H_    0.289731 0.496943 0.388350 0.116519
H59   H     H_    0.545171 0.492641 0.380668 0.153136
O42   O     O_3   0.169826 0.601524 0.241600 -0.525604
C138  C     C_3   0.368238 0.595850 0.233786 -0.128643
H60   H     H_    0.394618 0.563752 0.225934 0.174278
H61   H     H_    0.459818 0.606489 0.257338 0.133268
H62   H     H_    0.412595 0.610528 0.211241 0.107758
N12   N     N_3   0.484514 0.777543 0.686240 -0.587939
H63   H     H_    0.618773 0.780087 0.698950 0.227552
H64   H     H_    0.458061 0.803972 0.676977 0.237909
O43   O     O_3   0.954479 0.352703 0.602506 -0.537292
C139  C     C_3   0.941615 0.318422 0.576639 -0.204682
H65   H     H_    0.957099 0.325691 0.549558 0.118381
H66   H     H_    0.803848 0.302058 0.578968 0.136498
H67   H     H_    0.061383 0.298352 0.580664 0.205907
O44   O     O_3   0.861697 0.098039 0.861143 -0.546499
C140  C     C_3   0.937904 0.060048 0.849417 -0.191954
H68   H     H_    0.822807 0.037505 0.841396 0.127244
H69   H     H_    0.033285 0.051093 0.869912 0.131881
H70   H     H_    0.028828 0.061254 0.825759 0.207172
N13   N     N_3   0.008273 0.370589 0.734726 -0.568006
H71   H     H_    0.149451 0.359715 0.733431 0.245593
H72   H     H_    0.986286 0.387367 0.759764 0.258155
N14   N     N_3   0.195428 0.102918 0.947182 -0.637275
H73   H     H_    0.187491 0.132024 0.960493 0.240971
H74   H     H_    0.073617 0.097588 0.931016 0.245701
O45   O     O_3   0.864712 0.257364 0.872725 -0.521863
C141  C     C_3   0.066708 0.252430 0.868842 -0.117929
H75   H     H_    0.104679 0.221172 0.858323 0.125976
H76   H     H_    0.134839 0.260224 0.895243 0.174740
H77   H     H_    0.128900 0.272411 0.851624 0.118242
O46   O     O_3   0.020584 0.316850 0.780000 -0.564675
C142  C     C_3   0.169740 0.289818 0.768725 -0.262593
H78   H     H_    0.229524 0.294524 0.742827 0.150881
H79   H     H_    0.119604 0.258732 0.767130 0.151852
H80   H     H_    0.288825 0.294748 0.788307 0.172942
O47   O     O_3   0.318739 0.394763 0.432546 -0.545304
C143  C     C_3   0.335199 0.369654 0.457928 -0.194446
H81   H     H_    0.468191 0.376367 0.474192 0.106460
H82   H     H_    0.332827 0.338031 0.445284 0.130143
H83   H     H_    0.209200 0.374651 0.476074 0.156176
N15   N     N_3   0.443865 0.625832 0.663117 -0.598269
H84   H     H_    0.570461 0.631592 0.649925 0.259729
H85   H     H_    0.461831 0.598973 0.672109 0.248892

loop_
_geom_bond_atom_site_label_1
_geom_bond_atom_site_label_2
_ccdc_geom_bond_type
C109  H29   S    
C56   C57   A    
C105  C106  A    
C121  H34   S    
C9    C16   A    
C142  H79   S    
C88   O22   S    
C54   H11   S    
C67   O19   S    
C113  H30   S    
O2    C1    A    
C6    C7    A    
C70   H24   S    
C1    O6    A    
N9    H42   S    
C139  H67   S    
C133  H40   S    
C51   C52   A    
C106  C111  A    
C34   O40   S    
C25   C26   A    
C33   H13   S    
C47   C48   A    
C135  H49   S    
C45   C64   A    
C5    O11   S    
C123  H35   S    
C102  O46   S    
C137  H57   S    
C64   C65   A    
O32   V4    S    
C44   C46   A    
C17   O13   S    
C92   N14   S    
N4    C53   A    
C99   C102  A    
C2    C119  S    
C15   C16   A    
C74   C96   A    
C100  H26   S    
C118  O47   S    
O35   V4    S    
N6    C94   S    
O43   C139  S    
C140  H70   S    
C63   C66   A    
C31   N3    A    
C38   C41   A    
C112  C113  A    
O40   C136  S    
C135  H50   S    
C87   C101  A    
C57   H16   S    
C136  H54   S    
C34   C42   A    
C120  C121  A    
N14   H73   S    
C111  C112  A    
C36   H9    S    
C81   C97   A    
C129  O32   A    
N8    C116  A    
C43   C56   A    
C104  O24   S    
C138  H61   S    
C72   O43   S    
N5    C68   A    
C71   C78   A    
O8    V2    S    
C95   C96   A    
N3    C37   S    
N10   H44   S    
O29   C132  A    
C136  H55   S    
C127  H38   S    
C123  C124  A    
C44   C47   A    
C80   C83   A    
O31   C131  A    
O39   C135  S    
C117  C122  A    
C126  C127  A    
C126  H37   S    
C108  H28   S    
O9    C4    A    
C87   C88   A    
O7    V1    S    
N14   H74   S    
C59   C60   A    
C90   C94   A    
C4    C21   S    
C142  H78   S    
C41   C63   A    
C107  C114  A    
C20   C21   A    
C38   C39   A    
C93   H27   S    
N3    C32   A    
C109  C110  A    
C19   C20   A    
O45   C141  S    
C75   C76   A    
C142  H80   S    
C55   N10   S    
C103  O23   S    
C95   C98   A    
C106  C107  A    
C125  C129  S    
C33   C34   A    
C112  C116  A    
C53   O16   S    
C31   C39   A    
O33   V4    S    
O41   C137  S    
C61   C66   A    
C3    C43   S    
C133  H39   S    
C8    C13   A    
C28   C29   A    
N7    C104  A    
C66   H17   S    
C10   O37   S    
C51   C65   A    
C36   C37   A    
C64   H15   S    
C110  C115  A    
N4    C58   S    
C29   C30   A    
C137  H58   S    
C19   C24   A    
V2    O10   S    
O27   V4    S    
C35   C36   A    
C27   C28   A    
C143  H83   S    
C67   C75   A    
N7    C128  S    
C56   O41   S    
C105  C108  A    
C19   H2    S    
C11   C12   A    
C83   C84   A    
C32   O17   S    
O44   C140  S    
C74   C77   A    
C48   H12   S    
O37   C133  S    
O4    C2    A    
C54   C58   A    
C48   C49   A    
N1    C6    A    
C139  H66   S    
C115  O25   S    
C26   C27   A    
V4    O36   S    
C115  N8    A    
C7    C10   A    
C141  H77   S    
O38   C134  S    
C40   C62   A    
C123  C128  A    
C39   C40   A    
C68   C77   A    
C40   H10   S    
C143  H82   S    
C44   C59   A    
N12   H64   S    
C45   C46   A    
O33   V3    S    
C114  H31   S    
C138  H60   S    
O42   C138  S    
C33   C37   A    
O34   V4    S    
C91   H20   S    
C79   C91   A    
C117  C118  A    
C25   H5    S    
C35   C42   A    
O34   C131  A    
C80   C95   A    
C52   O18   S    
O28   V3    S    
C14   C15   A    
N11   H53   S    
C5    N1    A    
O46   C142  S    
C134  H47   S    
C103  C107  A    
C7    C8    A    
C22   C23   A    
C113  C114  A    
C100  C101  A    
C54   C55   A    
N6    C89   A    
O3    C4    A    
C118  C119  A    
O1    V2    S    
C81   C100  A    
C27   C131  S    
C62   N11   S    
C20   H3    S    
N10   H45   S    
C85   C89   A    
O28   C129  A    
C26   H6    S    
O6    V2    S    
C15   N12   S    
C69   H25   S    
O9    V2    S    
O47   C143  S    
C13   C14   A    
C88   N6    A    
C141  H76   S    
C49   C50   A    
C76   H19   S    
C76   C98   A    
C21   C22   A    
C86   C87   A    
O2    V1    S    
C68   O21   S    
N5    C73   S    
C69   C73   A    
C28   H7    S    
C45   C61   A    
O30   C130  A    
C84   C85   A    
C79   C92   A    
C12   C17   A    
N13   H72   S    
N13   H71   S    
C29   H8    S    
C110  C111  A    
C137  H59   S    
C121  C122  A    
N11   H52   S    
C14   C18   A    
O1    C2    A    
O27   C130  A    
C35   N9    S    
N2    C18   A    
C83   H22   S    
C46   C50   A    
C72   C73   A    
C50   C51   A    
C6    O12   S    
N9    H43   S    
O5    V1    S    
C38   C60   A    
C93   C94   A    
C18   O14   S    
C71   C72   A    
C139  H65   S    
N1    C30   S    
C104  C105  A    
N15   H84   S    
C63   H14   S    
C5    C9    A    
O29   V3    S    
C135  H51   S    
C116  O26   S    
C140  H68   S    
C42   C132  S    
C143  H81   S    
C65   O42   S    
N15   H85   S    
C85   C86   A    
C12   C13   A    
O4    V1    S    
C101  O45   S    
C11   O39   S    
V1    O10   S    
C74   C75   A    
C103  N7    A    
C59   C62   A    
O5    C3    A    
C140  H69   S    
C17   N2    A    
C99   N13   S    
C31   O15   S    
C49   C53   A    
C108  C109  A    
V3    O36   S    
C32   C41   A    
C22   H4    S    
C81   C82   A    
O3    V1    S    
C90   O44   S    
O31   V3    S    
C60   C61   A    
C23   N15   S    
C67   N5    A    
C1    C78   S    
N12   H63   S    
C134  H48   S    
C69   C70   A    
O30   V3    S    
O35   C132  A    
O7    V2    S    
C125  C126  A    
C82   C86   A    
C43   C55   A    
C84   H21   S    
C77   C99   A    
C47   O38   S    
C92   C93   A    
C10   C11   A    
C124  H36   S    
C71   H18   S    
C23   C24   A    
C138  H62   S    
C119  C120  A    
C70   C78   A    
C57   C58   A    
N2    C24   S    
C127  C128  A    
C52   N4    A    
C79   C130  S    
C89   O20   S    
C16   H1    S    
C134  H46   S    
C80   C82   A    
C141  H75   S    
C120  H33   S    
C117  H32   S    
C136  H56   S    
C97   C102  A    
C8    C9    A    
C133  H41   S    
C98   H23   S    
C90   C91   A    
C96   C97   A    
O8    C3    A    
N8    C122  S    
C25   C30   A    
C124  C125  A    
