data_mof_unit_44673.cif
_audit_creation_date              2012-12-10T17:04:30-0500
_audit_creation_method            fapswitch 2.2
_symmetry_space_group_name_H-M    P1
_symmetry_Int_Tables_number       1
_space_group_crystal_system       triclinic
_cell_length_a                    14.877008
_cell_length_b                    10.675892
_cell_length_c                    10.049652
_cell_angle_alpha                 91.610737
_cell_angle_beta                  90.167958
_cell_angle_gamma                 90.866033
_cell_volume                      1595.31736024

loop_
_atom_site_label
_atom_site_type_symbol
_atom_type_description
_atom_site_fract_x
_atom_site_fract_y
_atom_site_fract_z
_atom_type_partial_charge
C1    C     C_R   0.499993 0.262162 0.497589 0.941192
C2    C     C_R   0.907653 0.611325 0.567419 0.003145
C3    C     C_R   0.949414 0.275211 0.468741 0.312483
C4    C     C_R   0.043750 0.277664 0.452987 0.312483
C5    C     C_R   0.092062 0.389609 0.486571 0.000689
C6    C     C_R   0.046737 0.500763 0.524003 -0.091263
C7    C     C_R   0.095191 0.614227 0.550907 -0.064881
C8    C     C_R   0.051204 0.717545 0.610549 0.357151
C9    C     C_R   0.956808 0.713951 0.623496 0.393872
C10   C     C_R   0.185646 0.392946 0.488878 -0.174765
C11   C     C_R   0.231530 0.506415 0.499752 -0.214857
C12   C     C_R   0.327175 0.503151 0.499808 0.952966
C13   C     C_R   0.186816 0.619568 0.517419 0.445515
C14   C     C_2   0.561286 0.933071 0.401703 0.278829
C15   C     C_2   0.539951 0.868731 0.511592 0.101399
C16   C     C_2   0.562526 0.070602 0.409939 0.503752
C17   C     C_2   0.502423 0.128833 0.488932 -0.310963
C18   C     C_2   0.554456 0.567866 0.928588 0.494538
C19   C     C_2   0.566950 0.541433 0.075897 0.421983
C20   C     C_R   0.510329 0.737544 0.502416 0.860314
C21   C     C_R   0.672815 0.501794 0.500428 0.855749
C22   C     C_R   0.813917 0.615219 0.553728 0.486799
C23   C     C_R   0.768369 0.507580 0.503571 -0.217593
C24   C     C_R   0.812556 0.397585 0.472385 -0.119702
C25   C     C_R   0.904831 0.389991 0.490110 -0.029219
C26   C     C_R   0.953164 0.500632 0.527256 -0.115344
H1    H     H_    0.452565 0.078490 0.546273 0.161171
H2    H     H_    0.437972 0.501749 0.105326 0.191154
H3    H     H_    0.773559 0.318434 0.432971 0.229737
H4    H     H_    0.224652 0.308510 0.480225 0.205019
N1    N     N_2   0.500970 0.501330 0.852150 0.031175
N2    N     N_2   0.500990 0.501360 0.147810 -0.158307
O1    O     O_R   0.499990 0.319060 0.613040 -0.615393
O2    O     O_R   0.500010 0.319100 0.386900 -0.563663
O3    O     O_R   0.367830 0.499950 0.613080 -0.627635
O4    O     O_R   0.367860 0.499990 0.386940 -0.567818
O5    O     O_R   0.499990 0.680900 0.613100 -0.576811
O6    O     O_R   0.500010 0.680940 0.386960 -0.586510
O7    O     O_R   0.632140 0.500010 0.613060 -0.568479
O8    O     O_R   0.632170 0.500050 0.386920 -0.546974
Zn1   Zn    Zn3+2 0.499980 0.499970 0.650990 1.077212
Zn2   Zn    Zn3+2 0.500020 0.500030 0.349010 1.087856
O9    O     O_3   0.769624 0.725658 0.584247 -0.646611
H5    H     H_    0.707920 0.722833 0.547482 0.312384
O10   O     O_3   0.551490 0.928318 0.635514 -0.747486
H6    H     H_    0.526840 0.875987 0.706816 0.399102
O11   O     O_3   0.622850 0.139650 0.335896 -0.716992
H7    H     H_    0.663721 0.080860 0.289019 0.391018
O12   O     O_3   0.602728 0.663385 0.870912 -0.737123
H8    H     H_    0.629129 0.717768 0.942807 0.343485
O13   O     O_3   0.465897 0.397120 0.904373 -0.726301
H9    H     H_    0.429544 0.357099 0.831999 0.389960
O14   O     O_3   0.649191 0.563065 0.136535 -0.724538
H10   H     H_    0.695059 0.573931 0.066384 0.338464
S1    S     S_3+6 0.888017 0.130567 0.481584 0.094799
O15   O     O_2   0.852786 0.090785 0.346323 -0.262771
O16   O     O_2   0.946944 0.030150 0.534148 -0.203165
O17   O     O_3   0.801017 0.147644 0.586983 -0.536547
H11   H     H_    0.763949 0.070393 0.573697 0.410862
S2    S     S_3+6 0.101926 0.147286 0.381184 0.097121
O18   O     O_2   0.148439 0.082803 0.492449 -0.249035
O19   O     O_2   0.040600 0.056151 0.307473 -0.157578
O20   O     O_3   0.179275 0.198068 0.272450 -0.555319
H12   H     H_    0.219676 0.126195 0.257178 0.393376
S3    S     S_3+6 0.239485 0.762073 0.468236 0.077095
O21   O     O_2   0.169310 0.845363 0.412041 -0.191367
O22   O     O_2   0.284239 0.826101 0.586518 -0.257484
O23   O     O_3   0.316260 0.736386 0.348776 -0.551457
H13   H     H_    0.340284 0.820608 0.327883 0.380546
O24   O     O_3   0.101885 0.816484 0.663296 -0.660716
H14   H     H_    0.066772 0.894215 0.658380 0.397171
O25   O     O_3   0.911917 0.806536 0.694152 -0.630860
H15   H     H_    0.950757 0.838147 0.768325 0.355301
O26   O     O_3   0.577649 0.876547 0.278969 -0.740389
H16   H     H_    0.616489 0.803530 0.293887 0.359042

loop_
_geom_bond_atom_site_label_1
_geom_bond_atom_site_label_2
_ccdc_geom_bond_type
C2    C22   A    
C23   C24   A    
C6    C7    A    
C18   N1    D    
C12   O4    A    
C20   O6    A    
C10   H4    S    
O4    Zn2   S    
C22   O9    S    
O2    Zn2   S    
C9    O25   S    
C7    C13   A    
C11   C12   S    
S3    O23   S    
O1    Zn1   S    
C19   O14   S    
S1    O15   D    
O8    Zn2   S    
O17   H11   S    
C1    O1    A    
C7    C8    A    
C2    C26   A    
C13   S3    S    
O14   H10   S    
C12   O3    A    
C20   O5    A    
C11   C13   A    
H2    N2    S    
C4    S2    S    
C6    C26   A    
C21   O8    A    
C3    S1    S    
S2    O18   D    
S2    O20   S    
C5    C6    A    
C19   N2    D    
C14   O26   S    
C16   O11   S    
C5    C10   A    
C1    O2    A    
O6    Zn2   S    
S1    O16   D    
O9    H5    S    
O5    Zn1   S    
C15   C20   S    
O3    Zn1   S    
C14   C16   S    
C16   C17   D    
O26   H16   S    
C15   O10   S    
O20   H12   S    
C17   H1    S    
O11   H7    S    
C3    C25   A    
O24   H14   S    
O13   H9    S    
C24   C25   A    
O25   H15   S    
O7    Zn1   S    
S3    O21   D    
C10   C11   A    
S1    O17   S    
C8    O24   S    
O12   H8    S    
C18   C19   S    
N2    Zn2   S    
C24   H3    S    
C4    C5    A    
C14   C15   D    
N1    Zn1   S    
C25   C26   A    
O10   H6    S    
C2    C9    A    
C1    C17   S    
C21   C23   S    
O23   H13   S    
C22   C23   A    
S2    O19   D    
C3    C4    A    
C18   O12   S    
N1    O13   S    
C8    C9    A    
S3    O22   D    
C21   O7    A    
