data_mof_unit_40110.cif
_audit_creation_date              2012-12-10T19:05:41-0500
_audit_creation_method            fapswitch 2.2
_symmetry_space_group_name_H-M    P1
_symmetry_Int_Tables_number       1
_space_group_crystal_system       triclinic
_cell_length_a                    10.517071
_cell_length_b                    13.063747
_cell_length_c                    13.628279
_cell_angle_alpha                 85.932508
_cell_angle_beta                  90.161971
_cell_angle_gamma                 91.843875
_cell_volume                      1866.73771546

loop_
_atom_site_label
_atom_site_type_symbol
_atom_type_description
_atom_site_fract_x
_atom_site_fract_y
_atom_site_fract_z
_atom_type_partial_charge
C1    C     C_R   0.497979 0.481398 0.684998 0.918372
C2    C     C_3   0.039784 0.599469 0.491179 0.282479
C3    C     C_3   0.042707 0.453815 0.584531 0.252184
C4    C     C_3   0.957300 0.546181 0.415504 0.252116
C5    C     C_3   0.123225 0.503922 0.498272 -0.351695
C6    C     C_3   0.876777 0.496074 0.501760 -0.351698
C7    C     C_3   0.038925 0.450626 0.422623 0.318387
C8    C     C_3   0.961078 0.549369 0.577413 0.318434
C9    C     C_1   0.507541 0.533198 0.212153 -0.133945
C10   C     C_1   0.492327 0.466804 0.787841 -0.133878
C11   C     C_2   0.515905 0.544104 0.019924 0.397493
C12   C     C_R   0.502004 0.518602 0.315000 0.918390
C13   C     C_2   0.483786 0.455893 0.980065 0.397511
C14   C     C_1   0.487466 0.457942 0.875052 -0.100710
C15   C     C_1   0.512299 0.542059 0.124938 -0.100668
C16   C     C_3   0.007934 0.362385 0.734112 0.136972
C17   C     C_3   0.069899 0.331073 0.832141 -0.882224
C18   C     C_3   0.992150 0.637613 0.265938 0.137221
C19   C     C_3   0.930244 0.668926 0.167887 -0.882650
C20   C     C_3   0.007396 0.228494 0.515325 0.139184
C21   C     C_3   0.960075 0.123690 0.558298 -0.884316
C22   C     C_3   0.992597 0.771499 0.484713 0.139174
C23   C     C_2   0.475078 0.033229 0.464829 0.318445
C24   C     C_3   0.039919 0.876310 0.441760 -0.884334
C25   C     C_3   0.994713 0.365180 0.283056 -0.279618
C26   C     C_3   0.005284 0.634821 0.716979 -0.279691
C27   C     C_3   0.413478 0.283105 0.988059 0.118933
C28   C     C_3   0.374889 0.193635 0.060302 -0.832421
C29   C     C_3   0.587309 0.716598 0.011900 0.118839
C30   C     C_3   0.626076 0.805982 0.939622 -0.832722
C31   C     C_3   0.658877 0.945364 0.671331 0.112448
C32   C     C_3   0.711750 0.001021 0.757666 -0.825194
C33   C     C_3   0.341101 0.054618 0.328691 0.112399
C34   C     C_2   0.524930 0.966770 0.535175 0.318454
C35   C     C_3   0.288229 0.998956 0.242362 -0.825054
C36   C     C_1   0.522259 0.854235 0.522563 0.061452
C37   C     C_1   0.477745 0.145765 0.477439 0.061434
C38   C     C_R   0.742635 0.498396 0.501671 1.030791
C39   C     C_R   0.257365 0.501602 0.498342 1.030830
C40   C     C_3   0.960219 0.400526 0.508857 0.282488
H1    H     H_    0.966335 0.292228 0.703990 0.178513
H2    H     H_    0.887172 0.600406 0.135234 0.256633
H3    H     H_    0.093289 0.251132 0.557696 0.176860
H4    H     H_    0.035740 0.220713 0.437939 0.173142
H5    H     H_    0.875566 0.097127 0.516888 0.270154
H6    H     H_    0.036617 0.067681 0.553960 0.211380
H7    H     H_    0.934166 0.127777 0.636653 0.252373
H8    H     H_    0.964234 0.779269 0.562097 0.173148
H9    H     H_    0.906715 0.748864 0.442329 0.176866
H10   H     H_    0.065838 0.872236 0.363405 0.252379
H11   H     H_    0.963373 0.932316 0.446101 0.211378
H12   H     H_    0.929558 0.414766 0.747743 0.170827
H13   H     H_    0.124421 0.902867 0.483180 0.270153
H14   H     H_    0.960204 0.428494 0.232531 0.194477
H15   H     H_    0.912891 0.327605 0.324538 0.189701
H16   H     H_    0.034484 0.307197 0.237090 0.171452
H17   H     H_    0.087103 0.672399 0.675495 0.189776
H18   H     H_    0.039801 0.571512 0.767506 0.194498
H19   H     H_    0.965508 0.692803 0.762942 0.171387
H20   H     H_    0.494413 0.259348 0.943260 0.149077
H21   H     H_    0.330410 0.301165 0.939817 0.149987
H22   H     H_    0.293871 0.214941 0.106007 0.259512
H23   H     H_    0.112995 0.399589 0.864780 0.256795
H24   H     H_    0.345597 0.126044 0.019580 0.205383
H25   H     H_    0.456303 0.172923 0.109059 0.261440
H26   H     H_    0.670589 0.697966 0.059690 0.149881
H27   H     H_    0.507045 0.740722 0.057153 0.149399
H28   H     H_    0.544435 0.827314 0.891376 0.261447
H29   H     H_    0.656469 0.873284 0.980318 0.205425
H30   H     H_    0.706356 0.784280 0.893403 0.259633
H31   H     H_    0.739178 0.931416 0.621282 0.134259
H32   H     H_    0.614849 0.870909 0.700842 0.158434
H33   H     H_    0.635130 0.010265 0.811935 0.255926
H34   H     H_    0.997459 0.294593 0.883683 0.214512
H35   H     H_    0.788933 0.956312 0.794028 0.204457
H36   H     H_    0.750402 0.078223 0.731790 0.262508
H37   H     H_    0.385096 0.129083 0.299176 0.158412
H38   H     H_    0.260806 0.068546 0.378755 0.134271
H39   H     H_    0.249595 0.921750 0.268243 0.262504
H40   H     H_    0.211032 0.043657 0.206006 0.204378
H41   H     H_    0.364845 0.989717 0.188088 0.255995
H42   H     H_    0.145202 0.275296 0.821217 0.257817
H43   H     H_    0.070532 0.585225 0.252335 0.170886
H44   H     H_    0.033737 0.707771 0.296068 0.178529
H45   H     H_    0.854935 0.724708 0.178784 0.257820
H46   H     H_    0.002716 0.705404 0.116371 0.214643
N1    N     N_1   0.479750 0.234530 0.484780 -0.086941
N2    N     N_1   0.520250 0.765470 0.515220 -0.086935
O1    O     O_R   0.492590 0.402510 0.634760 -0.616504
O2    O     O_3   0.898812 0.590734 0.330110 -0.612970
O3    O     O_3   0.908713 0.299137 0.519362 -0.594133
O4    O     O_3   0.091286 0.700861 0.480679 -0.594134
O5    O     O_3   0.092298 0.400710 0.344648 -0.613802
O6    O     O_3   0.907702 0.599281 0.655390 -0.613876
O7    O     O_3   0.449820 0.368415 0.041075 -0.625433
O8    O     O_3   0.549706 0.631615 0.958908 -0.625450
O9    O     O_3   0.567456 0.007035 0.622101 -0.628065
O10   O     O_3   0.432560 0.992965 0.377901 -0.628071
O11   O     O_R   0.507410 0.597490 0.365240 -0.616475
O12   O     O_R   0.505590 0.572960 0.644530 -0.602278
O13   O     O_R   0.494410 0.427040 0.355470 -0.602299
O14   O     O_R   0.679550 0.414790 0.495140 -0.591983
O15   O     O_R   0.320450 0.585210 0.504860 -0.591978
O16   O     O_R   0.692550 0.585240 0.504910 -0.602912
O17   O     O_R   0.307450 0.414760 0.495090 -0.602887
O18   O     O_3   0.101234 0.409272 0.669913 -0.612945
Zn1   Zn    Zn3+2 0.491320 0.386190 0.493470 1.019006
Zn2   Zn    Zn3+2 0.508680 0.613810 0.506530 1.019025

loop_
_geom_bond_atom_site_label_1
_geom_bond_atom_site_label_2
_ccdc_geom_bond_type
C11   O8    S    
C26   O6    S    
C22   H8    S    
C25   O5    S    
C27   O7    S    
C25   H16   S    
C19   H46   S    
C20   H3    S    
C32   H35   S    
C35   H41   S    
C36   N2    T    
O11   Zn2   S    
O17   Zn1   S    
C13   O7    S    
C17   H42   S    
C27   H20   S    
N2    Zn2   S    
C33   H38   S    
C35   H40   S    
C34   O9    S    
C33   O10   S    
C12   O11   A    
C38   O16   A    
C27   H21   S    
C30   H30   S    
C29   H27   S    
C11   C15   S    
C16   C17   S    
C18   H44   S    
C7    C40   S    
C6    C38   S    
O15   Zn2   S    
C26   H19   S    
C21   H5    S    
C19   H2    S    
C16   O18   S    
C24   H11   S    
C31   H31   S    
C13   C14   S    
C4    C7    S    
C1    O12   A    
C20   H4    S    
C4    O2    S    
C3    O18   S    
C24   H10   S    
C7    O5    S    
C20   O3    S    
O12   Zn2   S    
C18   O2    S    
C25   H15   S    
C8    O6    S    
C25   H14   S    
C4    C6    S    
C3    C8    S    
C10   C14   T    
C32   H33   S    
C5    C7    S    
C18   C19   S    
C6    C8    S    
C19   H45   S    
C24   H13   S    
C23   C37   S    
C2    C4    S    
C29   C30   S    
C31   C32   S    
C23   C34   D    
O1    Zn1   S    
C18   H43   S    
O14   Zn1   S    
C2    O4    S    
C26   H18   S    
C22   H9    S    
C28   H24   S    
C31   H32   S    
C3    C40   S    
C5    C39   S    
C17   H34   S    
C6    C40   S    
C2    C5    S    
O16   Zn2   S    
C30   H29   S    
C21   H6    S    
C39   O17   A    
C1    O1    A    
C37   N1    T    
C2    C8    S    
C1    C10   S    
C16   H12   S    
C3    C5    S    
C32   H36   S    
C29   O8    S    
C39   O15   A    
C28   H25   S    
C9    C15   T    
C12   O13   A    
C38   O14   A    
C17   H23   S    
C11   C13   D    
C33   H37   S    
O13   Zn1   S    
C35   H39   S    
C33   C35   S    
C34   C36   S    
C22   C24   S    
C31   O9    S    
C40   O3    S    
C26   H17   S    
C9    C12   S    
C29   H26   S    
C23   O10   S    
N1    Zn1   S    
C20   C21   S    
C27   C28   S    
C22   O4    S    
C16   H1    S    
C30   H28   S    
C21   H7    S    
C28   H22   S    
