data_mof_unit_5562.cif
_audit_creation_date              2012-10-26T21:01:04-0400
_audit_creation_method            fapswitch 2.2
_symmetry_space_group_name_H-M    P1
_symmetry_Int_Tables_number       1
_space_group_crystal_system       triclinic
_cell_length_a                    10.945358
_cell_length_b                    10.87216
_cell_length_c                    9.559635
_cell_angle_alpha                 89.594249
_cell_angle_beta                  89.616724
_cell_angle_gamma                 90.235116
_cell_volume                      1137.52976056

loop_
_atom_site_label
_atom_site_type_symbol
_atom_type_description
_atom_site_fract_x
_atom_site_fract_y
_atom_site_fract_z
_atom_type_partial_charge
C1    C     C_R   0.498705 0.262616 0.500274 0.547043
C2    C     C_R   0.409504 0.443695 0.075578 -0.018538
C3    C     C_R   0.408855 0.444854 0.926910 -0.016471
C4    C     C_R   0.265453 0.501312 0.500491 0.553848
C5    C     C_R   0.583504 0.568675 0.924987 0.157532
C6    C     C_3   0.718861 0.556374 0.917760 -0.277213
C7    C     C_3   0.718816 0.555484 0.076056 -0.284535
C8    C     C_R   0.501314 0.737157 0.499405 0.553579
C9    C     C_R   0.734625 0.498634 0.499920 0.554765
C10   C     C_2   0.934284 0.506005 0.386486 -0.163194
C11   C     C_2   0.866559 0.492130 0.502635 -0.119059
C12   C     C_R   0.497752 0.129730 0.498906 0.002179
C13   C     C_2   0.067879 0.499853 0.386467 -0.160840
C14   C     C_2   0.133616 0.507120 0.503762 -0.118500
C15   C     C_R   0.493283 0.060084 0.621287 0.014219
C16   C     C_3   0.362192 0.112231 0.830269 -0.272079
C17   C     C_3   0.357669 0.113961 0.989749 -0.458363
C18   C     C_R   0.503592 0.065375 0.371055 -0.162705
C19   C     C_R   0.505179 0.936323 0.370204 -0.162985
C20   C     C_R   0.502637 0.869619 0.497353 0.007663
C21   C     C_R   0.499050 0.936252 0.620230 0.001758
C22   C     C_3   0.494865 0.923369 0.775269 -0.242286
C23   C     C_3   0.486247 0.065211 0.777452 -0.106905
C24   C     C_R   0.583452 0.568770 0.072286 0.157328
Cu1   Cu    Cu3+1 0.499990 0.499980 0.640670 0.928257
Cu2   Cu    Cu3+1 0.500010 0.500020 0.359330 0.932986
H1    H     H_    0.891284 0.520929 0.286395 0.135080
H2    H     H_    0.112936 0.491522 0.285371 0.141338
H3    H     H_    0.092166 0.520522 0.605556 0.096248
H4    H     H_    0.507200 0.114004 0.271924 0.134276
H5    H     H_    0.508577 0.889617 0.270555 0.133866
H6    H     H_    0.411601 0.873504 0.812012 0.145024
H7    H     H_    0.582171 0.887639 0.817822 0.121238
H8    H     H_    0.368081 0.019402 0.032660 0.154846
H9    H     H_    0.431892 0.173258 0.030746 0.148725
H10   H     H_    0.268546 0.151275 0.025338 0.132202
H11   H     H_    0.347398 0.206475 0.789642 0.166242
H12   H     H_    0.567182 0.111809 0.823310 0.145985
H13   H     H_    0.286156 0.054080 0.790810 0.149722
H14   H     H_    0.337912 0.395196 0.131961 0.113030
H15   H     H_    0.335308 0.399760 0.872655 0.108535
H16   H     H_    0.748819 0.467320 0.872822 0.150914
H17   H     H_    0.763413 0.639375 0.871475 0.122577
H18   H     H_    0.747290 0.465251 0.120108 0.146525
H19   H     H_    0.764171 0.637593 0.121340 0.120441
H20   H     H_    0.906546 0.473316 0.603722 0.093274
N1    N     N_R   0.500780 0.500930 0.147930 -0.232196
N2    N     N_R   0.500780 0.500890 0.852020 -0.231934
O1    O     O_R   0.500000 0.319640 0.618810 -0.506986
O2    O     O_R   0.500010 0.319680 0.381230 -0.508944
O3    O     O_R   0.321940 0.499980 0.618760 -0.512440
O4    O     O_R   0.321950 0.500020 0.381180 -0.504472
O5    O     O_R   0.499990 0.680320 0.618770 -0.497938
O6    O     O_R   0.500000 0.680360 0.381190 -0.504016
O7    O     O_R   0.678050 0.499980 0.618820 -0.508377
O8    O     O_R   0.678060 0.500020 0.381240 -0.500263

loop_
_geom_bond_atom_site_label_1
_geom_bond_atom_site_label_2
_ccdc_geom_bond_type
C8    O5    A    
C10   H1    S    
Cu1   O3    S    
C13   H2    S    
C6    C7    S    
C18   H4    S    
C17   H10   S    
Cu2   O4    S    
C2    N1    A    
C23   H12   S    
C1    O2    A    
C19   C20   A    
C12   C15   A    
C16   H11   S    
C19   H5    S    
C15   C23   S    
C2    C3    A    
Cu1   O7    S    
C9    O8    A    
C7    H18   S    
C9    C11   S    
Cu1   N2    S    
C16   H13   S    
C8    C20   S    
C5    C24   A    
C22   H6    S    
Cu2   N1    S    
C4    O4    A    
C9    O7    A    
C7    H19   S    
C21   C22   S    
Cu1   O5    S    
C16   C23   S    
C6    H17   S    
Cu2   O2    S    
C4    C14   S    
C5    C6    S    
C5    N2    A    
Cu1   O1    S    
C16   C17   S    
C10   C11   D    
C4    O3    A    
C12   C18   A    
C7    C24   S    
Cu2   O6    S    
C3    N2    A    
C15   C21   A    
C20   C21   A    
C18   C19   A    
C17   H8    S    
C8    O6    A    
C22   H7    S    
C22   C23   S    
C3    H15   S    
C11   H20   S    
C17   H9    S    
Cu1   Cu2   S    
C13   C14   D    
C24   N1    A    
C6    H16   S    
C1    C12   S    
C2    H14   S    
Cu2   O8    S    
C14   H3    S    
C10   C13   S    
C1    O1    A    
