data_mof_unit_19404.cif
_audit_creation_date              2012-12-10T17:35:47-0500
_audit_creation_method            fapswitch 2.2
_symmetry_space_group_name_H-M    P1
_symmetry_Int_Tables_number       1
_space_group_crystal_system       triclinic
_cell_length_a                    10.52135
_cell_length_b                    12.205883
_cell_length_c                    12.790255
_cell_angle_alpha                 93.633676
_cell_angle_beta                  92.256088
_cell_angle_gamma                 85.737437
_cell_volume                      1633.72701828

loop_
_atom_site_label
_atom_site_type_symbol
_atom_type_description
_atom_site_fract_x
_atom_site_fract_y
_atom_site_fract_z
_atom_type_partial_charge
C1    C     C_R   0.495436 0.522408 0.699649 0.882292
C2    C     C_R   0.504565 0.477592 0.300350 0.882291
C3    C     C_R   0.568631 0.473212 0.870690 -0.291000
C4    C     C_R   0.431381 0.526798 0.129310 -0.290979
C5    C     C_R   0.550932 0.466942 0.976603 0.108088
C6    C     C_R   0.449084 0.533069 0.023397 0.108086
C7    C     C_R   0.452202 0.944277 0.367166 0.120711
C8    C     C_R   0.547807 0.055724 0.632836 0.120718
C9    C     C_R   0.428231 0.836018 0.389725 0.277706
C10   C     C_R   0.571773 0.163983 0.610274 0.277696
C11   C     C_R   0.528413 0.861418 0.557939 0.245310
C12   C     C_R   0.471587 0.138581 0.442062 0.245305
C13   C     C_R   0.517924 0.978934 0.549069 -0.058684
C14   C     C_R   0.482078 0.021065 0.450934 -0.058682
C15   C     C_R   0.741950 0.499259 0.500454 0.891186
C16   C     C_R   0.258050 0.500741 0.499546 0.891191
C17   C     C_3   0.971933 0.395958 0.507809 0.213895
C18   C     C_3   0.028067 0.604041 0.492192 0.213893
C19   C     C_3   0.050757 0.462365 0.589051 0.182066
C20   C     C_3   0.949244 0.537634 0.410949 0.182063
C21   C     C_3   0.123111 0.503006 0.499567 -0.081805
C22   C     C_3   0.876890 0.496993 0.500433 -0.081805
C23   C     C_3   0.045611 0.436149 0.417268 -0.271860
C24   C     C_3   0.954389 0.563849 0.582732 -0.271858
C25   C     C_R   0.515478 0.462128 0.189181 -0.104158
C26   C     C_R   0.484526 0.537874 0.810818 -0.104152
C27   C     C_R   0.368344 0.605183 0.963734 -0.031731
C28   C     C_R   0.631671 0.394826 0.036266 -0.031731
C29   C     C_R   0.386171 0.607155 0.856154 -0.075396
C30   C     C_R   0.613834 0.392847 0.143845 -0.075400
H1    H     H_    0.085615 0.384730 0.349942 0.157958
H2    H     H_    0.914385 0.615268 0.650058 0.157959
H3    H     H_    0.353116 0.574003 0.167330 0.155654
H4    H     H_    0.646894 0.426008 0.832669 0.155657
N1    N     N_R   0.523490 0.207800 0.519350 -0.119747
N2    N     N_R   0.476510 0.792200 0.480650 -0.119748
O1    O     O_R   0.506270 0.421700 0.658830 -0.617350
O2    O     O_R   0.493730 0.578300 0.341170 -0.617346
O3    O     O_R   0.491200 0.609310 0.646410 -0.618839
O4    O     O_R   0.508800 0.390690 0.353590 -0.618835
O5    O     O_R   0.693580 0.406210 0.506230 -0.622268
O6    O     O_R   0.306420 0.593790 0.493770 -0.622263
O7    O     O_R   0.678510 0.593830 0.493810 -0.630873
O8    O     O_R   0.321490 0.406170 0.506190 -0.630866
Zn1   Zn    Zn3+2 0.510060 0.374730 0.508290 0.933623
Zn2   Zn    Zn3+2 0.489940 0.625270 0.491710 0.933623
C31   C     C_3   0.110392 0.419899 0.690468 -0.869273
H5    H     H_    0.034238 0.397772 0.741209 0.243214
H6    H     H_    0.175677 0.345987 0.672707 0.257075
H7    H     H_    0.164918 0.484582 0.732315 0.237064
C32   C     C_3   0.889608 0.580098 0.309531 -0.869273
H8    H     H_    0.965761 0.602230 0.258792 0.243213
H9    H     H_    0.835089 0.515410 0.267683 0.237064
H10   H     H_    0.824316 0.654006 0.327293 0.257077
C33   C     C_3   0.944863 0.276309 0.517482 -0.844109
H11   H     H_    0.035570 0.223888 0.513488 0.236904
H12   H     H_    0.901822 0.267127 0.593793 0.236378
H13   H     H_    0.879091 0.249128 0.452807 0.265196
C34   C     C_3   0.055137 0.723689 0.482521 -0.844104
H14   H     H_    0.964430 0.776110 0.486512 0.236903
H15   H     H_    0.120906 0.750869 0.547200 0.265197
H16   H     H_    0.098183 0.732873 0.406212 0.236383
C35   C     C_1   0.699020 0.323300 0.207627 0.183619
N3    N     N_1   0.766974 0.267685 0.258265 -0.207460
C36   C     C_1   0.300971 0.676692 0.792371 0.183622
N4    N     N_1   0.233006 0.732298 0.741732 -0.207464
C37   C     C_1   0.266711 0.676040 0.011637 0.143122
N5    N     N_1   0.185817 0.732471 0.049780 -0.209187
C38   C     C_1   0.733311 0.323974 0.988363 0.143122
N6    N     N_1   0.814210 0.267548 0.950220 -0.209187
C39   C     C_3   0.389367 0.187913 0.355212 -0.801129
H17   H     H_    0.336733 0.264384 0.382303 0.266326
H18   H     H_    0.312684 0.134090 0.328550 0.214386
H19   H     H_    0.447610 0.204570 0.288444 0.242159
C40   C     C_3   0.610635 0.812085 0.644787 -0.801120
H20   H     H_    0.663244 0.735600 0.617703 0.266341
H21   H     H_    0.552398 0.795453 0.711567 0.242149
H22   H     H_    0.687342 0.865894 0.671425 0.214370
C41   C     C_3   0.652322 0.228023 0.688271 -0.823188
H23   H     H_    0.736132 0.174615 0.714501 0.216425
H24   H     H_    0.691582 0.298015 0.653950 0.267380
H25   H     H_    0.596368 0.256352 0.757699 0.242728
C42   C     C_3   0.347681 0.771983 0.311728 -0.823226
H26   H     H_    0.263869 0.825388 0.285518 0.216422
H27   H     H_    0.403621 0.743670 0.242293 0.242735
H28   H     H_    0.308433 0.701981 0.346036 0.267382
C43   C     C_3   0.465332 0.968155 0.253279 -0.886380
H29   H     H_    0.529484 0.034834 0.245251 0.251683
H30   H     H_    0.512494 0.895659 0.209808 0.243762
H31   H     H_    0.370570 0.987425 0.214925 0.248520
C44   C     C_3   0.534710 0.031840 0.746726 -0.886363
H32   H     H_    0.470527 0.965185 0.754764 0.251677
H33   H     H_    0.629481 0.012532 0.785051 0.248512
H34   H     H_    0.487601 0.104346 0.790222 0.243759

loop_
_geom_bond_atom_site_label_1
_geom_bond_atom_site_label_2
_ccdc_geom_bond_type
C33   H11   S    
C16   C21   S    
C27   C29   A    
C18   C21   S    
C28   C38   S    
C43   H29   S    
C4    C25   A    
C31   H6    S    
C17   C23   S    
C18   C24   S    
C11   N2    A    
C19   C21   S    
C20   C32   S    
C5    C6    A    
C19   C31   S    
C44   H33   S    
O6    Zn2   S    
C15   C22   S    
C7    C43   S    
C6    C27   A    
C9    N2    A    
N2    Zn2   S    
C10   N1    A    
C17   C33   S    
C1    O1    A    
C34   H14   S    
C13   C14   A    
O7    Zn2   S    
C31   H7    S    
C7    C14   A    
O4    Zn1   S    
C34   H15   S    
C37   N5    T    
C31   H5    S    
C15   O5    A    
C4    C6    A    
C44   H32   S    
C39   H18   S    
C3    H4    S    
C32   H8    S    
C32   H9    S    
C23   H1    S    
C40   H20   S    
C24   H2    S    
C33   H12   S    
C39   H19   S    
C5    C28   A    
C2    O2    A    
C42   H26   S    
C20   C23   S    
C8    C44   S    
C12   N1    A    
C40   H21   S    
C9    C42   S    
O3    Zn2   S    
C29   C36   S    
C42   H27   S    
C12   C39   S    
C12   C14   A    
C21   C23   S    
C1    C26   S    
C22   C24   S    
C33   H13   S    
O1    Zn1   S    
N1    Zn1   S    
C16   O6    A    
O8    Zn1   S    
C41   H24   S    
C25   C30   A    
C7    C9    A    
C16   O8    A    
C4    H3    S    
C34   H16   S    
C3    C26   A    
C20   C22   S    
C35   N3    T    
C3    C5    A    
C41   H25   S    
C10   C41   S    
C17   C22   S    
C32   H10   S    
C28   C30   A    
C19   C24   S    
C15   O7    A    
C39   H17   S    
C11   C40   S    
C44   H34   S    
C11   C13   A    
C17   C19   S    
C2    C25   S    
C18   C20   S    
C38   N6    T    
C40   H22   S    
O2    Zn2   S    
C27   C37   S    
C1    O3    A    
C41   H23   S    
C8    C13   A    
C2    O4    A    
C18   C34   S    
C42   H28   S    
C26   C29   A    
C8    C10   A    
C36   N4    T    
C43   H31   S    
C43   H30   S    
O5    Zn1   S    
C30   C35   S    
