data_mof_unit_64197.cif
_audit_creation_date              2012-12-10T17:40:28-0500
_audit_creation_method            fapswitch 2.2
_symmetry_space_group_name_H-M    P1
_symmetry_Int_Tables_number       1
_space_group_crystal_system       triclinic
_cell_length_a                    36.042716
_cell_length_b                    34.395346
_cell_length_c                    24.891672
_cell_angle_alpha                 90.031364
_cell_angle_beta                  136.427572
_cell_angle_gamma                 89.973685
_cell_volume                      21269.6913045

loop_
_atom_site_label
_atom_site_type_symbol
_atom_type_description
_atom_site_fract_x
_atom_site_fract_y
_atom_site_fract_z
_atom_type_partial_charge
C1    C     C_R   0.900344 0.749963 0.000036 0.536319
C2    C     C_3   0.247670 0.785132 0.021172 0.043391
C3    C     C_R   0.736927 0.246937 0.458929 -0.007419
C4    C     C_R   0.230524 0.260033 0.459074 -0.007979
C5    C     C_R   0.771547 0.759027 0.541454 -0.008745
C6    C     C_R   0.777531 0.247421 0.541269 -0.008556
C7    C     C_R   0.228718 0.758967 0.458575 -0.009008
C8    C     C_R   0.742119 0.746388 0.418428 -0.000457
C9    C     C_R   0.261237 0.273008 0.583641 -0.010586
C10   C     C_R   0.257840 0.747215 0.581588 -0.006132
C11   C     C_R   0.735332 0.276579 0.417446 -0.011219
C12   C     C_R   0.242153 0.246891 0.418432 -0.000422
C13   C     C_3   0.230824 0.213729 0.987245 0.043124
C14   C     C_R   0.761502 0.773393 0.583610 -0.010516
C15   C     C_R   0.776195 0.219584 0.581927 -0.004044
C16   C     C_R   0.239229 0.772200 0.416467 -0.012217
C17   C     C_R   0.670765 0.792494 0.459952 0.040886
C18   C     C_R   0.336840 0.238783 0.541994 0.042098
C19   C     C_R   0.330362 0.790588 0.540022 0.041033
C20   C     C_R   0.706494 0.183721 0.460454 0.043810
C21   C     C_R   0.170304 0.291798 0.460032 0.040704
C22   C     C_R   0.836688 0.737800 0.542019 0.041994
C23   C     C_R   0.818037 0.304729 0.541575 0.040764
C24   C     C_3   0.753933 0.785581 0.982180 0.044359
C25   C     C_R   0.162945 0.739988 0.457948 0.046144
C26   C     C_R   0.709766 0.788475 0.541676 0.041386
C27   C     C_R   0.296569 0.241861 0.459872 0.042260
C28   C     C_R   0.291398 0.786225 0.458396 0.040843
C29   C     C_R   0.744410 0.185702 0.542452 0.042969
C30   C     C_R   0.209326 0.287671 0.541736 0.042011
C31   C     C_R   0.796477 0.740900 0.459904 0.041589
C32   C     C_R   0.779365 0.302813 0.459605 0.039302
C33   C     C_R   0.203314 0.742667 0.540054 0.045101
C34   C     C_R   0.954844 0.081207 0.966134 0.031060
C35   C     C_3   0.252060 0.714747 0.978325 0.045573
C36   C     C_R   0.045953 0.917853 0.027946 0.031334
C37   C     C_R   0.050596 0.082848 0.044407 0.032035
C38   C     C_R   0.957729 0.918663 0.979322 0.043779
C39   C     C_R   0.455216 0.581154 0.967327 0.030856
C40   C     C_R   0.546332 0.417792 0.028726 0.032372
C41   C     C_R   0.550725 0.582860 0.044296 0.032424
C42   C     C_R   0.457989 0.418682 0.979755 0.043596
C43   C     C_R   0.001478 0.102079 0.001874 -0.011947
C44   C     C_R   0.001113 0.898208 0.002200 -0.017130
C45   C     C_R   0.501627 0.602051 0.002123 -0.011857
C46   C     C_3   0.748806 0.284738 0.023461 0.043467
C47   C     C_R   0.501305 0.398198 0.002494 -0.016754
C48   C     C_R   0.051105 0.041595 0.041051 -0.026532
C49   C     C_R   0.961441 0.959440 0.989881 -0.011776
C50   C     C_R   0.959407 0.041093 0.982434 -0.024982
C51   C     C_R   0.050323 0.958867 0.038622 -0.028132
C52   C     C_R   0.551367 0.541580 0.041394 -0.026467
C53   C     C_R   0.461905 0.459412 0.990824 -0.011565
C54   C     C_R   0.459959 0.541051 0.983815 -0.024564
C55   C     C_R   0.550715 0.458822 0.039390 -0.027709
C56   C     C_R   0.005742 0.020745 0.012999 0.001125
C57   C     C_3   0.746583 0.714309 0.018831 0.044511
C58   C     C_R   0.005970 0.979645 0.014029 0.002401
C59   C     C_R   0.506161 0.520720 0.013859 0.001493
C60   C     C_R   0.506399 0.479613 0.014885 0.002313
C61   C     C_R   0.095948 0.020668 0.067424 0.043785
C62   C     C_R   0.922742 0.980490 0.979719 0.055337
C63   C     C_R   0.920489 0.021294 0.973084 0.049579
C64   C     C_R   0.097298 0.979799 0.072333 0.042021
C65   C     C_R   0.596206 0.520628 0.067767 0.043501
C66   C     C_R   0.423453 0.480406 0.981286 0.055630
C67   C     C_R   0.421324 0.521227 0.975082 0.049708
C68   C     C_3   0.269302 0.286231 0.013015 0.045595
C69   C     C_R   0.597661 0.479765 0.073032 0.042952
C70   C     C_R   0.999652 0.855721 0.999718 0.563408
C71   C     C_R   0.999884 0.144367 0.999879 0.571967
C72   C     C_R   0.499698 0.355719 0.999776 0.563907
C73   C     C_R   0.499921 0.644357 0.999928 0.570725
C74   C     C_R   0.000014 0.644201 0.000064 0.547487
C75   C     C_R   0.999986 0.355871 0.000045 0.543295
C76   C     C_R   0.500006 0.144188 0.000010 0.548309
C77   C     C_R   0.500004 0.855844 0.000043 0.543237
C78   C     C_R   0.015128 0.418411 0.062912 0.068097
C79   C     C_3   0.201885 0.741444 0.928098 0.008600
C80   C     C_R   0.005576 0.581779 0.957340 0.068696
C81   C     C_R   0.984621 0.418542 0.937728 0.070065
C82   C     C_R   0.994885 0.581885 0.043537 0.068476
C83   C     C_R   0.513309 0.918352 0.061272 0.068248
C84   C     C_R   0.506949 0.081774 0.958725 0.068344
C85   C     C_R   0.486999 0.918331 0.939170 0.067917
C86   C     C_R   0.493350 0.081789 0.041511 0.072991
C87   C     C_R   0.999945 0.398279 0.000273 0.027646
C88   C     C_R   0.000089 0.601908 0.000239 0.031730
C89   C     C_R   0.500040 0.898209 0.000118 0.028802
C90   C     C_3   0.798101 0.257250 0.071930 0.007726
C91   C     C_R   0.500046 0.101875 0.000011 0.032550
C92   C     C_R   0.993247 0.459028 0.944395 0.001516
C93   C     C_R   0.003340 0.541304 0.053136 0.001805
C94   C     C_R   0.007080 0.459044 0.056788 0.000976
C95   C     C_R   0.997305 0.541194 0.948056 0.001604
C96   C     C_R   0.495266 0.958914 0.945865 0.001249
C97   C     C_R   0.501800 0.041221 0.051274 0.003858
C98   C     C_R   0.505340 0.958980 0.054856 0.001572
C99   C     C_R   0.498815 0.041158 0.949288 0.001375
C100  C     C_R   0.000292 0.479606 0.000687 -0.024787
C101  C     C_3   0.797849 0.739935 0.071338 0.006678
C102  C     C_R   0.000340 0.520681 0.000657 -0.024883
C103  C     C_R   0.500318 0.979514 0.000356 -0.024592
C104  C     C_R   0.500323 0.020609 0.000316 -0.024862
C105  C     C_R   0.992593 0.479767 0.894774 0.123800
C106  C     C_R   0.012230 0.520501 0.110546 0.123598
C107  C     C_R   0.007822 0.479967 0.106416 0.122876
C108  C     C_R   0.988422 0.520299 0.890697 0.124843
C109  C     C_R   0.496288 0.979754 0.898075 0.122958
C110  C     C_R   0.509264 0.020435 0.107410 0.126465
C111  C     C_R   0.504606 0.979933 0.102917 0.124534
C112  C     C_R   0.099689 0.250009 0.000029 0.527838
C113  C     C_3   0.209770 0.273697 0.943980 0.008197
C114  C     C_R   0.491630 0.020255 0.893446 0.123350
C115  C     C_2   0.901193 0.100621 0.907125 0.599306
C116  C     C_2   0.083350 0.895396 0.032250 0.612258
C117  C     C_2   0.101115 0.106134 0.098427 0.594319
C118  C     C_2   0.905029 0.898370 0.930632 0.592086
C119  C     C_2   0.401507 0.600529 0.908977 0.600171
C120  C     C_2   0.583972 0.395239 0.033656 0.612352
C121  C     C_2   0.601151 0.606255 0.097634 0.593977
C122  C     C_2   0.405168 0.398521 0.930781 0.592236
C123  C     C_2   0.139605 0.040559 0.083008 0.641108
C124  C     C_3   0.701633 0.242585 0.927589 0.007966
C125  C     C_2   0.891266 0.960608 0.989647 0.614679
C126  C     C_2   0.883650 0.043477 0.970254 0.620846
C127  C     C_2   0.149902 0.959904 0.119753 0.638365
C128  C     C_2   0.639770 0.540453 0.083045 0.641338
C129  C     C_2   0.392152 0.460392 0.991410 0.614749
C130  C     C_2   0.384996 0.543372 0.973352 0.619702
C131  C     C_2   0.650325 0.459909 0.120740 0.637698
C132  C     C_2   0.148502 0.731943 0.847140 0.642556
C133  C     C_2   0.851738 0.265491 0.153455 0.641388
C134  C     C_2   0.850821 0.728756 0.151398 0.640495
C135  C     C_3   0.297841 0.758437 0.071402 0.008202
C136  C     C_2   0.165020 0.300401 0.880407 0.642087
C137  C     C_2   0.647965 0.234382 0.846063 0.642884
C138  C     C_2   0.351191 0.767988 0.152351 0.641314
C139  C     C_2   0.335055 0.199496 0.119734 0.640966
C140  C     C_2   0.649756 0.771214 0.849607 0.641563
C141  C     C_2   0.723144 0.308882 0.896686 0.640324
C142  C     C_2   0.278463 0.692681 0.106603 0.642260
C143  C     C_2   0.298812 0.276723 0.147509 0.640910
C144  C     C_2   0.719290 0.695060 0.888728 0.642108
C145  C     C_2   0.221243 0.807171 0.892840 0.640024
C146  C     C_3   0.290353 0.226259 0.056272 0.005879
C147  C     C_2   0.776564 0.190933 0.102785 0.641803
C148  C     C_2   0.781228 0.804771 0.112356 0.637236
C149  C     C_2   0.201301 0.223193 0.852778 0.640264
C150  C     C_2   0.626240 0.820499 0.422098 0.640850
C151  C     C_2   0.394531 0.239177 0.586672 0.620620
C152  C     C_2   0.375392 0.818000 0.577571 0.641096
C153  C     C_2   0.685230 0.145112 0.421602 0.619514
C154  C     C_2   0.125522 0.319514 0.422310 0.640963
C155  C     C_2   0.894386 0.737664 0.586721 0.620635
C156  C     C_2   0.852365 0.339916 0.581272 0.642739
C157  C     C_3   0.702668 0.759958 0.929659 0.008100
C158  C     C_2   0.105295 0.741485 0.413419 0.619803
C159  C     C_2   0.692888 0.795634 0.580222 0.641904
C160  C     C_2   0.312234 0.248524 0.419307 0.619853
C161  C     C_2   0.308652 0.791794 0.420015 0.641005
C162  C     C_2   0.758923 0.149759 0.587486 0.624583
C163  C     C_2   0.192345 0.294242 0.580284 0.641643
C164  C     C_2   0.812266 0.747141 0.419417 0.620203
C165  C     C_2   0.790071 0.324655 0.420592 0.640526
C166  C     C_2   0.187436 0.749179 0.580312 0.620432
C167  C     C_1   0.139178 0.749816 0.999850 0.114714
C168  C     C_1   0.860737 0.250123 0.999998 0.119558
C169  C     C_1   0.860868 0.749838 0.000251 0.123740
C170  C     C_1   0.139315 0.250031 0.000115 0.118139
C171  C     C_1   0.639161 0.249795 0.999816 0.114625
C172  C     C_R   0.099670 0.749962 0.000000 0.524045
C173  C     C_1   0.360729 0.750121 0.999980 0.120094
C174  C     C_1   0.360735 0.249927 0.999990 0.124196
C175  C     C_1   0.639308 0.750062 0.000093 0.118451
C176  C     C_3   0.262883 0.723031 0.049899 0.008747
C177  C     C_3   0.737740 0.277629 0.951395 0.008137
C178  C     C_3   0.736135 0.724151 0.948048 0.007862
C179  C     C_3   0.272542 0.262610 0.069296 0.008257
C180  C     C_3   0.761999 0.222205 0.048123 0.008621
C181  C     C_3   0.236851 0.776848 0.949602 0.007983
C182  C     C_3   0.227584 0.237345 0.930970 0.006896
C183  C     C_R   0.900320 0.250033 0.999988 0.529574
C184  C     C_3   0.764370 0.775736 0.052953 0.008336
C185  C     C_3   0.212843 0.749498 0.999535 -0.039219
C186  C     C_3   0.786917 0.250367 0.000019 -0.039996
C187  C     C_3   0.787257 0.749544 0.000672 -0.040118
C188  C     C_3   0.213251 0.250314 0.000341 -0.040584
C189  C     C_3   0.712828 0.249467 0.999506 -0.039251
C190  C     C_3   0.286895 0.750381 0.999974 -0.039995
C191  C     C_3   0.286871 0.249640 0.999912 -0.039735
C192  C     C_3   0.713242 0.750344 0.000309 -0.040305
C193  C     C_1   0.172411 0.749648 0.999694 0.104857
C194  C     C_R   0.400325 0.249976 0.999999 0.537685
C195  C     C_1   0.827423 0.250250 0.999998 0.105689
C196  C     C_1   0.827665 0.749693 0.000466 0.106225
C197  C     C_1   0.172690 0.250138 0.000243 0.104465
C198  C     C_1   0.672393 0.249618 0.999658 0.105020
C199  C     C_1   0.327407 0.750253 0.999964 0.105729
C200  C     C_1   0.327399 0.249812 0.999941 0.106551
C201  C     C_1   0.672681 0.750188 0.000216 0.104830
C202  C     C_R   0.699143 0.739977 0.337334 0.081756
C203  C     C_R   0.304680 0.273558 0.666455 0.070939
C204  C     C_R   0.300665 0.740780 0.662677 0.077018
C205  C     C_R   0.599687 0.750015 0.000022 0.527141
C206  C     C_R   0.688997 0.279418 0.335539 0.066106
C207  C     C_R   0.199244 0.240406 0.337365 0.082146
C208  C     C_R   0.804963 0.773940 0.666428 0.071069
C209  C     C_R   0.809094 0.225791 0.661908 0.076077
C210  C     C_R   0.195834 0.772816 0.333679 0.071576
C211  C     C_R   0.647255 0.752221 0.296599 0.039172
C212  C     C_R   0.350934 0.251606 0.703808 0.041173
C213  C     C_R   0.352824 0.752241 0.703421 0.038029
C214  C     C_R   0.649473 0.250331 0.296478 0.035201
C215  C     C_R   0.147220 0.252277 0.296611 0.039089
C216  C     C_R   0.599662 0.249953 0.999983 0.522476
C217  C     C_R   0.850935 0.751598 0.703802 0.041552
C218  C     C_R   0.853311 0.250665 0.703770 0.043540
C219  C     C_R   0.149064 0.751580 0.296198 0.039343
C220  C     C_R   0.635852 0.768472 0.335241 0.071857
C221  C     C_R   0.358695 0.234500 0.661682 0.076078
C222  C     C_R   0.364618 0.767688 0.664818 0.071700
C223  C     C_R   0.652296 0.219979 0.336714 0.073987
C224  C     C_R   0.135652 0.268221 0.335238 0.071771
C225  C     C_R   0.858460 0.734054 0.661682 0.076121
C226  C     C_R   0.861394 0.272925 0.665767 0.074623
C227  C     C_R   0.400318 0.750031 0.999982 0.529848
C228  C     C_R   0.140920 0.735115 0.338234 0.076572
C229  C     C_R   0.678482 0.774142 0.417465 -0.008832
C230  C     C_R   0.322602 0.243343 0.581804 -0.004074
C231  C     C_R   0.322156 0.773234 0.582563 -0.008608
C232  C     C_R   0.697776 0.216769 0.418297 -0.006020
C233  C     C_R   0.178217 0.273859 0.417491 -0.008891
C234  C     C_R   0.822492 0.742837 0.581807 -0.004033
C235  C     C_R   0.818976 0.275901 0.583256 -0.010947
C236  C     C_R   0.177239 0.743935 0.418156 -0.004007
C237  C     C_R   0.105704 0.749922 0.211553 0.545900
C238  C     C_3   0.750933 0.215095 0.976054 0.045706
C239  C     C_R   0.894337 0.250085 0.788440 0.547458
C240  C     C_R   0.894298 0.749919 0.788454 0.546991
C241  C     C_R   0.105413 0.250529 0.211658 0.545628
C242  C     C_R   0.606044 0.250166 0.211605 0.545066
C243  C     C_R   0.394602 0.750528 0.788346 0.546494
C244  C     C_R   0.394303 0.249915 0.788455 0.546819
C245  C     C_R   0.605421 0.750517 0.211653 0.545620
C246  C     C_R   0.730635 0.759937 0.459060 -0.007867
C247  C     C_R   0.271455 0.259099 0.541469 -0.008924
C248  C     C_R   0.269659 0.759883 0.540972 -0.007971
H1    H     H_    0.854149 0.145903 0.879108 0.358793
H2    H     H_    0.892684 0.924754 0.055223 0.375428
H3    H     H_    0.807312 0.057246 0.910037 0.372549
H4    H     H_    0.211514 0.947065 0.134682 0.372210
H5    H     H_    0.718528 0.554131 0.160474 0.373312
H6    H     H_    0.393795 0.424214 0.056873 0.375422
H7    H     H_    0.308958 0.557217 0.914473 0.372189
H8    H     H_    0.712101 0.447020 0.136068 0.371178
H9    H     H_    0.069012 0.722869 0.774216 0.367241
H10   H     H_    0.931443 0.273658 0.226889 0.373629
H11   H     H_    0.929949 0.718352 0.223516 0.370382
H12   H     H_    0.136071 0.851070 0.080892 0.353672
H13   H     H_    0.093511 0.324808 0.823552 0.372277
H14   H     H_    0.568216 0.226414 0.772619 0.367056
H15   H     H_    0.430620 0.777305 0.225224 0.373239
H16   H     H_    0.406285 0.174776 0.176027 0.374531
H17   H     H_    0.570729 0.781982 0.777555 0.372680
H18   H     H_    0.741748 0.337585 0.848114 0.367592
H19   H     H_    0.260732 0.664764 0.156943 0.369643
H20   H     H_    0.291149 0.289621 0.218112 0.359918
H21   H     H_    0.735834 0.668301 0.835939 0.370005
H22   H     H_    0.238831 0.834949 0.842206 0.370632
H23   H     H_    0.144508 0.150089 0.112275 0.355013
H24   H     H_    0.757838 0.162136 0.151121 0.369426
H25   H     H_    0.764857 0.831272 0.165555 0.365227
H26   H     H_    0.208983 0.210121 0.782260 0.374359
H27   H     H_    0.560611 0.835531 0.396244 0.371309
H28   H     H_    0.466561 0.265881 0.668296 0.364454
H29   H     H_    0.441497 0.831542 0.603731 0.370983
H30   H     H_    0.641962 0.097490 0.395406 0.376293
H31   H     H_    0.059699 0.333861 0.396401 0.371887
H32   H     H_    0.966792 0.763868 0.668428 0.364916
H33   H     H_    0.910411 0.373059 0.608840 0.374433
H34   H     H_    0.825857 0.897452 0.829627 0.378623
H35   H     H_    0.033911 0.768974 0.331521 0.366399
H36   H     H_    0.667644 0.834111 0.609498 0.375049
H37   H     H_    0.304938 0.282451 0.345955 0.360569
H38   H     H_    0.335287 0.828508 0.390656 0.375230
H39   H     H_    0.817439 0.112174 0.670300 0.378818
H40   H     H_    0.166581 0.332069 0.609622 0.375192
H41   H     H_    0.805513 0.780790 0.346303 0.369668
H42   H     H_    0.800582 0.376621 0.395567 0.377555
H43   H     H_    0.149723 0.729049 0.606876 0.376113
H44   H     H_    0.354642 0.645726 0.881891 0.358094
H45   H     H_    0.636794 0.350913 0.083029 0.352447
H46   H     H_    0.644209 0.650058 0.110287 0.354214
H47   H     H_    0.325987 0.397928 0.829778 0.379003
H48   H     H_    0.218429 0.054070 0.160645 0.373800
I1    I     I_    0.061244 0.387596 0.170865 -0.149117
I2    I     I_    0.054145 0.545496 0.221430 -0.104535
I3    I     I_    0.979346 0.455336 0.150360 -0.111634
I4    I     I_    0.946744 0.545180 0.779861 -0.104364
I5    I     I_    0.527695 0.955092 0.858386 -0.110908
I6    I     I_    0.549718 0.045354 0.217726 -0.128405
I7    I     I_    0.473648 0.955527 0.143387 -0.113836
I8    I     I_    0.451589 0.044889 0.783182 -0.101740
I9    I     I_    0.753142 0.159925 0.938542 -0.108913
I10   I     I_    0.243644 0.840857 0.055130 -0.122355
I11   I     I_    0.200014 0.156280 0.967063 -0.083883
I12   I     I_    0.040055 0.612631 0.926677 -0.166720
I13   I     I_    0.760326 0.842037 0.953249 -0.109381
I14   I     I_    0.256052 0.659001 0.944390 -0.113729
I15   I     I_    0.746569 0.339895 0.060981 -0.119992
I16   I     I_    0.740305 0.657879 0.047966 -0.094441
I17   I     I_    0.300195 0.343663 0.033234 -0.118952
I18   I     I_    0.706312 0.701971 0.276062 -0.166813
I19   I     I_    0.309831 0.312619 0.739790 -0.180356
I20   I     I_    0.292715 0.703772 0.724026 -0.176780
I21   I     I_    0.667687 0.330985 0.268106 -0.115564
I22   I     I_    0.206862 0.202770 0.276224 -0.166311
I23   I     I_    0.936011 0.388742 0.828309 -0.143668
I24   I     I_    0.810593 0.813423 0.739756 -0.181869
I25   I     I_    0.790265 0.202724 0.720338 -0.178009
I26   I     I_    0.191658 0.811224 0.260729 -0.134515
I27   I     I_    0.551359 0.775118 0.266217 -0.168840
I28   I     I_    0.420365 0.190732 0.719387 -0.160792
I29   I     I_    0.449269 0.773493 0.734062 -0.167348
I30   I     I_    0.579295 0.187002 0.272554 -0.163550
I31   I     I_    0.051091 0.274544 0.266085 -0.169600
I32   I     I_    0.919541 0.689815 0.719390 -0.160576
I33   I     I_    0.942302 0.293279 0.735748 -0.165576
I34   I     I_    0.960662 0.612881 0.074508 -0.169788
I35   I     I_    0.078298 0.692155 0.280425 -0.163708
I36   I     I_    0.557192 0.887458 0.168476 -0.149487
I37   I     I_    0.542884 0.112759 0.930465 -0.164837
I38   I     I_    0.443078 0.887531 0.831823 -0.150601
I39   I     I_    0.457140 0.112595 0.069528 -0.171395
I40   I     I_    0.020275 0.454473 0.850057 -0.128486
O1    O     O_3   1.000000 0.749970 0.000000 -0.490072
O2    O     O_R   0.605110 0.772950 0.045830 -0.520535
O3    O     O_R   0.603830 0.774209 0.833539 -0.659644
O4    O     O_2   0.682438 0.328151 0.861126 -0.432592
O5    O     O_R   0.755916 0.315816 0.886497 -0.663651
O6    O     O_2   0.319796 0.674005 0.143433 -0.430101
O7    O     O_R   0.245880 0.685903 0.117176 -0.658779
O8    O     O_2   0.346543 0.285300 0.197197 -0.434821
O9    O     O_R   0.268847 0.279899 0.163359 -0.665389
O10   O     O_2   0.677193 0.677166 0.850320 -0.429779
O11   O     O_R   0.751569 0.688558 0.877530 -0.658781
O12   O     O_2   0.179962 0.825899 0.856117 -0.432026
O13   O     O_R   0.605110 0.227050 0.045830 -0.514329
O14   O     O_R   0.253717 0.813844 0.882045 -0.661031
O15   O     O_2   0.817311 0.171699 0.138437 -0.430479
O16   O     O_R   0.743700 0.183927 0.112790 -0.659359
O17   O     O_2   0.823244 0.822757 0.150633 -0.439837
O18   O     O_R   0.749086 0.811080 0.123849 -0.666471
O19   O     O_2   0.153547 0.214683 0.803067 -0.430833
O20   O     O_R   0.231289 0.219883 0.836990 -0.658439
O21   O     O_2   0.622191 0.848942 0.388654 -0.432368
O22   O     O_R   0.588974 0.814373 0.424278 -0.625524
O23   O     O_2   0.412970 0.213195 0.577969 -0.402943
O24   O     O_R   0.394890 0.772950 0.954170 -0.518001
O25   O     O_R   0.428009 0.268913 0.640541 -0.649495
O26   O     O_2   0.379769 0.847002 0.610282 -0.431845
O27   O     O_R   0.412769 0.810682 0.575967 -0.625147
O28   O     O_2   0.694254 0.133052 0.385716 -0.453223
O29   O     O_R   0.654204 0.123012 0.424567 -0.593715
O30   O     O_2   0.121276 0.348200 0.389145 -0.431740
O31   O     O_R   0.088247 0.312848 0.424311 -0.625612
O32   O     O_2   0.912460 0.711361 0.577971 -0.403292
O33   O     O_R   0.928280 0.767274 0.640657 -0.649370
O34   O     O_2   0.848240 0.361407 0.615886 -0.435972
O35   O     O_R   0.065880 0.772890 0.174890 -0.508150
O36   O     O_R   0.889422 0.348344 0.579479 -0.620067
O37   O     O_2   0.086290 0.716436 0.422683 -0.404772
O38   O     O_R   0.072503 0.771223 0.359125 -0.650224
O39   O     O_2   0.691825 0.768612 0.611004 -0.438163
O40   O     O_R   0.678371 0.833082 0.581480 -0.618831
O41   O     O_2   0.341175 0.225379 0.426091 -0.400742
O42   O     O_R   0.292293 0.281128 0.371372 -0.651553
O43   O     O_2   0.308810 0.764050 0.389428 -0.441231
O44   O     O_R   0.324464 0.828574 0.418571 -0.614448
O45   O     O_2   0.724931 0.132353 0.577937 -0.391917
O46   O     O_R   0.934120 0.227110 0.825110 -0.510686
O47   O     O_R   0.812138 0.136520 0.642411 -0.650663
O48   O     O_2   0.191669 0.266953 0.611046 -0.445855
O49   O     O_R   0.177315 0.331444 0.581599 -0.617970
O50   O     O_2   0.840891 0.723659 0.426123 -0.398126
O51   O     O_R   0.792817 0.779755 0.371668 -0.650942
O52   O     O_2   0.795930 0.306924 0.384537 -0.439049
O53   O     O_R   0.793185 0.365264 0.424649 -0.615589
O54   O     O_2   0.201769 0.778880 0.618299 -0.453727
O55   O     O_R   0.157442 0.721211 0.576467 -0.591508
O56   O     O_R   0.934120 0.772890 0.825110 -0.508794
O57   O     O_R   0.065880 0.227110 0.174890 -0.511850
O58   O     O_R   0.565880 0.272890 0.174890 -0.512215
O59   O     O_R   0.434120 0.727110 0.825110 -0.511802
O60   O     O_R   0.434120 0.272890 0.825110 -0.508672
O61   O     O_3   0.000000 0.250030 0.000000 -0.490318
O62   O     O_R   0.565880 0.727110 0.174890 -0.511679
O63   O     O_R   0.001370 0.837410 0.045880 -0.480418
O64   O     O_R   0.998630 0.162590 0.954120 -0.492569
O65   O     O_R   0.998630 0.837410 0.954120 -0.516033
O66   O     O_R   0.001370 0.162590 0.045880 -0.492059
O67   O     O_R   0.501370 0.337410 0.045880 -0.479655
O68   O     O_R   0.498630 0.662590 0.954120 -0.492934
O69   O     O_R   0.498630 0.337410 0.954120 -0.516369
O70   O     O_R   0.501370 0.662590 0.045880 -0.491556
O71   O     O_R   0.955530 0.662540 0.954140 -0.514216
O72   O     O_3   0.500000 0.249970 0.000000 -0.490009
O73   O     O_R   0.044470 0.337460 0.045860 -0.514278
O74   O     O_R   0.044470 0.662540 0.045860 -0.514106
O75   O     O_R   0.955530 0.337460 0.954140 -0.513983
O76   O     O_R   0.455530 0.162540 0.954140 -0.514687
O77   O     O_R   0.544470 0.837460 0.045860 -0.514623
O78   O     O_R   0.544470 0.162540 0.045860 -0.510577
O79   O     O_R   0.455530 0.837460 0.954140 -0.514303
O80   O     O_R   0.108980 0.727040 0.174870 -0.516179
O81   O     O_R   0.891020 0.272960 0.825130 -0.511045
O82   O     O_R   0.891020 0.727040 0.825130 -0.513986
O83   O     O_3   0.500000 0.750030 0.000000 -0.490626
O84   O     O_R   0.108980 0.272960 0.174870 -0.509771
O85   O     O_R   0.608980 0.227040 0.174870 -0.513911
O86   O     O_R   0.391020 0.772960 0.825130 -0.508666
O87   O     O_R   0.391020 0.227040 0.825130 -0.514225
O88   O     O_R   0.608980 0.772960 0.174870 -0.510407
O89   O     O_R   0.940740 0.772900 0.045880 -0.507510
O90   O     O_R   0.059260 0.227100 0.954120 -0.508314
O91   O     O_R   0.059260 0.772900 0.954120 -0.518714
O92   O     O_R   0.940740 0.227100 0.045880 -0.503191
O93   O     O_R   0.440740 0.272900 0.045880 -0.509770
O94   O     O_R   0.894890 0.727050 0.954170 -0.514883
O95   O     O_R   0.559260 0.727100 0.954120 -0.504456
O96   O     O_R   0.559260 0.272900 0.954120 -0.518578
O97   O     O_R   0.440740 0.727100 0.045880 -0.503567
O98   O     O_2   0.864532 0.085056 0.843895 -0.444868
O99   O     O_R   0.892372 0.136138 0.923783 -0.661891
O100  O     O_2   0.087583 0.903820 0.989149 -0.440440
O101  O     O_R   0.112589 0.864264 0.084153 -0.653990
O102  O     O_2   0.135973 0.098619 0.168090 -0.441714
O103  O     O_R   0.108563 0.136581 0.069787 -0.651008
O104  O     O_2   0.901306 0.869381 0.954898 -0.466327
O105  O     O_R   0.105110 0.272950 0.045830 -0.519247
O106  O     O_R   0.859449 0.913183 0.856996 -0.634119
O107  O     O_2   0.364562 0.584957 0.845885 -0.432798
O108  O     O_R   0.392938 0.635990 0.926131 -0.661882
O109  O     O_2   0.588494 0.403510 0.990834 -0.440599
O110  O     O_R   0.613086 0.364172 0.085800 -0.655289
O111  O     O_2   0.636178 0.599083 0.167442 -0.442128
O112  O     O_R   0.608306 0.636427 0.068198 -0.649946
O113  O     O_2   0.401292 0.369382 0.954567 -0.466074
O114  O     O_R   0.359653 0.413629 0.857427 -0.633633
O115  O     O_2   0.128922 0.058062 0.030399 -0.431653
O116  O     O_R   0.105110 0.727050 0.045830 -0.512472
O117  O     O_R   0.192560 0.039343 0.157536 -0.605835
O118  O     O_2   0.842326 0.963962 0.940403 -0.403278
O119  O     O_R   0.918118 0.937220 0.055121 -0.645611
O120  O     O_2   0.902363 0.065126 0.024108 -0.452290
O121  O     O_R   0.827926 0.040366 0.905349 -0.576514
O122  O     O_2   0.169804 0.941585 0.177750 -0.430775
O123  O     O_R   0.176297 0.961956 0.097898 -0.607473
O124  O     O_2   0.629008 0.557690 0.030162 -0.430608
O125  O     O_R   0.692729 0.539471 0.157591 -0.606971
O126  O     O_2   0.343240 0.463841 0.942514 -0.402344
O127  O     O_R   0.894890 0.272950 0.954170 -0.520702
O128  O     O_R   0.419121 0.436753 0.056621 -0.646546
O129  O     O_2   0.404203 0.564921 0.027571 -0.452460
O130  O     O_R   0.329185 0.540367 0.909045 -0.577126
O131  O     O_2   0.670163 0.441695 0.178804 -0.435918
O132  O     O_R   0.676852 0.461872 0.099086 -0.607590
O133  O     O_2   0.145603 0.726541 0.795659 -0.435381
O134  O     O_R   0.102454 0.729379 0.830844 -0.664307
O135  O     O_2   0.854783 0.269967 0.205260 -0.431139
O136  O     O_R   0.897844 0.267986 0.169891 -0.659450
O137  O     O_2   0.853478 0.722178 0.202352 -0.430698
O138  O     O_R   0.394890 0.227050 0.954170 -0.514009
O139  O     O_R   0.896774 0.726003 0.167482 -0.666374
O140  O     O_2   0.167335 0.316898 0.839431 -0.432297
O141  O     O_R   0.120980 0.306247 0.868152 -0.663445
O142  O     O_2   0.644897 0.229839 0.794249 -0.429640
O143  O     O_R   0.601849 0.232031 0.829630 -0.664081
O144  O     O_2   0.354076 0.773316 0.203833 -0.434700
O145  O     O_R   0.397217 0.770720 0.168623 -0.659466
O146  O     O_2   0.332853 0.183111 0.160916 -0.430749
O147  O     O_R   0.378882 0.193419 0.131570 -0.662193
O148  O     O_2   0.647139 0.777689 0.798667 -0.432736
Zn1   Zn    Zn3+2 0.063530 0.717220 0.065500 1.027274
Zn2   Zn    Zn3+2 0.998040 0.217280 0.934470 1.045126
Zn3   Zn    Zn3+2 0.998040 0.782720 0.934470 1.037516
Zn4   Zn    Zn3+2 0.001960 0.217280 0.065530 1.047057
Zn5   Zn    Zn3+2 0.501960 0.282720 0.065530 1.055312
Zn6   Zn    Zn3+2 0.498040 0.717280 0.934470 1.044203
Zn7   Zn    Zn3+2 0.498040 0.282720 0.934470 1.037084
Zn8   Zn    Zn3+2 0.501960 0.717280 0.065530 1.047080
Zn9   Zn    Zn3+2 0.936470 0.282780 0.934500 1.024537
Zn10  Zn    Zn3+2 0.936470 0.717220 0.934500 1.029209
Zn11  Zn    Zn3+2 0.063530 0.282780 0.065500 1.024541
Zn12  Zn    Zn3+2 0.563530 0.217220 0.065500 1.030209
Zn13  Zn    Zn3+2 0.436470 0.782780 0.934500 1.028184
Zn14  Zn    Zn3+2 0.436470 0.217220 0.934500 1.030120
Zn15  Zn    Zn3+2 0.563530 0.782780 0.065500 1.023019
Zn16  Zn    Zn3+2 0.001960 0.782720 0.065530 1.058769

loop_
_geom_bond_atom_site_label_1
_geom_bond_atom_site_label_2
_ccdc_geom_bond_type
C224  I31   S    
H13   O141  S    
C120  O110  S    
H2    O119  S    
C24   C184  S    
C33   C166  S    
C150  O22   S    
C220  I27   S    
C139  C146  S    
O72   Zn7   S    
O66   Zn4   S    
C211  C220  A    
C77   C89   S    
O69   Zn7   S    
C205  O2    A    
C85   I38   S    
C14   C208  A    
C57   C178  S    
C85   C96   A    
C74   O71   A    
O88   Zn15  S    
C128  O125  S    
C237  O35   A    
H4    O123  S    
C141  O5    S    
C161  O43   D    
C110  C111  A    
C145  O14   S    
C22   C234  A    
C133  O136  S    
C123  O117  S    
C78   I1    S    
C121  O111  D    
C44   C70   S    
C11   C206  A    
C138  O144  D    
C4    C12   A    
C72   O67   A    
H7    O130  S    
C95   C102  A    
C22   C155  S    
C222  I29   S    
C55   C60   A    
C206  C214  A    
O62   Zn8   S    
C59   C60   A    
C73   O70   A    
C116  O101  S    
C208  I24   S    
C141  O4    D    
C63   C126  S    
C124  C189  S    
C105  C108  A    
O93   Zn5   S    
C190  C199  S    
C241  O57   A    
C149  O19   D    
H47   O114  S    
C165  O53   S    
C215  C241  S    
C12   C27   A    
H20   O9    S    
C57   C192  S    
C18   C230  A    
C81   I23   S    
C179  C188  S    
C90   C186  S    
C113  C188  S    
C127  O123  S    
C151  O23   D    
C177  C186  S    
C162  O47   S    
C46   I15   S    
C224  C233  A    
O72   Zn14  S    
C240  O82   A    
C181  C190  S    
O72   Zn12  S    
C165  O52   D    
O95   Zn6   S    
C114  I8    S    
C172  O91   A    
H8    O132  S    
C241  O84   A    
C106  I2    S    
C217  C240  S    
C76   O78   A    
H29   O27   S    
C101  C184  S    
C171  C216  S    
C240  O56   A    
C174  C194  S    
C35   C190  S    
H46   O112  S    
C149  C182  S    
C36   C44   A    
C175  C205  S    
C223  C232  A    
H35   O38   S    
C208  C217  A    
C7    C236  A    
H30   O29   S    
C43   C71   S    
C49   C62   A    
C158  O38   S    
C112  O90   A    
C51   C64   A    
C132  O133  D    
C96   C109  A    
H42   O53   S    
C214  C242  S    
C219  C237  S    
C80   C88   A    
C152  O27   S    
C123  O115  D    
C78   C94   A    
O70   Zn8   S    
C155  O33   S    
C76   O76   A    
H27   O22   S    
O68   Zn6   S    
C1    O94   A    
C3    C11   A    
C95   C108  A    
C49   C58   A    
C209  I25   S    
C147  O15   D    
O75   Zn9   S    
C105  I40   S    
H11   O139  S    
C106  C107  A    
C149  O20   S    
H3    O121  S    
O63   Zn16  S    
C160  O41   D    
C218  C226  A    
C52   C65   A    
C98   C103  A    
C78   C87   A    
C163  O49   S    
C5    C246  A    
C3    C6    A    
C99   C114  A    
C135  C138  S    
C205  O95   A    
C70   O65   A    
C220  C229  A    
C24   C187  S    
C225  C234  A    
O46   Zn2   S    
C85   C89   A    
C180  C189  S    
O94   Zn10  S    
C42   C53   A    
O82   Zn10  S    
C159  O40   S    
C130  O130  S    
C39   C54   A    
C132  O134  S    
H48   O117  S    
C122  O113  D    
C145  C181  S    
C148  O18   S    
O1    Zn10  S    
C144  O11   S    
C164  O51   S    
C86   C97   A    
C81   C92   A    
C154  O31   S    
C83   C98   A    
C221  C230  A    
O2    Zn15  S    
C117  O103  S    
C136  O140  D    
C180  C238  S    
C219  C228  A    
C137  O143  S    
C204  I20   S    
C39   C45   A    
C23   C235  A    
H41   O51   S    
C66   C67   A    
H32   O33   S    
O1    Zn1   S    
H21   O11   S    
C243  O86   A    
C50   C63   A    
C167  C193  T    
C46   C177  S    
H26   O20   S    
C223  I30   S    
C1    O89   A    
C53   C60   A    
C28   C161  S    
H24   O16   S    
C54   C59   A    
C83   C89   A    
C90   C180  S    
C94   C107  A    
C115  O98   D    
C20   C153  S    
O73   Zn11  S    
C151  O25   S    
C12   C207  A    
C183  O92   A    
C191  C200  S    
C125  O119  S    
C173  C227  S    
C131  O132  S    
O127  Zn9   S    
C24   C157  S    
C73   O68   A    
C68   C191  S    
C34   C115  S    
C84   I37   S    
C50   C56   A    
C210  C219  A    
C77   O77   A    
C71   O64   A    
C2    C181  S    
C86   I39   S    
C135  C190  S    
C93   C106  A    
C124  C238  S    
C226  I33   S    
C94   C100  A    
C69   C131  S    
C168  C183  S    
H37   O42   S    
O59   Zn6   S    
C118  O106  S    
C37   C117  S    
C194  O138  A    
C80   C95   A    
C19   C28   A    
C36   C51   A    
C124  C177  S    
C55   C69   A    
C9    C30   A    
C109  C114  A    
C75   C87   S    
C84   C91   A    
C11   C32   A    
C5    C234  A    
C166  O54   D    
C146  C191  S    
C153  O29   S    
C46   C189  S    
C36   C116  S    
O67   Zn5   S    
C103  C104  A    
C142  O6    D    
C31   C164  S    
O87   Zn14  S    
O61   Zn9   S    
C216  O13   A    
C237  O80   A    
C29   C162  S    
C34   C43   A    
C140  O3    S    
C143  O9    S    
C57   C101  S    
C68   C179  S    
C2    C135  S    
C239  O81   A    
C61   C123  S    
C74   C88   S    
C135  C176  S    
C211  C245  S    
C239  O46   A    
O77   Zn15  S    
C2    C185  S    
C107  I3    S    
C64   C127  S    
C82   C88   A    
C35   C79   S    
C56   C58   A    
C68   I17   S    
C227  O97   A    
C10   C33   A    
C157  C178  S    
C152  O26   D    
C214  C223  A    
C76   C91   S    
C133  O135  D    
H16   O147  S    
O1    Zn3   S    
C25   C158  S    
C74   O74   A    
O89   Zn16  S    
C101  C187  S    
C170  C197  T    
C230  C247  A    
C25   C33   A    
C244  O87   A    
H10   O136  S    
C187  C196  S    
C173  C199  T    
C17   C150  S    
C225  I32   S    
H39   O47   S    
C215  C224  A    
O92   Zn4   S    
C176  C185  S    
C38   C49   A    
C42   C122  S    
C77   O79   A    
C141  C177  S    
C30   C163  S    
O1    Zn16  S    
H14   O143  S    
C171  C198  T    
C86   C91   A    
C163  O48   D    
C138  O145  S    
C228  I35   S    
C172  O116  A    
C217  C225  A    
O13   Zn12  S    
O24   Zn13  S    
C204  C213  A    
C126  O120  D    
C82   I34   S    
O83   Zn8   S    
C119  O108  S    
C112  C170  S    
C25   C236  A    
C143  O8    D    
C168  C195  T    
C192  C201  S    
C184  C192  S    
C144  O10   D    
C164  O50   D    
H12   O101  S    
H25   O18   S    
C202  C211  A    
C68   C113  S    
C66   C129  S    
H45   O110  S    
C8    C246  A    
O61   Zn11  S    
C82   C93   A    
C120  O109  D    
C8    C31   A    
C150  O21   D    
C218  C239  S    
O57   Zn4   S    
C80   I12   S    
H40   O49   S    
C15   C29   A    
O91   Zn3   S    
O56   Zn3   S    
C109  I5    S    
C210  I26   S    
C136  O141  S    
C65   C128  S    
C75   O75   A    
C194  O93   A    
C242  O85   A    
C72   O69   A    
C185  C193  S    
C90   C133  S    
C17   C229  A    
C142  C176  S    
H15   O145  S    
O61   Zn2   S    
C115  O99   S    
C79   C181  S    
C83   I36   S    
C202  I18   S    
C37   C43   A    
C61   C64   A    
C38   C44   A    
C62   C63   A    
C183  O127  A    
C124  C137  S    
C216  O96   A    
C71   O66   A    
C121  O112  S    
C207  C215  A    
C227  O24   A    
C26   C159  S    
C51   C58   A    
C5    C14   A    
C81   C87   A    
O76   Zn14  S    
H17   O3    S    
C139  O146  D    
C178  C187  S    
H5    O125  S    
C7    C16   A    
C40   C120  S    
C242  O58   A    
O74   Zn1   S    
C67   C130  S    
C182  C191  S    
C209  C218  A    
C134  O139  S    
C160  O42   S    
C32   C165  S    
O71   Zn10  S    
C162  O45   D    
C2    I10   S    
C13   I11   S    
C84   C99   A    
C244  O60   A    
C93   C102  A    
C62   C125  S    
C167  C172  S    
C46   C90   S    
C148  O17   D    
H31   O31   S    
C21   C30   A    
C174  C200  T    
C21   C233  A    
C23   C32   A    
C16   C210  A    
C157  C192  S    
H1    O99   S    
O83   Zn6   S    
C41   C45   A    
C159  O39   D    
O105  Zn11  S    
C156  O34   D    
C188  C197  S    
C122  O114  S    
C65   C69   A    
O90   Zn2   S    
C155  O32   D    
O138  Zn14  S    
C9    C247  A    
C47   C72   S    
C140  O148  D    
C97   C104  A    
C245  O88   A    
O35   Zn16  S    
C38   C118  S    
C92   C105  A    
H18   O5    S    
C212  C244  S    
C96   C103  A    
H9    O134  S    
O86   Zn13  S    
C117  O102  D    
O58   Zn5   S    
H44   O108  S    
C137  O142  D    
C189  C198  S    
C16   C28   A    
C40   C47   A    
C6    C235  A    
C17   C26   A    
C20   C232  A    
C158  O37   D    
C161  O44   S    
C4    C233  A    
C75   O73   A    
C231  C248  A    
C101  C134  S    
O61   Zn4   S    
C20   C29   A    
C35   C176  S    
O64   Zn2   S    
C146  C179  S    
C125  O118  D    
C116  O100  D    
C131  O131  D    
C39   C119  S    
C99   C104  A    
O96   Zn7   S    
O81   Zn9   S    
C79   C132  S    
C45   C73   S    
C213  C222  A    
C41   C121  S    
C9    C203  A    
C6    C15   A    
H38   O44   S    
C147  C180  S    
C147  O16   S    
C153  O28   D    
H19   O7    S    
C207  I22   S    
H23   O103  S    
O60   Zn7   S    
C21   C154  S    
O83   Zn15  S    
C134  O137  D    
C41   C52   A    
C40   C55   A    
O65   Zn3   S    
C13   C188  S    
C186  C238  S    
C166  O55   S    
C129  O126  D    
C13   C146  S    
C243  O59   A    
C142  O7    S    
C245  O62   A    
C169  C196  T    
C212  C221  A    
C108  I4    S    
C127  O122  D    
C119  O107  D    
C34   C50   A    
C22   C31   A    
C186  C195  S    
C213  C243  S    
C175  C201  T    
H36   O40   S    
H33   O36   S    
H43   O55   S    
C130  O129  D    
C54   C67   A    
C156  O36   S    
C238  I9    S    
C27   C160  S    
C7    C248  A    
C113  C136  S    
C14   C26   A    
C226  C235  A    
C52   C59   A    
C140  C157  S    
C154  O30   D    
C4    C247  A    
C113  C182  S    
C148  C184  S    
O84   Zn11  S    
C100  C102  A    
C19   C152  S    
C70   O63   A    
O72   Zn5   S    
C37   C48   A    
C53   C66   A    
C145  O12   D    
C229  C246  A    
C222  C231  A    
C143  C179  S    
C110  I6    S    
C203  C212  A    
C10   C248  A    
C92   C100  A    
C139  O147  S    
H28   O25   S    
C128  O124  D    
C118  O104  D    
C48   C56   A    
O85   Zn12  S    
C98   C111  A    
C79   C185  S    
C57   I16   S    
C203  I19   S    
C18   C27   A    
C23   C156  S    
C144  C178  S    
C3    C232  A    
C8    C202  A    
C15   C209  A    
C35   I14   S    
C97   C110  A    
H34   O106  S    
C48   C61   A    
C206  I21   S    
C10   C204  A    
C111  I7    S    
O97   Zn8   S    
C1    C169  S    
O79   Zn13  S    
O83   Zn13  S    
C42   C47   A    
C126  O121  S    
C228  C236  A    
C221  I28   S    
O116  Zn1   S    
C13   C182  S    
O78   Zn12  S    
C112  O105  A    
C129  O128  S    
O80   Zn1   S    
C24   I13   S    
C19   C231  A    
H22   O14   S    
C18   C151  S    
H6    O128  S    
