data_mof_unit_25858.cif
_audit_creation_date              2012-10-26T20:09:48-0400
_audit_creation_method            fapswitch 2.2
_symmetry_space_group_name_H-M    P1
_symmetry_Int_Tables_number       1
_space_group_crystal_system       triclinic
_cell_length_a                    10.733669
_cell_length_b                    9.582065
_cell_length_c                    15.8393
_cell_angle_alpha                 91.066226
_cell_angle_beta                  93.521952
_cell_angle_gamma                 90.475948
_cell_volume                      1625.65209692

loop_
_atom_site_label
_atom_site_type_symbol
_atom_type_description
_atom_site_fract_x
_atom_site_fract_y
_atom_site_fract_z
_atom_type_partial_charge
C1    C     C_R   0.261138 0.499406 0.506010 0.515921
C2    C     C_3   0.927374 0.352782 0.530209 -0.214002
C3    C     C_3   0.066583 0.525550 0.421625 -0.265968
C4    C     C_3   0.123140 0.498119 0.512417 0.059198
C5    C     C_3   0.878274 0.500291 0.507292 0.032294
C6    C     C_R   0.500426 0.498955 0.340725 0.545122
C7    C     C_3   0.923755 0.537581 0.420044 -0.245249
C8    C     C_3   0.605054 0.086070 0.557401 -0.170224
C9    C     C_3   0.608224 0.919392 0.554196 -0.179414
C10   C     C_3   0.385498 0.082579 0.535394 -0.123537
C11   C     C_3   0.389766 0.918068 0.540743 -0.123170
C12   C     C_3   0.650541 0.544992 0.961042 0.556904
C13   C     C_3   0.516586 0.079026 0.415077 0.309021
C14   C     C_3   0.510300 0.915139 0.414396 0.314127
C15   C     C_R   0.739723 0.500443 0.503157 0.544278
C16   C     C_R   0.501268 0.501033 0.659622 0.531659
C17   C     C_3   0.431583 0.625812 0.048950 -0.223186
C18   C     C_3   0.449957 0.364599 0.042748 -0.252096
C19   C     C_3   0.470152 0.364173 0.946913 -0.252001
C20   C     C_3   0.420505 0.619071 0.951226 -0.244944
C21   C     C_1   0.504995 0.503355 0.749695 -0.060513
C22   C     C_3   0.506929 0.499799 0.083725 0.017372
C23   C     C_3   0.643816 0.510273 0.058124 -0.130469
C24   C     C_3   0.514363 0.511003 0.918641 0.103286
C25   C     C_3   0.325683 0.165127 0.339170 0.062550
C26   C     C_3   0.280967 0.203335 0.248664 -0.269509
C27   C     C_3   0.139098 0.193722 0.234118 -0.512332
C28   C     C_3   0.310811 0.814433 0.345997 0.069250
C29   C     C_3   0.252909 0.811943 0.254963 -0.280553
C30   C     C_3   0.115747 0.767618 0.248262 -0.514594
C31   C     C_3   0.680127 0.759057 0.881811 0.038658
C32   C     C_3   0.798469 0.741571 0.833452 -0.254331
C33   C     C_3   0.780014 0.803252 0.745869 -0.510134
C34   C     C_1   0.509216 0.506274 0.825648 -0.054146
C35   C     C_3   0.852915 0.426619 0.961805 -0.001109
C36   C     C_3   0.934618 0.550008 0.996890 -0.261268
C37   C     C_3   0.049855 0.498337 0.047934 -0.506408
C38   C     C_3   0.147731 0.635390 0.659993 -0.261253
C39   C     C_3   0.163499 0.786984 0.690618 -0.302635
C40   C     C_3   0.254252 0.798555 0.768730 -0.462710
C41   C     C_3   0.115302 0.313224 0.632409 -0.262707
C42   C     C_3   0.089762 0.160859 0.654451 -0.314361
C43   C     C_3   0.108203 0.143128 0.750285 -0.458534
C44   C     C_1   0.503809 0.496866 0.175685 -0.079643
C45   C     C_1   0.502308 0.497015 0.251199 -0.025337
C46   C     C_3   0.077428 0.620220 0.570787 -0.097121
C47   C     C_3   0.071678 0.352169 0.540719 -0.097134
C48   C     C_3   0.933374 0.607271 0.575360 -0.224928
Cu1   Cu    Cu3+1 0.499860 0.642410 0.500040 0.881033
Cu2   Cu    Cu3+1 0.499860 0.357590 0.500040 0.888523
H1    H     H_    0.323667 0.587124 0.929460 0.108488
H2    H     H_    0.607242 0.881055 0.619558 0.130058
H3    H     H_    0.696248 0.127118 0.538728 0.104495
H4    H     H_    0.698215 0.884602 0.530090 0.099144
H5    H     H_    0.373497 0.127243 0.599683 0.125641
H6    H     H_    0.393059 0.890156 0.608665 0.119671
H7    H     H_    0.615607 0.103193 0.402464 0.097529
H8    H     H_    0.605155 0.883194 0.396724 0.107678
H9    H     H_    0.300657 0.113288 0.497835 0.086825
H10   H     H_    0.301463 0.871473 0.514948 0.104951
H11   H     H_    0.336491 0.626018 0.073132 0.106196
H12   H     H_    0.381134 0.332314 0.911641 0.104290
H13   H     H_    0.348357 0.358826 0.053024 0.124156
H14   H     H_    0.494153 0.270873 0.071839 0.122960
H15   H     H_    0.478893 0.724938 0.070918 0.147308
H16   H     H_    0.541106 0.284633 0.932319 0.139287
H17   H     H_    0.435766 0.724851 0.926305 0.114008
H18   H     H_    0.694167 0.591950 0.098183 0.117780
H19   H     H_    0.687536 0.409969 0.075376 0.080424
H20   H     H_    0.095153 0.718716 0.536929 0.128137
H21   H     H_    0.105209 0.269388 0.497530 0.123614
H22   H     H_    0.907717 0.573017 0.638754 0.110460
H23   H     H_    0.891707 0.712013 0.565196 0.109328
H24   H     H_    0.884180 0.319076 0.588690 0.121799
H25   H     H_    0.304774 0.254395 0.379173 0.180099
H26   H     H_    0.270962 0.078259 0.359439 0.105431
H27   H     H_    0.310539 0.311639 0.236062 0.154410
H28   H     H_    0.324820 0.134275 0.202124 0.175461
H29   H     H_    0.104692 0.087190 0.246945 0.149727
H30   H     H_    0.111969 0.218212 0.167308 0.142513
H31   H     H_    0.093612 0.269262 0.275799 0.133624
H32   H     H_    0.253977 0.876857 0.387072 0.071190
H33   H     H_    0.303945 0.706528 0.366290 0.191766
H34   H     H_    0.896475 0.275895 0.479405 0.106893
H35   H     H_    0.261501 0.916167 0.227540 0.177556
H36   H     H_    0.306085 0.738853 0.215785 0.163479
H37   H     H_    0.074281 0.792011 0.184335 0.148301
H38   H     H_    0.062645 0.824120 0.296052 0.137709
H39   H     H_    0.107340 0.653265 0.256426 0.143773
H40   H     H_    0.672587 0.872263 0.896863 0.129579
H41   H     H_    0.595480 0.737649 0.841111 0.120029
H42   H     H_    0.877725 0.796297 0.868745 0.141466
H43   H     H_    0.821854 0.630239 0.824693 0.207711
H44   H     H_    0.746865 0.912582 0.749854 0.133566
H45   H     H_    0.104937 0.624543 0.398679 0.103491
H46   H     H_    0.711771 0.737674 0.707191 0.166931
H47   H     H_    0.868809 0.802730 0.714371 0.129584
H48   H     H_    0.908612 0.370586 0.915236 0.137510
H49   H     H_    0.838969 0.347032 0.010157 0.111925
H50   H     H_    0.967005 0.611639 0.943872 0.149438
H51   H     H_    0.883071 0.619432 0.038757 0.191027
H52   H     H_    0.021684 0.439327 0.103470 0.144715
H53   H     H_    0.108152 0.588982 0.071111 0.141735
H54   H     H_    0.106549 0.430276 0.007983 0.138075
H55   H     H_    0.217006 0.740029 0.821675 0.140885
H56   H     H_    0.092686 0.440754 0.377615 0.098426
H57   H     H_    0.346861 0.756484 0.754453 0.156196
H58   H     H_    0.267608 0.909287 0.788829 0.133660
H59   H     H_    0.071678 0.827364 0.706346 0.152277
H60   H     H_    0.197528 0.852573 0.640388 0.141264
H61   H     H_    0.097409 0.583071 0.709589 0.125833
H62   H     H_    0.241455 0.588029 0.659212 0.166461
H63   H     H_    0.208251 0.157475 0.771193 0.143693
H64   H     H_    0.052084 0.220231 0.784483 0.141041
H65   H     H_    0.076038 0.038626 0.768327 0.142772
H66   H     H_    0.992668 0.129115 0.634157 0.150277
H67   H     H_    0.895616 0.645901 0.403833 0.120516
H68   H     H_    0.153782 0.091291 0.621571 0.136140
H69   H     H_    0.216529 0.335501 0.644877 0.160527
H70   H     H_    0.062308 0.376388 0.676298 0.148375
H71   H     H_    0.880512 0.466277 0.370004 0.115083
H72   H     H_    0.597156 0.122706 0.623924 0.133157
N1    N     N_3   0.500250 0.143650 0.501830 -0.249719
N2    N     N_3   0.500250 0.856350 0.501830 -0.251030
O1    O     O_R   0.317570 0.620260 0.500050 -0.535555
O2    O     O_3   0.437029 0.858422 0.342516 -0.541314
O3    O     O_3   0.685212 0.690249 0.960555 -0.593518
O4    O     O_3   0.738656 0.463219 0.917278 -0.586900
O5    O     O_R   0.317570 0.379740 0.500050 -0.541987
O6    O     O_R   0.499890 0.620310 0.379470 -0.469442
O7    O     O_R   0.499890 0.379690 0.379470 -0.454484
O8    O     O_R   0.682190 0.620260 0.500020 -0.515720
O9    O     O_R   0.682190 0.379740 0.500020 -0.516064
O10   O     O_R   0.499870 0.620210 0.620600 -0.510381
O11   O     O_R   0.499870 0.379790 0.620600 -0.502410
O12   O     O_3   0.455265 0.138538 0.341363 -0.534675

loop_
_geom_bond_atom_site_label_1
_geom_bond_atom_site_label_2
_ccdc_geom_bond_type
Cu1   O10   S    
C16   C21   S    
C6    C45   S    
C41   C42   S    
C7    H67   S    
C20   H17   S    
C2    H34   S    
C11   N2    S    
C31   O3    S    
C6    O6    A    
C16   O10   A    
C33   H44   S    
C17   C20   S    
C8    H72   S    
C12   O3    S    
C4    C46   S    
C12   C23   S    
C26   C27   S    
C26   H28   S    
C36   C37   S    
C1    O1    A    
C20   H1    S    
C1    O5    A    
Cu2   O11   S    
C43   H64   S    
C37   H52   S    
C13   N1    S    
C18   H13   S    
C13   H7    S    
C19   H12   S    
C9    N2    S    
C19   H16   S    
C18   C19   S    
C25   O12   S    
C23   H19   S    
C17   H11   S    
C39   H60   S    
C22   C44   S    
C15   O8    A    
C20   C24   S    
C8    C9    S    
C35   H48   S    
C29   H35   S    
C2    H24   S    
C40   H58   S    
C43   H65   S    
C32   H43   S    
C13   C14   S    
C28   H33   S    
C9    H2    S    
C48   H22   S    
C30   H39   S    
C35   H49   S    
Cu1   O8    S    
C28   O2    S    
C3    H56   S    
C14   H8    S    
C5    C48   S    
C46   C48   S    
C26   H27   S    
C14   N2    S    
C28   H32   S    
C27   H31   S    
C10   N1    S    
C10   C11   S    
C39   C40   S    
C5    C7    S    
C42   H68   S    
C21   C34   T    
C3    C7    S    
C25   C26   S    
Cu1   N2    S    
C24   C34   S    
C36   H51   S    
C25   H25   S    
C35   C36   S    
C23   H18   S    
C29   C30   S    
Cu2   O5    S    
C7    H71   S    
C31   C32   S    
C31   H40   S    
C41   C47   S    
C36   H50   S    
C41   H69   S    
C10   H5    S    
C47   H21   S    
C29   H36   S    
C40   H57   S    
C12   O4    S    
C42   H66   S    
C27   H30   S    
C31   H41   S    
C13   O12   S    
C2    C5    S    
C42   C43   S    
C30   H38   S    
C11   H10   S    
C33   H46   S    
C44   C45   T    
C37   H53   S    
C28   C29   S    
C18   C22   S    
C17   H15   S    
C48   H23   S    
Cu2   N1    S    
C6    O7    A    
Cu2   O9    S    
C8    H3    S    
C37   H54   S    
C8    N1    S    
C15   O9    A    
C2    C47   S    
Cu1   O1    S    
Cu1   O6    S    
C12   C24   S    
C27   H29   S    
C17   C22   S    
C14   O2    S    
C1    C4    S    
C32   C33   S    
C25   H26   S    
C10   H9    S    
C38   H61   S    
C43   H63   S    
C38   C46   S    
C18   H14   S    
C38   C39   S    
C19   C24   S    
C33   H47   S    
C41   H70   S    
C35   O4    S    
C5    C15   S    
C46   H20   S    
Cu2   O7    S    
C32   H42   S    
C39   H59   S    
Cu1   Cu2   S    
C22   C23   S    
C3    H45   S    
C9    H4    S    
C30   H37   S    
C16   O11   A    
C38   H62   S    
C11   H6    S    
C3    C4    S    
C40   H55   S    
C4    C47   S    
