data_mof_unit_28116.cif
_audit_creation_date              2012-12-10T17:30:27-0500
_audit_creation_method            fapswitch 2.2
_symmetry_space_group_name_H-M    P1
_symmetry_Int_Tables_number       1
_space_group_crystal_system       triclinic
_cell_length_a                    11.977082
_cell_length_b                    12.847386
_cell_length_c                    14.993934
_cell_angle_alpha                 90.084987
_cell_angle_beta                  86.562025
_cell_angle_gamma                 93.901897
_cell_volume                      2297.68113321

loop_
_atom_site_label
_atom_site_type_symbol
_atom_type_description
_atom_site_fract_x
_atom_site_fract_y
_atom_site_fract_z
_atom_type_partial_charge
C1    C     C_R   0.522773 0.700520 0.499344 0.919879
C2    C     C_R   0.368578 0.136531 0.460998 0.447015
C3    C     C_R   0.451371 0.867273 0.470808 -0.343894
C4    C     C_R   0.548629 0.132726 0.529191 -0.343893
C5    C     C_R   0.453958 0.973766 0.480542 0.140906
C6    C     C_R   0.546042 0.026234 0.519457 0.140905
C7    C     C_R   0.954731 0.419076 0.403168 0.112253
C8    C     C_R   0.045269 0.580922 0.596832 0.112261
C9    C     C_R   0.838038 0.425220 0.414884 0.009303
C10   C     C_R   0.161962 0.574778 0.585116 0.009296
C11   C     C_R   0.857302 0.531675 0.542992 -0.047145
C12   C     C_R   0.477227 0.299480 0.500656 0.919873
C13   C     C_R   0.142698 0.468325 0.457009 -0.047136
C14   C     C_R   0.975314 0.528593 0.535602 0.017745
C15   C     C_R   0.024686 0.471406 0.464398 0.017734
C16   C     C_R   0.500361 0.497924 0.673122 0.898569
C17   C     C_R   0.499639 0.502071 0.326878 0.898570
C18   C     C_R   0.576796 0.448940 0.182745 -0.280581
C19   C     C_R   0.423201 0.551058 0.817254 -0.280575
C20   C     C_R   0.498202 0.504249 0.231141 -0.085000
C21   C     C_R   0.501803 0.495757 0.768861 -0.085017
C22   C     C_R   0.421114 0.561629 0.188570 0.150541
C23   C     C_R   0.324496 0.588866 0.959190 0.192101
C24   C     C_R   0.578926 0.438418 0.811437 0.150523
C25   C     C_R   0.411051 0.546941 0.096368 0.062349
C26   C     C_R   0.588985 0.453118 0.903638 0.062355
C27   C     C_R   0.499041 0.500209 0.046508 -0.064496
C28   C     C_R   0.500983 0.499834 0.953496 -0.064496
C29   C     C_R   0.583953 0.452162 0.090060 0.078978
C30   C     C_R   0.416067 0.547871 0.909941 0.078991
C31   C     C_R   0.316838 0.578017 0.052742 0.180136
C32   C     C_R   0.683218 0.422084 0.947264 0.180130
C33   C     C_3   0.001769 0.357793 0.325453 -0.943721
C34   C     C_R   0.675550 0.411206 0.040813 0.192104
C35   C     C_3   0.998230 0.642199 0.674549 -0.943730
C36   C     C_3   0.367810 0.651012 0.237887 -0.873106
C37   C     C_3   0.632304 0.349072 0.762123 -0.873074
C38   C     C_3   0.203120 0.581381 0.102862 -0.907901
C39   C     C_3   0.796955 0.418829 0.897155 -0.907940
C40   C     C_3   0.234147 0.640960 0.911853 -0.932360
C41   C     C_3   0.765928 0.359142 0.088148 -0.932316
C42   C     C_R   0.462143 0.187826 0.498607 -0.101984
C43   C     C_R   0.537857 0.812174 0.501391 -0.101988
C44   C     C_R   0.634812 0.971825 0.547506 -0.309833
C45   C     C_R   0.365188 0.028175 0.452492 -0.309832
C46   C     C_R   0.631422 0.863468 0.539001 0.447018
H1    H     H_    0.635469 0.407436 0.218912 0.175195
H2    H     H_    0.783013 0.386326 0.368738 0.137001
H3    H     H_    0.048704 0.293257 0.350413 0.259472
H4    H     H_    0.934547 0.323071 0.284464 0.241211
H5    H     H_    0.058749 0.409879 0.281483 0.244267
H6    H     H_    0.951290 0.706736 0.649595 0.259472
H7    H     H_    0.941252 0.590112 0.718519 0.244260
H8    H     H_    0.065454 0.676919 0.715536 0.241213
H9    H     H_    0.345674 0.712103 0.191130 0.243272
H10   H     H_    0.292160 0.622201 0.279316 0.254112
H11   H     H_    0.428360 0.690917 0.282118 0.225369
H12   H     H_    0.364510 0.592538 0.781083 0.175205
H13   H     H_    0.654516 0.288012 0.808881 0.243269
H14   H     H_    0.571774 0.309109 0.717905 0.225377
H15   H     H_    0.707923 0.377937 0.720683 0.254126
H16   H     H_    0.199060 0.537472 0.166694 0.246429
H17   H     H_    0.182504 0.663219 0.115543 0.243194
H18   H     H_    0.136995 0.541659 0.063609 0.248634
H19   H     H_    0.817669 0.337017 0.884471 0.243195
H20   H     H_    0.800973 0.462739 0.833333 0.246442
H21   H     H_    0.863035 0.458610 0.936419 0.248634
H22   H     H_    0.171380 0.675880 0.957898 0.256402
H23   H     H_    0.619481 0.173280 0.559224 0.178830
H24   H     H_    0.272934 0.706546 0.870010 0.235707
H25   H     H_    0.189169 0.583338 0.869168 0.244413
H26   H     H_    0.828747 0.324293 0.042103 0.256395
H27   H     H_    0.810851 0.416769 0.130864 0.244414
H28   H     H_    0.727173 0.293511 0.129957 0.235699
H29   H     H_    0.226306 0.144894 0.405711 0.324711
H30   H     H_    0.773691 0.855105 0.594293 0.324711
H31   H     H_    0.380519 0.826720 0.440774 0.178834
H32   H     H_    0.705353 0.013253 0.577034 0.138038
H33   H     H_    0.294647 0.986746 0.422964 0.138038
H34   H     H_    0.183864 0.424801 0.404361 0.175797
H35   H     H_    0.816136 0.575200 0.595639 0.175794
H36   H     H_    0.216986 0.613671 0.631263 0.136999
N1    N     N_R   0.207800 0.519350 0.516680 -0.126786
N2    N     N_R   0.792200 0.480650 0.483320 -0.126785
O1    O     O_R   0.421700 0.658830 0.504450 -0.643782
O2    O     O_3   0.715326 0.806637 0.569678 -0.767703
O3    O     O_R   0.578300 0.341170 0.495550 -0.643786
O4    O     O_R   0.609310 0.646410 0.493750 -0.558528
O5    O     O_R   0.390690 0.353590 0.506250 -0.558532
O6    O     O_R   0.406180 0.506230 0.637500 -0.638181
O7    O     O_R   0.593820 0.493770 0.362500 -0.638178
O8    O     O_R   0.593800 0.493820 0.626800 -0.617720
O9    O     O_R   0.406200 0.506180 0.373200 -0.617715
O10   O     O_3   0.284674 0.193363 0.430322 -0.767704
Zn1   Zn    Zn3+2 0.374730 0.508290 0.507150 0.960876
Zn2   Zn    Zn3+2 0.625270 0.491710 0.492850 0.960874

loop_
_geom_bond_atom_site_label_1
_geom_bond_atom_site_label_2
_ccdc_geom_bond_type
C25   C31   A    
O4    Zn2   S    
C26   C32   A    
C16   C21   S    
C40   H25   S    
C27   C29   A    
C39   H19   S    
C17   O7    A    
C18   H1    S    
O6    Zn1   S    
C11   H35   S    
C16   O6    A    
C3    C43   A    
C40   H24   S    
C19   C21   A    
C24   C26   A    
C5    C6    A    
C11   C14   A    
C35   H7    S    
C33   H3    S    
C23   C40   S    
C10   N1    A    
O8    Zn2   S    
C17   C20   S    
N2    Zn2   S    
C32   C39   S    
C12   C42   S    
O7    Zn2   S    
C1    C43   S    
C22   C25   A    
C1    O4    A    
C7    C15   A    
C41   H28   S    
C13   H34   S    
O9    Zn1   S    
C6    C44   A    
C35   H8    S    
C7    C33   S    
C34   C41   S    
C4    H23   S    
C44   C46   A    
C38   H18   S    
C19   H12   S    
C1    O1    A    
C23   C30   A    
C12   O5    A    
C2    O10   S    
C4    C6    A    
C36   H11   S    
C33   H4    S    
C5    C45   A    
C29   C34   A    
C10   H36   S    
C33   H5    S    
C8    C35   S    
C32   C34   A    
O5    Zn1   S    
C36   H10   S    
N1    Zn1   S    
O3    Zn2   S    
C24   C37   S    
C45   H33   S    
C18   C29   A    
C37   H13   S    
C41   H26   S    
C20   C22   A    
C16   O8    A    
C13   C15   A    
C39   H20   S    
C17   O9    A    
C3    H31   S    
H30   O2    S    
C35   H6    S    
C38   H17   S    
C7    C9    A    
C8    C14   A    
C12   O3    A    
C39   H21   S    
C3    C5    A    
C37   H15   S    
C11   N2    A    
C25   C27   A    
C22   C36   S    
C13   N1    A    
C26   C28   A    
C31   C38   S    
C44   H32   S    
C36   H9    S    
O1    Zn1   S    
C4    C42   A    
C2    C42   A    
C28   C30   A    
C18   C20   A    
C43   C46   A    
C37   H14   S    
C2    C45   A    
C9    N2    A    
C41   H27   S    
C9    H2    S    
C8    C10   A    
C40   H22   S    
C21   C24   A    
C27   C28   A    
C14   C15   A    
C46   O2    S    
C19   C30   A    
H29   O10   S    
C23   C31   A    
C38   H16   S    
