data_mof_unit_52060.cif
_audit_creation_date              2012-12-10T17:30:28-0500
_audit_creation_method            fapswitch 2.2
_symmetry_space_group_name_H-M    P1
_symmetry_Int_Tables_number       1
_space_group_crystal_system       triclinic
_cell_length_a                    11.966517
_cell_length_b                    12.89235
_cell_length_c                    14.994179
_cell_angle_alpha                 90.140289
_cell_angle_beta                  86.363531
_cell_angle_gamma                 93.187075
_cell_volume                      2305.02027207

loop_
_atom_site_label
_atom_site_type_symbol
_atom_type_description
_atom_site_fract_x
_atom_site_fract_y
_atom_site_fract_z
_atom_type_partial_charge
C1    C     C_R   0.521925 0.700501 0.499215 0.892612
C2    C     C_R   0.359980 0.137529 0.521606 -0.209174
C3    C     C_R   0.439182 0.867723 0.515292 -0.275597
C4    C     C_R   0.560829 0.132281 0.484905 -0.277931
C5    C     C_R   0.447179 0.974322 0.510574 0.187040
C6    C     C_R   0.552839 0.025689 0.489675 0.185606
C7    C     C_R   0.956076 0.410662 0.410323 -0.342211
C8    C     C_R   0.043965 0.589820 0.589239 -0.330770
C9    C     C_R   0.839401 0.418230 0.419620 0.021098
C10   C     C_R   0.160622 0.582136 0.580075 0.023988
C11   C     C_R   0.857368 0.537397 0.539360 -0.051882
C12   C     C_R   0.478075 0.299501 0.500818 0.885621
C13   C     C_R   0.142662 0.462703 0.460526 -0.054744
C14   C     C_R   0.975102 0.532320 0.532578 0.092232
C15   C     C_R   0.024936 0.467945 0.467143 0.098184
C16   C     C_R   0.500270 0.499329 0.673420 0.889018
C17   C     C_R   0.499683 0.499811 0.326603 0.892989
C18   C     C_R   0.398558 0.478766 0.190215 -0.216146
C19   C     C_R   0.601927 0.509964 0.809918 -0.215844
C20   C     C_R   0.499424 0.497705 0.230806 -0.089444
C21   C     C_R   0.500558 0.495503 0.769216 -0.081006
C22   C     C_R   0.601015 0.512585 0.180100 -0.227475
C23   C     C_R   0.703907 0.524146 0.943065 -0.323011
C24   C     C_R   0.399454 0.476064 0.819751 -0.244051
C25   C     C_R   0.603055 0.508811 0.087661 0.013873
C26   C     C_R   0.398401 0.471379 0.912236 -0.008611
C27   C     C_R   0.500914 0.490094 0.046374 -0.001132
C28   C     C_R   0.500750 0.488899 0.953567 0.003283
C29   C     C_R   0.398591 0.474568 0.098006 0.065068
C30   C     C_R   0.602772 0.507277 0.902030 0.078111
C31   C     C_R   0.705003 0.523532 0.035894 0.459712
C32   C     C_R   0.297223 0.450755 0.964303 0.506535
C33   C     C_3   0.860334 0.451469 0.081620 0.086917
C34   C     C_R   0.297870 0.455191 0.057014 -0.302583
C35   C     C_3   0.963305 0.470902 0.135111 -0.797629
C36   C     C_3   0.182663 0.327600 0.900118 0.091720
C37   C     C_3   0.119185 0.263518 0.974335 -0.880382
C38   C     C_R   0.465110 0.188213 0.501776 -0.052891
C39   C     C_R   0.534895 0.811793 0.498367 -0.055087
C40   C     C_R   0.648993 0.969827 0.474225 -0.219718
C41   C     C_R   0.351028 0.030188 0.526035 -0.220154
C42   C     C_R   0.640036 0.862485 0.478603 -0.200326
H1    H     H_    0.320248 0.466339 0.230295 0.153000
H2    H     H_    0.357843 0.828555 0.531516 0.160182
H3    H     H_    0.285527 0.180621 0.534748 0.161961
H4    H     H_    0.714490 0.819399 0.465453 0.165320
H5    H     H_    0.730343 0.008949 0.458382 0.139722
H6    H     H_    0.269682 0.991071 0.541898 0.139516
H7    H     H_    0.182536 0.413306 0.410941 0.121829
H8    H     H_    0.817505 0.586757 0.588979 0.122370
H9    H     H_    0.213714 0.626225 0.623939 0.134492
H10   H     H_    0.786329 0.374363 0.375593 0.129061
H11   H     H_    0.888022 0.423937 0.013753 0.154547
H12   H     H_    0.679995 0.524941 0.770035 0.153790
H13   H     H_    0.805210 0.389544 0.116426 0.125568
H14   H     H_    0.938021 0.499258 0.203052 0.252141
H15   H     H_    0.006667 0.397608 0.141548 0.195460
H16   H     H_    0.022134 0.529842 0.100831 0.274390
H17   H     H_    0.263248 0.291680 0.880089 0.125203
H18   H     H_    0.132133 0.323584 0.840468 0.168267
H19   H     H_    0.037622 0.297237 0.992757 0.256091
H20   H     H_    0.103186 0.182612 0.950892 0.221815
H21   H     H_    0.169160 0.261690 0.034116 0.246283
H22   H     H_    0.991980 0.360746 0.359163 0.143166
H23   H     H_    0.008059 0.640028 0.640162 0.147389
H24   H     H_    0.678443 0.527612 0.212883 0.201529
H25   H     H_    0.321753 0.464354 0.786778 0.187793
H26   H     H_    0.782076 0.538649 0.903307 0.167163
H27   H     H_    0.219532 0.443054 0.096907 0.165056
H28   H     H_    0.642165 0.171442 0.468653 0.159362
N1    N     N_R   0.207800 0.519350 0.516680 -0.103148
N2    N     N_R   0.792200 0.480650 0.483320 -0.100402
O1    O     O_R   0.421700 0.658830 0.504450 -0.625432
O2    O     O_3   0.195897 0.433249 0.925563 -0.622382
O3    O     O_R   0.578300 0.341170 0.495550 -0.626675
O4    O     O_R   0.609310 0.646410 0.493750 -0.626611
O5    O     O_R   0.390690 0.353590 0.506250 -0.629821
O6    O     O_R   0.406180 0.506230 0.637500 -0.632252
O7    O     O_R   0.593820 0.493770 0.362500 -0.633044
O8    O     O_R   0.593800 0.493820 0.626800 -0.626838
O9    O     O_R   0.406200 0.506180 0.373200 -0.624430
O10   O     O_3   0.804810 0.544754 0.075784 -0.605350
Zn1   Zn    Zn3+2 0.374730 0.508290 0.507150 0.943439
Zn2   Zn    Zn3+2 0.625270 0.491710 0.492850 0.944673

loop_
_geom_bond_atom_site_label_1
_geom_bond_atom_site_label_2
_ccdc_geom_bond_type
C25   C31   A    
C40   H5    S    
C26   C32   A    
C16   C21   S    
C27   C29   A    
C9    N2    A    
O8    Zn2   S    
C36   H17   S    
O4    Zn2   S    
C4    H28   S    
C37   H20   S    
C31   O10   S    
C35   H16   S    
C36   C37   S    
C19   C21   A    
C24   C26   A    
C32   O2    S    
O7    Zn2   S    
C11   C14   A    
O3    Zn2   S    
O5    Zn1   S    
C2    C41   A    
C17   O7    A    
C17   C20   S    
C18   C20   A    
C42   H4    S    
C22   H24   S    
C24   H25   S    
C37   H21   S    
O6    Zn1   S    
C22   C25   A    
C33   O10   S    
C16   O6    A    
C10   N1    A    
C40   C42   A    
C3    C39   A    
C8    H23   S    
C9    H10   S    
C10   H9    S    
O9    Zn1   S    
C39   C42   A    
N1    Zn1   S    
C2    H3    S    
C33   H11   S    
C3    H2    S    
C23   C30   A    
C4    C6    A    
C11   N2    A    
C13   N1    A    
C3    C5    A    
C29   C34   A    
C16   O8    A    
C23   C31   A    
C23   H26   S    
C2    C38   A    
C12   O5    A    
C33   H13   S    
C18   C29   A    
C34   H27   S    
N2    Zn2   S    
C36   O2    S    
C13   H7    S    
C19   H12   S    
C20   C22   A    
C13   C15   A    
C6    C40   A    
C12   O3    A    
C7    C9    A    
C5    C41   A    
C8    C14   A    
C35   H14   S    
C1    O4    A    
C4    C38   A    
C36   H18   S    
C37   H19   S    
C25   C27   A    
C26   C28   A    
C35   H15   S    
C1    O1    A    
C28   C30   A    
C11   H8    S    
C18   H1    S    
C5    C6    A    
C7    C15   A    
C33   C35   S    
C41   H6    S    
C17   O9    A    
C12   C38   S    
C7    H22   S    
C1    C39   S    
C8    C10   A    
C21   C24   A    
C27   C28   A    
C14   C15   A    
C19   C30   A    
O1    Zn1   S    
C32   C34   A    
