data_mof_unit_6795.cif
_audit_creation_date              2012-12-10T19:20:21-0500
_audit_creation_method            fapswitch 2.2
_symmetry_space_group_name_H-M    P1
_symmetry_Int_Tables_number       1
_space_group_crystal_system       triclinic
_cell_length_a                    14.960588
_cell_length_b                    15.753429
_cell_length_c                    16.510092
_cell_angle_alpha                 89.806335
_cell_angle_beta                  83.290502
_cell_angle_gamma                 89.658394
_cell_volume                      3864.37590183

loop_
_atom_site_label
_atom_site_type_symbol
_atom_type_description
_atom_site_fract_x
_atom_site_fract_y
_atom_site_fract_z
_atom_type_partial_charge
C1    C     C_R   0.499725 0.662206 0.499905 0.917306
C2    C     C_R   0.525493 0.469521 0.261327 -0.021913
C3    C     C_3   0.458106 0.950446 0.420174 -0.402549
C4    C     C_R   0.486057 0.498125 0.654495 0.911914
C5    C     C_3   0.598038 0.950208 0.491513 -0.447552
C6    C     C_3   0.598809 0.048488 0.493076 0.415167
C7    C     C_1   0.500522 0.249172 0.498125 -0.216725
C8    C     C_3   0.500155 0.917614 0.495749 0.268302
C9    C     C_3   0.456631 0.048998 0.419137 -0.021750
C10   C     C_3   0.500710 0.082589 0.494145 0.283113
C11   C     C_3   0.444515 0.049706 0.572782 -0.564301
C12   C     C_R   0.403119 0.421768 0.769433 -0.302901
C13   C     C_3   0.444857 0.951879 0.573937 -0.416437
C14   C     C_1   0.500325 0.174014 0.496216 -0.100177
C15   C     C_1   0.499760 0.826275 0.497135 -0.081454
C16   C     C_R   0.500238 0.337849 0.499929 0.915459
C17   C     C_1   0.499488 0.751032 0.498528 -0.185104
C18   C     C_3   0.944855 0.593013 0.499168 -0.493624
C19   C     C_3   0.959343 0.453892 0.424531 -0.399193
C20   C     C_3   0.063708 0.455010 0.425423 -0.587383
C21   C     C_3   0.909941 0.500266 0.500088 0.171536
C22   C     C_3   0.050177 0.593583 0.499226 0.400277
C23   C     C_R   0.477198 0.476713 0.127562 -0.205055
C24   C     C_3   0.089625 0.501106 0.502742 0.099462
C25   C     C_3   0.041896 0.450172 0.577009 0.377927
C26   C     C_3   0.937138 0.455751 0.577915 -0.430589
C27   C     C_1   0.190485 0.501464 0.502055 0.072511
C28   C     C_R   0.513961 0.496802 0.345809 0.869665
C29   C     C_1   0.809395 0.499008 0.498942 0.026974
C30   C     C_R   0.474101 0.476154 0.740810 -0.124096
C31   C     C_R   0.538265 0.499481 0.792052 0.448474
C32   C     C_R   0.528729 0.469357 0.872330 -0.248069
C33   C     C_R   0.461323 0.410305 0.899101 0.121862
C34   C     C_R   0.475366 0.509015 0.205752 -0.244276
C35   C     C_R   0.397413 0.388330 0.847730 -0.177784
C36   C     C_3   0.691939 0.522880 0.769242 0.101481
C37   C     C_3   0.742660 0.578325 0.824352 -0.342732
C38   C     C_3   0.838401 0.545822 0.828158 -0.968346
C39   C     C_3   0.739444 0.104656 0.441896 0.054621
C40   C     C_3   0.737279 0.197406 0.469923 -0.317877
C41   C     C_3   0.830611 0.228018 0.484078 -1.001607
C42   C     C_3   0.128966 0.426839 0.685441 0.078339
C43   C     C_3   0.079079 0.360389 0.741238 -0.358716
C44   C     C_3   0.144687 0.306195 0.783620 -0.969864
C45   C     C_R   0.578608 0.397240 0.238196 0.083370
C46   C     C_3   0.042054 0.659896 0.631683 0.186225
C47   C     C_3   0.004251 0.749868 0.644594 -0.403743
C48   C     C_3   0.953420 0.760242 0.729679 -0.973532
C49   C     C_3   0.618134 0.277102 0.937299 0.086039
C50   C     C_3   0.636559 0.203873 0.994520 -0.372024
C51   C     C_3   0.649827 0.120160 0.948347 -0.956439
C52   C     C_R   0.578835 0.364294 0.159750 -0.195189
C53   C     C_R   0.526107 0.402123 0.105082 0.093104
C54   C     C_2   0.453431 0.377080 0.983202 -0.061053
C55   C     C_2   0.528256 0.368147 0.021999 0.397555
H1    H     H_    0.618724 0.308315 0.142349 0.138430
H2    H     H_    0.388103 0.926438 0.421413 0.151760
H3    H     H_    0.385027 0.070663 0.424735 0.114371
H4    H     H_    0.472580 0.073726 0.627881 0.183526
H5    H     H_    0.075931 0.617409 0.437329 0.105827
H6    H     H_    0.927598 0.625222 0.442846 0.152391
H7    H     H_    0.936214 0.387037 0.423473 0.185979
H8    H     H_    0.942006 0.484736 0.367639 0.182845
H9    H     H_    0.095681 0.486964 0.369241 0.191228
H10   H     H_    0.089928 0.388685 0.423338 0.190369
H11   H     H_    0.906189 0.490111 0.632855 0.171887
H12   H     H_    0.497169 0.925055 0.363787 0.182666
H13   H     H_    0.908842 0.390577 0.582625 0.134594
H14   H     H_    0.907626 0.629305 0.549763 0.165888
H15   H     H_    0.059732 0.381542 0.567656 0.061722
H16   H     H_    0.343763 0.344538 0.867802 0.167428
H17   H     H_    0.440291 0.510235 0.084651 0.140381
H18   H     H_    0.354123 0.401997 0.729967 0.173517
H19   H     H_    0.574024 0.492444 0.913649 0.176897
H20   H     H_    0.728548 0.523967 0.706657 0.163184
H21   H     H_    0.692756 0.455436 0.790398 0.122385
H22   H     H_    0.745411 0.644533 0.800745 0.227113
H23   H     H_    0.630496 0.925157 0.544124 0.132254
H24   H     H_    0.706319 0.578920 0.886979 0.225665
H25   H     H_    0.837415 0.479599 0.851569 0.272014
H26   H     H_    0.872511 0.586595 0.869729 0.270977
H27   H     H_    0.877407 0.548035 0.766787 0.260839
H28   H     H_    0.469952 0.056215 0.294144 0.165319
H29   H     H_    0.492526 0.146719 0.338984 0.184197
H30   H     H_    0.786846 0.099096 0.385114 0.170664
H31   H     H_    0.766061 0.062056 0.487695 0.116832
H32   H     H_    0.711100 0.238179 0.422805 0.242407
H33   H     H_    0.691705 0.204334 0.527655 0.212116
H34   H     H_    0.638199 0.926279 0.435070 0.196651
H35   H     H_    0.857878 0.188709 0.531594 0.262823
H36   H     H_    0.825745 0.294848 0.505104 0.264896
H37   H     H_    0.877182 0.224768 0.426609 0.261459
H38   H     H_    0.605335 0.292297 0.302154 0.174622
H39   H     H_    0.696123 0.352483 0.270862 0.185010
H40   H     H_    0.169583 0.466818 0.722509 0.173282
H41   H     H_    0.177665 0.395874 0.638212 0.120975
H42   H     H_    0.031590 0.392861 0.788151 0.235766
H43   H     H_    0.039599 0.318476 0.704917 0.207222
H44   H     H_    0.192654 0.272846 0.737814 0.260871
H45   H     H_    0.623056 0.068819 0.551583 0.031500
H46   H     H_    0.106793 0.258091 0.822931 0.267914
H47   H     H_    0.182869 0.346557 0.822427 0.263964
H48   H     H_    0.092562 0.649074 0.674964 0.178618
H49   H     H_    0.987905 0.613319 0.647721 0.165489
H50   H     H_    0.060436 0.796123 0.636515 0.234394
H51   H     H_    0.957815 0.764222 0.598462 0.223592
H52   H     H_    0.894851 0.716807 0.737777 0.270554
H53   H     H_    0.928450 0.826544 0.737692 0.269316
H54   H     H_    0.998488 0.746198 0.776996 0.268745
H55   H     H_    0.675204 0.281114 0.887958 0.159689
H56   H     H_    0.374416 0.928370 0.578221 0.189097
H57   H     H_    0.557328 0.263478 0.906678 0.138086
H58   H     H_    0.698091 0.217766 0.023767 0.229297
H59   H     H_    0.578913 0.197255 0.043019 0.207574
H60   H     H_    0.588536 0.104411 0.919530 0.262417
H61   H     H_    0.662699 0.068430 0.991411 0.267435
H62   H     H_    0.708331 0.124359 0.900465 0.261010
H63   H     H_    0.332234 0.423280 0.032840 0.188099
H64   H     H_    0.367563 0.337987 0.083373 0.183126
H65   H     H_    0.474318 0.928757 0.628903 0.184177
H66   H     H_    0.373916 0.073381 0.575846 0.196097
H67   H     H_    0.434591 0.564564 0.223084 0.144994
N1    N     N_1   0.268730 0.501370 0.501580 -0.093020
N2    N     N_1   0.731270 0.498640 0.498400 -0.088632
N3    N     N_3   0.502326 0.081045 0.341602 -0.389249
N4    N     N_3   0.628514 0.354717 0.295479 -0.443321
N5    N     N_3   0.364497 0.364320 0.025524 -0.485177
O1    O     O_R   0.425740 0.622790 0.499920 -0.600418
O2    O     O_3   0.653439 0.079917 0.423259 -0.619854
O3    O     O_3   0.066780 0.480890 0.651961 -0.673921
O4    O     O_3   0.086886 0.652673 0.551617 -0.650117
O5    O     O_3   0.613245 0.355610 0.979304 -0.656840
O6    O     O_R   0.574190 0.622930 0.500090 -0.605949
O7    O     O_R   0.417000 0.499930 0.615710 -0.625710
O8    O     O_R   0.565450 0.500080 0.615870 -0.587961
O9    O     O_R   0.425810 0.377070 0.499910 -0.618226
O10   O     O_R   0.574260 0.377210 0.500080 -0.609886
O11   O     O_R   0.434550 0.499920 0.384130 -0.612897
O12   O     O_R   0.583000 0.500070 0.384290 -0.589259
O13   O     O_3   0.604786 0.557434 0.765139 -0.645516
Zn1   Zn    Zn3+2 0.400880 0.499910 0.499890 0.964461
Zn2   Zn    Zn3+2 0.599120 0.500090 0.500110 0.976427

loop_
_geom_bond_atom_site_label_1
_geom_bond_atom_site_label_2
_ccdc_geom_bond_type
O10   Zn2   S    
C8    C13   S    
C22   O4    S    
C18   C21   S    
C16   O10   A    
C24   C27   S    
C21   C26   S    
C4    C30   S    
C48   H53   S    
C37   H24   S    
O6    Zn2   S    
C37   C38   S    
C38   H25   S    
C42   H41   S    
C40   H32   S    
C36   C37   S    
C19   C21   S    
C22   H5    S    
C5    C6    S    
O12   Zn2   S    
C11   H4    S    
C48   H52   S    
C19   H7    S    
C29   N2    T    
C33   C54   S    
C9    H3    S    
H38   N4    S    
C36   H21   S    
C51   H62   S    
C46   C47   S    
C7    C14   T    
C20   C24   S    
C19   H8    S    
C47   H50   S    
C43   H43   S    
O1    Zn1   S    
C2    C34   A    
C18   H14   S    
H39   N4    S    
C41   H35   S    
C35   H16   S    
C34   H67   S    
C12   H18   S    
C38   H27   S    
N2    Zn2   S    
C11   H66   S    
C28   O12   A    
H28   N3    S    
C6    O2    S    
C1    O6    A    
C25   O3    S    
C23   H17   S    
C23   C53   A    
C53   C55   S    
C2    C45   A    
C49   O5    S    
C42   H40   S    
C26   H11   S    
C20   H10   S    
C28   O11   A    
C24   C25   S    
C3    C8    S    
C10   C14   S    
C46   O4    S    
C44   H47   S    
C39   O2    S    
C45   C52   A    
C25   C26   S    
C21   C29   S    
C51   H60   S    
C50   H59   S    
C6    H45   S    
C20   H9    S    
C43   C44   S    
O9    Zn1   S    
C3    C9    S    
C36   H20   S    
C47   C48   S    
C45   N4    S    
C47   H51   S    
N1    Zn1   S    
C50   C51   S    
C42   O3    S    
C12   C35   A    
C36   O13   S    
C49   H57   S    
C3    H2    S    
C1    O1    A    
C7    C16   S    
C41   H36   S    
C49   C50   S    
C8    C15   S    
C4    O8    A    
C38   H26   S    
C22   C24   S    
H63   N5    S    
C39   H30   S    
C16   O9    A    
C39   C40   S    
C13   H65   S    
C52   C53   A    
O8    Zn2   S    
C4    O7    A    
C9    C10   S    
H29   N3    S    
C15   C17   T    
C37   H22   S    
C54   C55   D    
C40   C41   S    
C23   C34   A    
C27   N1    T    
C12   C30   A    
C18   C22   S    
C46   H48   S    
C44   H44   S    
C31   C32   A    
C3    H12   S    
C43   H42   S    
O11   Zn1   S    
C6    C10   S    
C5    C8    S    
C44   H46   S    
C18   H6    S    
C54   N5    S    
C1    C17   S    
C51   H61   S    
C50   H58   S    
C26   H13   S    
C32   C33   A    
C40   H33   S    
C19   C20   S    
C5    H23   S    
C13   H56   S    
O7    Zn1   S    
C32   H19   S    
C11   C13   S    
C30   C31   A    
C46   H49   S    
C33   C35   A    
C48   H54   S    
C9    N3    S    
C10   C11   S    
C41   H37   S    
C55   O5    S    
C42   C43   S    
C2    C28   S    
C25   H15   S    
C39   H31   S    
C31   O13   S    
C5    H34   S    
C52   H1    S    
C49   H55   S    
H64   N5    S    
