data_mof_unit_67283.cif
_audit_creation_date              2013-03-05T16:01:59-0500
_audit_creation_method            fapswitch 2.2
_symmetry_space_group_name_H-M    P1
_symmetry_Int_Tables_number       1
_space_group_crystal_system       triclinic
_cell_length_a                    8.40746
_cell_length_b                    14.805839
_cell_length_c                    15.012256
_cell_angle_alpha                 96.047428
_cell_angle_beta                  96.83196
_cell_angle_gamma                 93.52295
_cell_volume                      1839.93682242

loop_
_atom_site_label
_atom_site_type_symbol
_atom_site_description
_atom_site_fract_x
_atom_site_fract_y
_atom_site_fract_z
_atom_type_partial_charge
P1    P     P_3+3 0.018620 0.416870 0.295980 0.459506
O1    O     O_2   0.841250 0.444240 0.280450 -0.352688
O2    O     O_3   0.112870 0.447390 0.393710 -0.413601
O3    O     O_3   0.597960 0.615760 0.327700 -0.345878
O4    O     O_2   0.671586 0.530423 0.178024 -0.404250
O5    O     O_3   0.978581 0.300069 0.269016 -0.584691
O6    O     O_3   0.628021 0.700945 0.174486 -0.509781
H1    H     H_    0.483336 0.777390 0.251209 0.092802
C1    C     C_3   0.584421 0.854085 0.149935 0.217235
H2    H     H_    0.641042 0.834229 0.088493 0.095609
P2    P     P_3+3 0.635650 0.716500 0.560900 0.555671
P3    P     P_3+3 0.056089 0.780491 0.366435 0.539518
O7    O     O_2   0.802240 0.729720 0.532850 -0.316473
O8    O     O_3   0.017190 0.664840 0.371090 -0.385360
O9    O     O_2   0.953541 0.827304 0.434153 -0.285425
O10   O     O_3   0.673104 0.766250 0.675695 -0.549958
O11   O     O_3   0.970169 0.811029 0.262211 -0.476232
C2    C     C_3   0.041354 0.772385 0.187897 0.522739
H3    H     H_    0.169697 0.761555 0.208175 -0.092708
C3    C     C_3   0.035453 0.842350 0.117305 -0.117613
H4    H     H_    0.912741 0.847572 0.083864 0.129978
H5    H     H_    0.069184 0.910660 0.154336 0.147552
C4    C     C_3   0.226769 0.736504 0.642532 0.228620
H6    H     H_    0.317972 0.698665 0.609962 0.003740
H7    H     H_    0.115380 0.730364 0.593615 0.150647
C5    C     C_3   0.289724 0.836186 0.666533 -0.042703
H8    H     H_    0.395252 0.851832 0.632217 0.093843
H9    H     H_    0.329298 0.851079 0.739927 0.229185
Ba1   Ba    Ba6+2 0.833410 0.543320 0.453520 1.647973
C6    C     C_3   0.012244 0.252021 0.342767 0.147787
H10   H     H_    0.921097 0.264317 0.389304 0.075703
H11   H     H_    0.133842 0.272026 0.378397 0.130373
C7    C     C_3   0.999469 0.151377 0.304539 0.157599
H12   H     H_    0.885344 0.138088 0.257562 0.180923
C8    C     C_3   0.637769 0.704058 0.735981 0.570591
H13   H     H_    0.508260 0.686914 0.727164 -0.007228
C9    C     C_3   0.688063 0.741742 0.835846 0.198984
H14   H     H_    0.680442 0.682662 0.875922 -0.026003
P4    P     P_3+3 0.171070 0.583210 0.704020 0.579352
O12   O     O_2   0.348460 0.555790 0.719610 -0.386921
O13   O     O_3   0.076820 0.552690 0.606290 -0.374108
O14   O     O_3   0.591740 0.384320 0.672310 -0.339298
O15   O     O_3   0.195537 0.701788 0.722422 -0.487761
P5    P     P_3+3 0.141902 0.217193 0.631517 0.533033
O16   O     O_3   0.629090 0.386360 0.459240 -0.375862
O17   O     O_3   0.172500 0.335240 0.628910 -0.366194
O18   O     O_2   0.262276 0.175764 0.571996 -0.285099
O19   O     O_3   0.217760 0.184418 0.736264 -0.546087
Ba2   Ba    Ba6+2 0.356410 0.456750 0.546480 1.652956
P6    P     P_3+3 0.555803 0.599967 0.210333 0.455155
C10   C     C_3   0.514454 0.765682 0.181139 0.174855
H15   H     H_    0.404823 0.740677 0.136372 0.103043
O20   O     O_3   0.560600 0.613720 0.540760 -0.355690
C11   C     C_3   0.476008 0.312935 0.275784 0.357568
H16   H     H_    0.346975 0.319816 0.282040 0.053161
H17   H     H_    0.545486 0.378182 0.302673 0.146618
C12   C     C_3   0.498623 0.296549 0.176467 -0.828270
H18   H     H_    0.434449 0.231586 0.144629 0.271348
H19   H     H_    0.452634 0.353179 0.140263 0.225181
H20   H     H_    0.628057 0.292334 0.170058 0.265935
P7    P     P_3+3 0.560288 0.269030 0.436729 0.438250
O21   O     O_2   0.387470 0.270310 0.467210 -0.380781
O22   O     O_3   0.529608 0.238692 0.319484 -0.573153
C13   C     C_3   0.116155 0.201860 0.803026 0.797032
H21   H     H_    0.999790 0.227525 0.776860 -0.166788
C14   C     C_3   0.077617 0.111358 0.842170 -0.457910
H22   H     H_    0.187089 0.074604 0.854306 0.284081
H23   H     H_    0.994339 0.067165 0.790261 0.210605
P8    P     P_3+3 0.633009 0.399887 0.790212 0.560173
C15   C     C_3   0.604036 0.225739 0.763324 0.219604
H24   H     H_    0.706258 0.238923 0.724236 -0.041811
O23   O     O_2   0.507622 0.461330 0.826291 -0.334724
O24   O     O_3   0.594029 0.296628 0.831820 -0.472053
H25   H     H_    0.492772 0.218526 0.715276 0.176755
C16   C     C_3   0.632917 0.137279 0.804766 0.329460
H26   H     H_    0.762694 0.140579 0.825059 0.014370
C17   C     C_R   0.346778 0.553997 0.166829 0.139880
H27   H     H_    0.310830 0.527903 0.300830 0.176367
H28   H     H_    0.483290 0.614869 0.027406 0.151090
C18   C     C_R   0.112332 0.470433 0.205722 0.234899
C19   C     C_R   0.937711 0.473184 0.766844 -0.316881
C20   C     C_R   0.837942 0.450244 0.829479 0.218127
C21   C     C_R   0.891427 0.468076 0.921256 -0.339649
C22   C     C_R   0.053007 0.499492 0.953019 0.110139
C23   C     C_R   0.143813 0.537152 0.888799 0.009154
C24   C     C_R   0.123016 0.500480 0.046544 0.034207
C25   C     C_R   0.279357 0.545470 0.074291 -0.019266
C26   C     C_R   0.363904 0.582037 0.009412 -0.103914
C27   C     C_R   0.296052 0.580383 0.919888 0.073031
C28   C     C_R   0.046297 0.456468 0.113170 0.005465
C29   C     C_R   0.258970 0.520292 0.230680 -0.516385
C30   C     C_R   0.080416 0.526939 0.794589 0.321404
H29   H     H_    0.895715 0.457632 0.695581 0.171045
H30   H     H_    0.801836 0.458435 0.965394 0.183037
H31   H     H_    0.366403 0.613187 0.875363 0.149475
C31   C     C_R   0.710088 0.939855 0.541288 0.051254
C32   C     C_R   0.523654 0.798115 0.490614 0.199459
C33   C     C_R   0.374021 0.763512 0.443616 -0.480919
C34   C     C_R   0.266834 0.820902 0.404214 0.177602
C35   C     C_R   0.311845 0.912551 0.404025 -0.182105
C36   C     C_R   0.459636 0.951319 0.448073 0.138339
C37   C     C_R   0.567007 0.895361 0.493699 -0.016358
H32   H     H_    0.335089 0.692492 0.443788 0.153574
C38   C     C_R   0.637334 0.090709 0.497917 0.013021
C39   C     C_R   0.745136 0.035775 0.544307 0.126024
C40   C     C_R   0.679267 0.187078 0.499916 0.215441
C41   C     C_R   0.827404 0.223774 0.546178 -0.478423
C42   C     C_R   0.936142 0.168819 0.587088 0.204178
C43   C     C_R   0.891713 0.076906 0.589836 -0.144431
C44   C     C_R   0.495979 0.046453 0.449388 -0.069008
H33   H     H_    0.227954 0.953900 0.370222 0.192631
H34   H     H_    0.973986 0.037728 0.626377 0.211179
H35   H     H_    0.862384 0.295397 0.546212 0.159578
H36   H     H_    0.795062 0.900379 0.576548 0.203430
H37   H     H_    0.412862 0.085943 0.412379 0.155389
N1    N     N_R   0.165058 0.895443 0.641968 0.253736
O25   O     O_R   0.178594 0.946499 0.577592 -0.356573
O26   O     O_R   0.039950 0.897460 0.684919 -0.339973
N2    N     N_R   0.990596 0.093271 0.375903 0.216371
O27   O     O_R   0.863465 0.039396 0.375676 -0.337998
O28   O     O_R   0.115677 0.085927 0.433009 -0.409745
N3    N     N_2   0.134698 0.129189 0.256287 -0.102329
H38   H     H_    0.246117 0.143409 0.293535 0.203371
C45   C     C_3   0.126689 0.154133 0.165535 -0.926711
H39   H     H_    0.221226 0.123703 0.129786 0.258057
H40   H     H_    0.146943 0.228761 0.166826 0.273119
H41   H     H_    0.009294 0.128758 0.127289 0.267578
N4    N     N_R   0.725045 0.625562 0.717849 0.174288
O29   O     O_R   0.868089 0.641346 0.697877 -0.377421
O30   O     O_R   0.646184 0.550046 0.684304 -0.357492
N5    N     N_R   0.706687 0.902159 0.218308 0.273476
O31   O     O_R   0.794668 0.969966 0.196996 -0.426054
O32   O     O_R   0.705690 0.890366 0.302935 -0.315140
N6    N     N_R   0.854204 0.781252 0.850620 0.267731
O33   O     O_R   0.969732 0.730181 0.872199 -0.354962
O34   O     O_R   0.890179 0.860620 0.825916 -0.254320
N7    N     N_R   0.578843 0.807149 0.868329 0.209275
O35   O     O_R   0.580126 0.888262 0.843062 -0.302374
O36   O     O_R   0.482026 0.785318 0.925312 -0.399308
N8    N     N_2   0.462012 0.914693 0.125280 -0.085634
H42   H     H_    0.495213 0.958738 0.080679 0.254806
C46   C     C_3   0.390823 0.959869 0.198872 -0.868139
H43   H     H_    0.293322 0.998336 0.171178 0.262743
H44   H     H_    0.479851 0.008152 0.243453 0.284627
H45   H     H_    0.338243 0.908578 0.236996 0.208592
N9    N     N_R   0.142901 0.826170 0.048274 0.266883
O37   O     O_R   0.175898 0.890103 0.998896 -0.311659
O38   O     O_R   0.191648 0.746236 0.027631 -0.405482
N10   N     N_R   0.200876 0.271651 0.871127 0.219115
O39   O     O_R   0.217899 0.353709 0.849188 -0.404066
O40   O     O_R   0.300352 0.249392 0.936960 -0.374307
N11   N     N_2   0.006927 0.126171 0.925730 -0.137735
H46   H     H_    0.087993 0.154693 0.979283 0.231912
C47   C     C_3   0.911987 0.050090 0.950564 -0.659405
H47   H     H_    0.833618 0.075166 0.000705 0.240290
H48   H     H_    0.990778 0.002179 0.981395 0.279319
H49   H     H_    0.833333 0.014116 0.891832 0.312096
N12   N     N_R   0.587919 0.058279 0.737733 0.208746
O41   O     O_R   0.688475 0.995985 0.727244 -0.401481
O42   O     O_R   0.442807 0.044824 0.695401 -0.345333
N13   N     N_R   0.553598 0.128956 0.885865 0.275917
O43   O     O_R   0.466436 0.055110 0.893133 -0.316514
O44   O     O_R   0.601889 0.183965 0.958832 -0.365607
N14   N     N_2   0.954615 0.684718 0.154136 -0.072650
H50   H     H_    0.987997 0.630565 0.187706 0.177978
C48   C     C_3   0.870434 0.663135 0.063326 -0.734324
H51   H     H_    0.797443 0.597811 0.058476 0.242008
H52   H     H_    0.954650 0.654987 0.013371 0.270283
H53   H     H_    0.787200 0.714874 0.045061 0.235813
N15   N     N_2   0.910167 0.393452 0.086723 -0.109348
H54   H     H_    0.817714 0.393375 0.125390 0.238710
C49   C     C_3   0.937220 0.306237 0.040913 -0.802158
H55   H     H_    0.870827 0.297535 0.971866 0.276798
H56   H     H_    0.890419 0.251418 0.077678 0.264100
H57   H     H_    0.066837 0.300369 0.035953 0.253416

loop_
_geom_bond_atom_site_label_1
_geom_bond_atom_site_label_2
_geom_bond_distance
_ccdc_geom_bond_type
C14   H23   1.109986 S    
C25   C26   1.405543 A    
C36   C37   1.426486 A    
C31   C37   1.410829 A    
C8    H13   1.091877 S    
C1    C10   1.542326 S    
C31   C39   1.427441 A    
N4    O29   1.287184 A    
C38   C40   1.444887 A    
N13   O43   1.300012 A    
O2    Ba2   2.872699 S    
P4    O13   1.588813 S    
Ba1   Ba2   4.555222 S    
C42   C43   1.395041 A    
N7    O36   1.300156 A    
O17   Ba2   2.782290 S    
C5    H8    1.102200 S    
N15   C49   1.441638 S    
O1    Ba1   2.855934 S    
O7    Ba1   2.928162 S    
N14   H50   1.026995 S    
C8    C9    1.543247 S    
C22   C24   1.454625 A    
P1    O1    1.566460 D    
N10   O40   1.300253 A    
O10   C8    1.400412 S    
C6    H10   1.107333 S    
C1    N8    1.447149 S    
C12   H19   1.110753 S    
C40   C41   1.400077 A    
C33   H32   1.082256 S    
C4    O15   1.399912 S    
N1    O25   1.299187 A    
C2    C3    1.556819 S    
P7    O22   1.754268 S    
C2    H3    1.111804 S    
C4    C5    1.528000 S    
O2    Ba1   2.997869 S    
C11   O22   1.408638 S    
C41   H35   1.082850 S    
P3    C34   1.837980 S    
P8    C20   1.838443 S    
C19   C30   1.392952 A    
C2    N14   1.459652 S    
C21   C22   1.417987 A    
C49   H56   1.106796 S    
O11   C2    1.413004 S    
C15   H25   1.103499 S    
C4    H6    1.106880 S    
P8    O24   1.738741 S    
C15   H24   1.115594 S    
C6    H11   1.103761 S    
C1    H2    1.108311 S    
C47   H48   1.100107 S    
O3    Ba1   2.904276 S    
P2    O20   1.595281 S    
C49   H57   1.109154 S    
C26   C27   1.393271 A    
C1    N5    1.456698 S    
C14   H22   1.104074 S    
C9    N7    1.461217 S    
N12   O42   1.300376 A    
C46   H45   1.100100 S    
C31   H36   1.076441 S    
C48   H51   1.104037 S    
C8    N4    1.431391 S    
O13   Ba2   2.998869 S    
C38   C39   1.423982 A    
N13   O44   1.301407 A    
C23   C30   1.439748 A    
P5    O17   1.756133 S    
C32   C33   1.405836 A    
N9    O38   1.295068 A    
P5    C42   1.850140 S    
C11   H17   1.108954 S    
P1    O5    1.736756 S    
C48   H52   1.093637 S    
N8    H42   1.032288 S    
C47   H49   1.103372 S    
C24   C28   1.442307 A    
C43   H34   1.068620 S    
P4    O12   1.566924 D    
C23   C27   1.400007 A    
C24   C25   1.431298 A    
C12   H20   1.108753 S    
P4    O15   1.743804 S    
C36   C44   1.420406 A    
C21   H30   1.073431 S    
O5    C6    1.388580 S    
O14   P8    1.750556 S    
C19   C20   1.386737 A    
C10   H15   1.093863 S    
Ba1   O16   2.818759 S    
P1    O2    1.588813 S    
C13   C14   1.550371 S    
C27   H31   1.076889 S    
P8    O23   1.543422 D    
C16   H26   1.094033 S    
C14   N11   1.452691 S    
C9    H14   1.115517 S    
C19   H29   1.081865 S    
P2    O10   1.785085 S    
C34   C35   1.386540 A    
P3    O9    1.546196 D    
O16   Ba2   2.962687 S    
C41   C42   1.392161 A    
C28   N15   1.421480 S    
C15   O24   1.403599 S    
P1    Ba1   3.438706 S    
C7    H12   1.115028 S    
C22   C23   1.435024 A    
P7    C40   1.881119 S    
H1    C10   1.112491 S    
C17   C25   1.426191 A    
C47   H47   1.108037 S    
N2    O28   1.293008 A    
H28   C26   1.079168 S    
C48   H53   1.102813 S    
C45   H41   1.104132 S    
C16   N12   1.459769 S    
P4    Ba2   3.439401 S    
N11   C47   1.446999 S    
C7    N2    1.448720 S    
N12   O41   1.298891 A    
C3    N9    1.464392 S    
O4    P6    1.540560 D    
O8    Ba1   2.781765 S    
N3    C45   1.443713 S    
N5    O31   1.300056 A    
P6    C17   1.861286 S    
P4    C30   1.879062 S    
C49   H55   1.108139 S    
C45   H40   1.105355 S    
N9    O37   1.298827 A    
C39   C43   1.405836 A    
C11   H16   1.109910 S    
C17   C29   1.391673 A    
Ba2   O21   2.928228 S    
C6    C7    1.531930 S    
Ba1   O13   2.872015 S    
C46   H43   1.093324 S    
C32   C37   1.457901 A    
O6    P6    1.740456 S    
C3    H5    1.105042 S    
N5    O32   1.301416 A    
N4    O30   1.286117 A    
N6    O34   1.297976 A    
N2    O27   1.293243 A    
P5    O18   1.541048 D    
N6    O33   1.298894 A    
N8    C46   1.441167 S    
H27   C29   1.082391 S    
N7    O35   1.296778 A    
C5    H9    1.107204 S    
P2    C32   1.905841 S    
C13   N10   1.460822 S    
C16   N13   1.468620 S    
C13   H21   1.114250 S    
C18   C29   1.387520 A    
N14   C48   1.453399 S    
P3    O8    1.733697 S    
O6    C10   1.398326 S    
N10   O39   1.295835 A    
P3    O11   1.759151 S    
C38   C44   1.403649 A    
P2    O7    1.517005 D    
C12   H18   1.105758 S    
C7    N3    1.454971 S    
Ba1   O20   2.963667 S    
Ba2   O20   2.818262 S    
O16   P7    1.781254 S    
C35   C36   1.395536 A    
N1    O26   1.297761 A    
C46   H44   1.110614 S    
C4    H7    1.111940 S    
C18   C28   1.422425 A    
P7    O21   1.574981 D    
C5    N1    1.446899 S    
O19   C13   1.406119 S    
O14   Ba2   2.903663 S    
P5    O19   1.753616 S    
C3    H4    1.103249 S    
P2    Ba1   3.496886 S    
C35   H33   1.078499 S    
C33   C34   1.398989 A    
N15   H54   1.023980 S    
O3    P6    1.743326 S    
C15   C16   1.528469 S    
P1    C18   1.867957 S    
C9    N6    1.463224 S    
N11   H46   1.025639 S    
C20   C21   1.389804 A    
N3    H38   1.029970 S    
C44   H37   1.079419 S    
O12   Ba2   2.856611 S    
C45   H39   1.103304 S    
C11   C12   1.521480 S    
