data_mof_unit_31035.cif
_audit_creation_date              2012-12-10T20:44:00-0500
_audit_creation_method            fapswitch 2.2
_symmetry_space_group_name_H-M    P1
_symmetry_Int_Tables_number       1
_space_group_crystal_system       triclinic
_cell_length_a                    17.535435
_cell_length_b                    10.686402
_cell_length_c                    9.920696
_cell_angle_alpha                 89.398861
_cell_angle_beta                  89.004836
_cell_angle_gamma                 91.076267
_cell_volume                      1858.32908946

loop_
_atom_site_label
_atom_site_type_symbol
_atom_type_description
_atom_site_fract_x
_atom_site_fract_y
_atom_site_fract_z
_atom_type_partial_charge
C1    C     C_R   0.501853 0.259997 0.500158 0.872862
C2    C     C_R   0.115565 0.553324 0.493402 0.163539
C3    C     C_R   0.532917 0.062984 0.613096 0.035194
C4    C     C_R   0.353560 0.501667 0.500757 0.866741
C5    C     C_R   0.513390 0.128582 0.497171 -0.079677
C6    C     C_R   0.510097 0.065898 0.373501 -0.212695
C7    C     C_R   0.510965 0.936872 0.372495 -0.209717
C8    C     C_R   0.515843 0.871333 0.495013 -0.145227
C9    C     C_R   0.535255 0.935159 0.611292 0.007631
C10   C     C_3   0.504547 0.923246 0.753706 0.417780
C11   C     C_3   0.500817 0.065218 0.753702 -0.553388
C12   C     C_R   0.887578 0.544788 0.496464 0.061792
C13   C     C_R   0.436013 0.465134 0.073830 0.125009
C14   C     C_R   0.560170 0.551504 0.064966 0.117951
C15   C     C_R   0.557560 0.553793 0.922149 -0.117313
C16   C     C_R   0.502854 0.739823 0.499031 0.854366
C17   C     C_R   0.436114 0.465138 0.931919 0.177163
C18   C     C_3   0.394265 0.343135 0.928107 0.335125
C19   C     C_3   0.394779 0.341952 0.081809 -0.570691
C20   C     C_R   0.646869 0.497646 0.500063 0.876102
C21   C     C_R   0.847712 0.559836 0.619247 0.019372
C22   C     C_R   0.769320 0.530568 0.624248 0.498237
C23   C     C_1   0.967881 0.557322 0.490884 -0.039738
C24   C     C_R   0.730647 0.501491 0.503425 -0.173242
C25   C     C_R   0.773084 0.479244 0.385843 -0.299831
C26   C     C_R   0.851028 0.501284 0.382188 -0.207211
C27   C     C_3   0.888187 0.605970 0.744378 -0.402786
C28   C     C_3   0.903016 0.747714 0.735836 -0.334554
C29   C     C_3   0.942831 0.795125 0.861492 -0.898018
C30   C     C_3   0.631016 0.870255 0.814754 -0.285123
C31   C     C_3   0.637177 0.592624 0.117997 -0.378804
C32   C     C_3   0.638984 0.721851 0.184302 -0.277553
C33   C     C_3   0.719933 0.777295 0.188337 -0.946477
C34   C     C_1   0.035547 0.560025 0.490909 -0.081748
C35   C     C_3   0.289370 0.242826 0.839907 -0.322533
C36   C     C_3   0.732198 0.409996 0.803276 -0.364337
C37   C     C_R   0.152651 0.557260 0.616674 -0.180775
C38   C     C_R   0.230697 0.538135 0.620230 -0.182468
C39   C     C_R   0.271175 0.514548 0.500231 -0.046245
C40   C     C_R   0.232913 0.510818 0.376984 -0.200348
C41   C     C_R   0.155171 0.530116 0.373808 -0.167449
H1    H     H_    0.501454 0.889571 0.278071 0.175500
H2    H     H_    0.883035 0.483491 0.290093 0.154834
H3    H     H_    0.121149 0.573564 0.709624 0.135015
H4    H     H_    0.259217 0.542865 0.716004 0.200154
H5    H     H_    0.262876 0.493307 0.282923 0.161864
H6    H     H_    0.125809 0.525139 0.278687 0.134505
H7    H     H_    0.500849 0.114843 0.279222 0.166045
H8    H     H_    0.906748 0.775635 0.952754 0.262238
H9    H     H_    0.998678 0.749083 0.872743 0.261358
H10   H     H_    0.952901 0.897780 0.852389 0.250070
H11   H     H_    0.939367 0.771536 0.646017 0.228274
H12   H     H_    0.447060 0.877503 0.759510 0.097102
H13   H     H_    0.847847 0.796359 0.725844 0.221514
H14   H     H_    0.854047 0.585257 0.837455 0.235238
H15   H     H_    0.942734 0.556048 0.756427 0.191908
H16   H     H_    0.654009 0.964129 0.784051 0.156472
H17   H     H_    0.639101 0.801254 0.732860 0.183203
H18   H     H_    0.664470 0.837893 0.901485 0.186688
H19   H     H_    0.757218 0.715362 0.247532 0.280823
H20   H     H_    0.744551 0.789350 0.085095 0.259596
H21   H     H_    0.718706 0.870304 0.237140 0.257876
H22   H     H_    0.602118 0.787337 0.128581 0.237400
H23   H     H_    0.441174 0.097908 0.756375 0.154004
H24   H     H_    0.619042 0.714593 0.289474 0.260344
H25   H     H_    0.660603 0.517562 0.178181 0.205083
H26   H     H_    0.679748 0.598084 0.033564 0.188659
H27   H     H_    0.290857 0.173638 0.924512 0.160119
H28   H     H_    0.319585 0.206681 0.749321 0.159461
H29   H     H_    0.228799 0.255418 0.813254 0.192385
H30   H     H_    0.701929 0.409693 0.902252 0.177258
H31   H     H_    0.791551 0.379456 0.821065 0.152584
H32   H     H_    0.702257 0.341006 0.738502 0.180910
H33   H     H_    0.540244 0.111447 0.825166 0.213264
H34   H     H_    0.603772 0.594155 0.861813 0.212592
H35   H     H_    0.429286 0.270244 0.879586 0.081524
H36   H     H_    0.337231 0.349511 0.129402 0.220051
H37   H     H_    0.430343 0.266730 0.124480 0.171678
H38   H     H_    0.746854 0.441942 0.297370 0.167755
N1    N     N_R   0.499490 0.499140 0.142800 -0.113868
N2    N     N_R   0.499490 0.499180 0.857150 -0.159767
O1    O     O_R   0.500010 0.316790 0.614690 -0.621454
O2    O     O_3   0.320484 0.359706 0.876784 -0.585913
O3    O     O_3   0.730904 0.532086 0.747104 -0.631136
O4    O     O_R   0.500000 0.316760 0.385350 -0.624535
O5    O     O_R   0.389120 0.500020 0.614710 -0.591750
O6    O     O_R   0.389110 0.499990 0.385370 -0.613871
O7    O     O_R   0.500000 0.683240 0.614650 -0.609421
O8    O     O_R   0.499990 0.683210 0.385310 -0.631126
O9    O     O_R   0.610890 0.500010 0.614630 -0.574845
O10   O     O_R   0.610880 0.499980 0.385290 -0.638052
O11   O     O_3   0.553421 0.875620 0.855120 -0.598429
Zn1   Zn    Zn3+2 0.500010 0.500020 0.653130 0.970557
Zn2   Zn    Zn3+2 0.499990 0.499980 0.346870 0.937343

loop_
_geom_bond_atom_site_label_1
_geom_bond_atom_site_label_2
_ccdc_geom_bond_type
C31   H25   S    
C15   H34   S    
O6    Zn2   S    
C14   C31   S    
C7    C8    A    
C15   N2    A    
C4    O6    A    
C29   H8    S    
C31   H26   S    
C12   C23   S    
C6    H7    S    
C1    C5    S    
C28   C29   S    
C5    C6    A    
C27   H14   S    
C4    O5    A    
C2    C41   A    
C30   H16   S    
C18   C19   S    
C7    H1    S    
O8    Zn2   S    
C19   H36   S    
C10   H12   S    
C38   H4    S    
C20   C24   S    
C35   H29   S    
C33   H21   S    
C18   H35   S    
C14   N1    A    
C9    C10   S    
C36   H30   S    
C2    C34   S    
C21   C27   S    
C13   N1    A    
C10   O11   S    
C16   O8    A    
C8    C16   S    
O1    Zn1   S    
C21   C22   A    
C26   H2    S    
C18   O2    S    
C29   H9    S    
C1    O4    A    
C20   O10   A    
C13   C19   S    
C24   C25   A    
C30   O11   S    
C11   H23   S    
C10   C11   S    
C39   C40   A    
C35   O2    S    
C27   H15   S    
C8    C9    A    
C1    O1    A    
C20   O9    A    
C12   C21   A    
C12   C26   A    
C22   O3    S    
C19   H37   S    
C40   H5    S    
C37   C38   A    
C3    C9    A    
O5    Zn1   S    
N2    Zn1   S    
O4    Zn2   S    
C31   C32   S    
C4    C39   S    
C23   C34   T    
C30   H18   S    
C17   C18   S    
C41   H6    S    
C40   C41   A    
C33   H19   S    
C22   C24   A    
N1    Zn2   S    
O9    Zn1   S    
C29   H10   S    
O7    Zn1   S    
C28   H13   S    
C25   H38   S    
C32   H22   S    
C3    C5    A    
C11   H33   S    
C6    C7    A    
C13   C17   A    
C32   C33   S    
C37   H3    S    
C25   C26   A    
O10   Zn2   S    
C28   H11   S    
C2    C37   A    
C38   C39   A    
C35   H27   S    
C36   O3    S    
C30   H17   S    
C17   N2    A    
C3    C11   S    
C36   H32   S    
C35   H28   S    
C33   H20   S    
C27   C28   S    
C16   O7    A    
C14   C15   A    
C36   H31   S    
C32   H24   S    
