data_mof_unit_37584.cif
_audit_creation_date              2012-12-11T14:13:04-0500
_audit_creation_method            fapswitch 2.2
_symmetry_space_group_name_H-M    P1
_symmetry_Int_Tables_number       1
_space_group_crystal_system       triclinic
_cell_length_a                    11.457185
_cell_length_b                    18.803273
_cell_length_c                    10.062273
_cell_angle_alpha                 89.999789
_cell_angle_beta                  109.280895
_cell_angle_gamma                 89.999128
_cell_volume                      2046.15519159

loop_
_atom_site_label
_atom_site_type_symbol
_atom_type_description
_atom_site_fract_x
_atom_site_fract_y
_atom_site_fract_z
_atom_type_partial_charge
C1    C     C_R   0.076127 0.645337 0.141823 0.529085
C2    C     C_R   0.923838 0.354675 0.858163 0.529215
C3    C     C_R   0.923852 0.145329 0.858169 0.529165
C4    C     C_R   0.076143 0.854669 0.141831 0.529176
C5    C     C_R   0.433546 0.472451 0.585032 0.026374
C6    C     C_R   0.566361 0.527546 0.414688 0.026363
C7    C     C_R   0.566393 0.972450 0.414800 0.026359
C8    C     C_R   0.433599 0.027550 0.585175 0.026367
C9    C     C_2   0.389877 0.929952 0.942149 -0.096104
C10   C     C_2   0.610117 0.070053 0.057836 -0.096094
C11   C     C_2   0.610182 0.429980 0.057715 -0.096023
C12   C     C_2   0.389943 0.570082 0.942011 -0.096052
C13   C     C_2   0.498199 0.961625 0.989881 -0.173946
C14   C     C_2   0.501794 0.038377 0.010094 -0.173984
C15   C     C_2   0.501856 0.461659 0.009974 -0.173988
C16   C     C_2   0.498271 0.538413 0.989784 -0.173938
C17   C     C_2   0.015151 0.923724 0.116351 -0.132431
C18   C     C_2   0.984838 0.076274 0.883654 -0.132418
C19   C     C_2   0.984806 0.423736 0.883632 -0.132384
C20   C     C_2   0.015115 0.576287 0.116325 -0.132502
C21   C     C_2   0.023528 0.963789 0.009781 -0.142500
C22   C     C_2   0.976430 0.036203 0.990204 -0.142476
C23   C     C_2   0.976387 0.463810 0.990172 -0.142497
C24   C     C_2   0.023485 0.536223 0.009749 -0.142480
C25   C     C_R   0.436691 0.637534 0.375630 0.544480
C26   C     C_R   0.563276 0.362477 0.624289 0.544399
C27   C     C_R   0.563291 0.137527 0.624321 0.544429
C28   C     C_R   0.436708 0.862471 0.375675 0.544442
C29   C     C_R   0.375260 0.644569 0.965933 0.549907
C30   C     C_R   0.624765 0.355453 0.034017 0.549916
C31   C     C_R   0.624755 0.144557 0.034037 0.549894
C32   C     C_R   0.375246 0.855443 0.965958 0.549893
C33   C     C_R   0.541986 0.437911 0.579467 -0.026218
C34   C     C_R   0.457935 0.562080 0.420286 -0.026305
C35   C     C_R   0.457975 0.937912 0.420419 -0.026232
C36   C     C_R   0.542023 0.062087 0.579565 -0.026244
C37   C     C_R   0.367479 0.449894 0.674739 -0.100243
C38   C     C_R   0.632402 0.550137 0.324979 -0.100206
C39   C     C_R   0.632436 0.949865 0.325080 -0.100246
C40   C     C_R   0.367550 0.050134 0.674885 -0.100231
C41   C     C_R   0.252672 0.477985 0.664507 -0.095134
C42   C     C_R   0.747162 0.522028 0.335073 -0.095002
C43   C     C_R   0.747212 0.977960 0.335212 -0.095013
C44   C     C_R   0.252756 0.022052 0.664716 -0.095039
C45   C     C_R   0.201601 0.530950 0.566856 0.056395
C46   C     C_R   0.798192 0.468979 0.432553 0.056445
C47   C     C_R   0.798256 0.030993 0.432736 0.056601
C48   C     C_R   0.201711 0.969022 0.567191 0.056409
C49   C     C_R   0.265835 0.552195 0.478169 -0.105384
C50   C     C_R   0.734006 0.447700 0.521268 -0.105535
C51   C     C_R   0.734057 0.052269 0.521441 -0.105469
C52   C     C_R   0.265936 0.947736 0.478519 -0.105541
C53   C     C_R   0.386154 0.529627 0.494549 -0.005114
C54   C     C_R   0.613737 0.470335 0.505097 -0.005060
C55   C     C_R   0.613776 0.029653 0.505220 -0.005105
C56   C     C_R   0.386219 0.970349 0.494753 -0.005091
Cr1   Cr    Cr6+3 0.187610 0.750000 0.979860 1.062317
Cr2   Cr    Cr6+3 0.812390 0.250000 0.020140 1.062508
Cr3   Cr    Cr6+3 0.245810 0.750000 0.341640 1.012853
Cr4   Cr    Cr6+3 0.754190 0.250000 0.658360 1.012791
Cr5   Cr    Cr6+3 0.485760 0.750000 0.219910 1.005432
Cr6   Cr    Cr6+3 0.514240 0.250000 0.780090 1.005470
H1    H     H_    0.204762 0.458456 0.733550 0.115217
H2    H     H_    0.795057 0.541599 0.266045 0.115112
H3    H     H_    0.795106 0.958398 0.266173 0.115183
H4    H     H_    0.204867 0.041607 0.733758 0.115262
H5    H     H_    0.403663 0.410892 0.755317 0.157727
H6    H     H_    0.596230 0.589183 0.244492 0.157796
H7    H     H_    0.596256 0.910836 0.244562 0.157793
H8    H     H_    0.403748 0.089149 0.755430 0.157773
H9    H     H_    0.220426 0.583761 0.391746 0.155963
H10   H     H_    0.779427 0.416004 0.607485 0.156247
H11   H     H_    0.779467 0.083933 0.607714 0.156191
H12   H     H_    0.220523 0.916089 0.392212 0.156161
H13   H     H_    0.416990 0.069474 0.979265 0.133213
H14   H     H_    0.583010 0.930525 0.020718 0.133197
H15   H     H_    0.583077 0.569516 0.020730 0.133192
H16   H     H_    0.417039 0.430567 0.979204 0.133193
H17   H     H_    0.694097 0.038559 0.089927 0.113707
H18   H     H_    0.305890 0.961453 0.910074 0.113630
H19   H     H_    0.305968 0.538579 0.909809 0.113699
H20   H     H_    0.694195 0.461475 0.089702 0.113708
H21   H     H_    0.930339 0.056086 0.061479 0.198019
H22   H     H_    0.069595 0.943902 0.938488 0.197912
H23   H     H_    0.069558 0.556107 0.938459 0.197886
H24   H     H_    0.930294 0.443927 0.061445 0.198110
H25   H     H_    0.025009 0.055257 0.808125 0.133405
H26   H     H_    0.975014 0.944749 0.191907 0.133309
H27   H     H_    0.974973 0.555260 0.191873 0.133142
H28   H     H_    0.024972 0.444754 0.808096 0.133151
O1    O     O_R   0.267710 0.668200 0.902110 -0.492638
O2    O     O_R   0.732290 0.331800 0.097890 -0.492547
O3    O     O_R   0.732290 0.168200 0.097890 -0.492629
O4    O     O_R   0.267710 0.831800 0.902110 -0.492802
O5    O     O_R   0.099480 0.674460 0.038850 -0.481541
O6    O     O_R   0.900520 0.325540 0.961150 -0.481511
O7    O     O_R   0.900520 0.174460 0.961150 -0.481531
O8    O     O_R   0.099480 0.825540 0.038850 -0.481583
O9    O     O_R   0.116720 0.669210 0.267660 -0.559999
O10   O     O_R   0.883280 0.330790 0.732340 -0.560012
O11   O     O_R   0.883280 0.169210 0.732340 -0.560014
O12   O     O_R   0.116720 0.830790 0.267660 -0.560044
O13   O     O_R   0.366710 0.675440 0.427590 -0.486718
O14   O     O_R   0.633290 0.324560 0.572410 -0.486922
O15   O     O_R   0.633290 0.175440 0.572410 -0.486882
O16   O     O_R   0.366710 0.824560 0.427590 -0.486886
O17   O     O_R   0.534870 0.669390 0.371760 -0.501203
O18   O     O_R   0.465130 0.330610 0.628240 -0.501175
O19   O     O_R   0.465130 0.169390 0.628240 -0.501180
O20   O     O_R   0.534870 0.830610 0.371760 -0.501198
O21   O     O_R   0.453080 0.674480 0.075160 -0.535703
O22   O     O_R   0.546920 0.325520 0.924840 -0.535623
O23   O     O_R   0.546920 0.174480 0.924840 -0.535657
O24   O     O_R   0.453080 0.825520 0.075160 -0.535640
O25   O     O_3   0.306390 0.750000 0.180470 -0.298669
O26   O     O_3   0.693610 0.250000 0.819530 -0.298672
C57   C     C_2   0.084647 0.566752 0.558932 0.254061
H29   H     H_    0.041748 0.603656 0.473982 0.127424
O27   O     O_2   0.035892 0.556604 0.648324 -0.551053
C58   C     C_2   0.915061 0.433123 0.440291 0.254169
H30   H     H_    0.957979 0.396156 0.525207 0.127274
O28   O     O_2   0.963712 0.443290 0.350786 -0.551179
C59   C     C_2   0.915156 0.066832 0.440531 0.254542
H31   H     H_    0.958042 0.103809 0.525427 0.127326
O29   O     O_2   0.963878 0.056633 0.351099 -0.551053
C60   C     C_2   0.084821 0.933167 0.559413 0.254146
H32   H     H_    0.042189 0.895927 0.474828 0.127233
O30   O     O_2   0.035830 0.943635 0.648548 -0.551266

loop_
_geom_bond_atom_site_label_1
_geom_bond_atom_site_label_2
_ccdc_geom_bond_type
C32   O4    A    
C60   H32   S    
C4    O8    A    
C12   C29   S    
C17   H26   S    
Cr3   O9    S    
C44   H4    S    
C7    C55   A    
C1    O9    A    
C59   H31   S    
Cr1   O25   S    
C50   C54   A    
C40   H8    S    
C7    C39   A    
C5    C53   A    
Cr2   O3    S    
C38   C42   A    
C5    C37   A    
C57   O27   D    
C42   C46   A    
C59   O29   D    
C15   H16   S    
Cr6   O18   S    
C27   O15   A    
C15   C16   S    
C3    C18   S    
C16   H15   S    
C8    C36   A    
Cr2   O6    S    
C9    C13   D    
C9    C32   S    
C26   O14   A    
C11   C15   D    
C10   C31   S    
C20   C24   D    
C11   C30   S    
C28   O16   A    
C23   H24   S    
C4    O12   A    
Cr5   O25   S    
C23   C24   S    
C6    C38   A    
C24   H23   S    
C40   C44   A    
C43   H3    S    
C25   C34   S    
C50   H10   S    
C3    O11   A    
C35   C56   A    
C2    O10   A    
C13   C14   S    
Cr2   O26   S    
C8    C56   A    
Cr2   O7    S    
C6    C54   A    
Cr5   O20   S    
C58   O28   D    
C11   H20   S    
Cr3   O16   S    
C12   C16   D    
C28   C35   S    
Cr6   O23   S    
C30   O2    A    
C10   C14   D    
C26   O18   A    
C25   O13   A    
C39   C43   A    
C28   O20   A    
C31   O3    A    
C17   C21   D    
C6    C34   A    
C30   O22   A    
C9    H18   S    
C19   C23   D    
Cr6   O26   S    
C3    O7    A    
C26   C33   S    
C47   C59   S    
C21   H22   S    
C45   C49   A    
C1    O5    A    
C39   H7    S    
C46   C58   S    
C4    C17   S    
C38   H6    S    
Cr1   O4    S    
Cr1   O5    S    
Cr4   O26   S    
C41   H1    S    
Cr4   O11   S    
Cr5   O21   S    
C42   H2    S    
C29   O1    A    
C58   H30   S    
C25   O17   A    
C45   C57   S    
C33   C54   A    
C1    C20   S    
C60   O30   D    
Cr1   O1    S    
C2    C19   S    
C18   C22   D    
Cr3   O12   S    
C7    C35   A    
C29   O21   A    
C51   H11   S    
Cr4   O10   S    
C47   C51   A    
C10   H17   S    
C27   C36   S    
C13   H14   S    
C20   H27   S    
C46   C50   A    
C52   H12   S    
C18   H25   S    
Cr3   O13   S    
C14   H13   S    
C2    O6    A    
C19   H28   S    
Cr4   O14   S    
C57   H29   S    
C22   H21   S    
Cr6   O19   S    
Cr2   O2    S    
C49   C53   A    
Cr1   O8    S    
C37   H5    S    
C12   H19   S    
C51   C55   A    
C5    C33   A    
C37   C41   A    
Cr5   O17   S    
C48   C60   S    
C44   C48   A    
C48   C52   A    
Cr6   O22   S    
C27   O19   A    
C34   C53   A    
Cr3   O25   S    
C49   H9    S    
Cr5   O24   S    
C36   C55   A    
C41   C45   A    
C8    C40   A    
C32   O24   A    
C21   C22   S    
C43   C47   A    
C31   O23   A    
Cr4   O15   S    
C52   C56   A    
