data_mof_unit_39427.cif
_audit_creation_date              2012-12-10T18:22:28-0500
_audit_creation_method            fapswitch 2.2
_symmetry_space_group_name_H-M    P1
_symmetry_Int_Tables_number       1
_space_group_crystal_system       triclinic
_cell_length_a                    23.448444
_cell_length_b                    10.605014
_cell_length_c                    9.438718
_cell_angle_alpha                 90.519301
_cell_angle_beta                  90.231985
_cell_angle_gamma                 90.565817
_cell_volume                      2346.90521993

loop_
_atom_site_label
_atom_site_type_symbol
_atom_type_description
_atom_site_fract_x
_atom_site_fract_y
_atom_site_fract_z
_atom_type_partial_charge
C1    C     C_R   0.500096 0.259495 0.499318 0.777268
C2    C     C_R   0.499605 0.740508 0.500647 0.778834
C3    C     C_R   0.236771 0.579109 0.419349 -0.012085
C4    C     C_R   0.765713 0.536839 0.401315 -0.014780
C5    C     C_R   0.296771 0.588092 0.418797 0.325966
C6    C     C_R   0.705967 0.541471 0.390694 0.311848
C7    C     C_R   0.328877 0.501889 0.500370 -0.119541
C8    C     C_R   0.671851 0.490528 0.500463 -0.123975
C9    C     C_R   0.300928 0.411860 0.583317 -0.276494
C10   C     C_R   0.698370 0.430716 0.614879 -0.283836
C11   C     C_R   0.241826 0.404383 0.584497 -0.131888
C12   C     C_R   0.757472 0.425848 0.624617 -0.151302
C13   C     C_R   0.209545 0.487089 0.503392 0.252619
C14   C     C_R   0.791272 0.479230 0.519232 0.270647
C15   C     C_3   0.540394 0.043741 0.588485 -0.177681
C16   C     C_3   0.458918 0.956271 0.411284 -0.178982
C17   C     C_3   0.550783 0.957896 0.458036 -0.158867
C18   C     C_3   0.448535 0.042183 0.541720 -0.166018
C19   C     C_3   0.499311 0.877498 0.501764 0.028175
C20   C     C_3   0.500030 0.122522 0.498040 0.030659
C21   C     C_3   0.488868 0.961096 0.632310 -0.145725
C22   C     C_3   0.510440 0.038959 0.367460 -0.144764
C23   C     C_R   0.391257 0.501626 0.499877 0.789755
C24   C     C_R   0.609073 0.498908 0.499844 0.834589
C25   C     C_3   0.501446 0.614112 0.052123 -0.084590
C26   C     C_3   0.498437 0.385792 0.948007 -0.098655
C27   C     C_3   0.456115 0.559379 0.948891 -0.096608
C28   C     C_3   0.543857 0.440627 0.051184 -0.095666
C29   C     C_3   0.545006 0.554411 0.952451 0.130605
C30   C     C_3   0.454931 0.445692 0.047814 0.133446
C31   C     C_R   0.881171 0.559879 0.609449 0.504954
C32   C     C_R   0.119557 0.387370 0.441317 0.518824
C33   C     C_R   0.879908 0.380185 0.454650 0.546362
C34   C     C_R   0.120798 0.568578 0.593889 0.545193
C35   C     C_R   0.939669 0.377817 0.453065 -0.013713
C36   C     C_R   0.061114 0.566422 0.602217 -0.012605
C37   C     C_R   0.970331 0.470446 0.530486 -0.017541
C38   C     C_R   0.030472 0.472690 0.526465 -0.020063
C39   C     C_R   0.940982 0.561645 0.610692 -0.003932
C40   C     C_R   0.059813 0.381754 0.445871 -0.007577
C41   C     C_R   0.969349 0.286791 0.374279 -0.173154
C42   C     C_R   0.031464 0.655966 0.683226 -0.178016
C43   C     C_R   0.028828 0.288624 0.370888 -0.176458
C44   C     C_R   0.971997 0.653601 0.687393 -0.186250
Cu1   Cu    Cu3+1 0.500010 0.499990 0.643150 0.935922
Cu2   Cu    Cu3+1 0.499990 0.500010 0.356850 0.948964
H1    H     H_    0.946736 0.214473 0.314144 0.181485
H2    H     H_    0.054067 0.728708 0.742751 0.178324
H3    H     H_    0.419754 0.610008 0.900731 0.124070
H4    H     H_    0.580163 0.389771 0.099265 0.105638
H5    H     H_    0.503072 0.710240 0.099583 0.128592
H6    H     H_    0.496756 0.289631 0.900658 0.123553
H7    H     H_    0.050391 0.217563 0.308400 0.179026
H8    H     H_    0.950447 0.724888 0.749490 0.172252
H9    H     H_    0.325075 0.345890 0.646198 0.162923
H10   H     H_    0.673210 0.387577 0.697656 0.167443
H11   H     H_    0.220837 0.334557 0.649695 0.154450
H12   H     H_    0.777157 0.380216 0.714321 0.140949
H13   H     H_    0.592609 0.920033 0.424250 0.146204
H14   H     H_    0.406712 0.080096 0.575463 0.126599
H15   H     H_    0.573629 0.083302 0.660717 0.122067
H16   H     H_    0.425627 0.917022 0.338984 0.132535
H17   H     H_    0.479339 0.927465 0.740714 0.123894
H18   H     H_    0.519834 0.072822 0.259058 0.124629
N1    N     N_R   0.852125 0.471562 0.530060 -0.452253
N2    N     N_R   0.148557 0.480950 0.512847 -0.452205
N3    N     N_3   0.500040 0.499970 0.858290 -0.167879
N4    N     N_3   0.499960 0.500030 0.141710 -0.163860
O1    O     O_R   0.500030 0.316850 0.620870 -0.587965
O2    O     O_R   0.499970 0.683150 0.379130 -0.581998
O3    O     O_R   0.500000 0.316860 0.379090 -0.591032
O4    O     O_R   0.500000 0.683140 0.620910 -0.591467
O5    O     O_R   0.417890 0.499960 0.620920 -0.579520
O6    O     O_R   0.582110 0.500040 0.379080 -0.578539
O7    O     O_R   0.417870 0.499970 0.379140 -0.559074
O8    O     O_R   0.582130 0.500030 0.620860 -0.572144
O9    O     O_2   0.852201 0.647060 0.684402 -0.587521
O10   O     O_2   0.148482 0.301181 0.364790 -0.584493
O11   O     O_2   0.849702 0.292979 0.380276 -0.556892
O12   O     O_2   0.150946 0.657409 0.665961 -0.557611
C45   C     C_R   0.596714 0.624263 0.899517 0.135670
C46   C     C_R   0.591003 0.745025 0.841970 -0.105698
C47   C     C_R   0.638933 0.811423 0.794434 -0.169977
C48   C     C_R   0.693067 0.758800 0.806802 -0.079686
C49   C     C_R   0.699286 0.640113 0.867461 -0.064292
C50   C     C_R   0.651355 0.572728 0.913407 -0.159188
H19   H     H_    0.549563 0.788291 0.835754 0.120426
H20   H     H_    0.634194 0.904067 0.749161 0.128425
H21   H     H_    0.730206 0.810191 0.770165 0.152601
H22   H     H_    0.741194 0.599534 0.877095 0.152636
H23   H     H_    0.657047 0.480281 0.958577 0.093314
C51   C     C_R   0.402736 0.379446 0.103557 0.112691
C52   C     C_R   0.349129 0.437325 0.098263 -0.119448
C53   C     C_R   0.300939 0.375254 0.151242 -0.104672
C54   C     C_R   0.305915 0.255611 0.210497 -0.107591
C55   C     C_R   0.358970 0.196914 0.214698 -0.167167
C56   C     C_R   0.407122 0.258086 0.160313 -0.112135
H24   H     H_    0.344544 0.530764 0.054840 0.138975
H25   H     H_    0.259806 0.420405 0.147450 0.144827
H26   H     H_    0.268647 0.208249 0.252611 0.161952
H27   H     H_    0.362718 0.103811 0.259504 0.135638
H28   H     H_    0.447749 0.210818 0.161881 0.120120
C57   C     C_R   0.202535 0.668257 0.334803 0.164139
C58   C     C_R   0.166607 0.623692 0.225475 -0.175439
C59   C     C_R   0.133913 0.707986 0.147099 -0.115176
C60   C     C_R   0.136920 0.837194 0.177071 -0.105034
C61   C     C_R   0.172693 0.882347 0.285349 -0.156807
C62   C     C_R   0.205431 0.798331 0.364024 -0.038664
H29   H     H_    0.164121 0.523997 0.200443 0.149946
H30   H     H_    0.106309 0.673154 0.062960 0.143975
H31   H     H_    0.111578 0.902322 0.116321 0.132752
H32   H     H_    0.174983 0.982443 0.308485 0.155096
H33   H     H_    0.232675 0.834398 0.448339 0.144140
C63   C     C_R   0.801566 0.587215 0.285893 0.169032
C64   C     C_R   0.835217 0.695896 0.307855 -0.133972
C65   C     C_R   0.871024 0.739608 0.200454 -0.151501
C66   C     C_R   0.873483 0.675062 0.070864 -0.077579
C67   C     C_R   0.839968 0.566988 0.048256 -0.140835
C68   C     C_R   0.803807 0.523479 0.155030 -0.106378
H34   H     H_    0.833814 0.746370 0.407984 0.160850
H35   H     H_    0.897027 0.823246 0.217872 0.140606
H36   H     H_    0.901389 0.708714 0.988111 0.140479
H37   H     H_    0.842048 0.516795 0.948074 0.151794
H38   H     H_    0.778253 0.439215 0.136683 0.131289
O13   O     O_3   0.321981 0.681351 0.337997 -0.753006
H39   H     H_    0.361641 0.696292 0.370415 0.316307
O14   O     O_3   0.682270 0.601718 0.276539 -0.723654
H40   H     H_    0.659257 0.537351 0.224878 0.326172

loop_
_geom_bond_atom_site_label_1
_geom_bond_atom_site_label_2
_ccdc_geom_bond_type
C59   H30   S    
C52   C53   A    
C8    C24   S    
C18   C21   S    
C61   H32   S    
C36   C42   A    
C54   C55   A    
C34   N2    A    
C45   C46   A    
C33   N1    A    
C68   H38   S    
Cu2   N4    S    
C1    O3    A    
C16   H16   S    
Cu1   O8    S    
C26   N3    S    
C4    C63   S    
C28   C29   S    
C28   N4    S    
C6    O14   S    
C50   H23   S    
C49   C50   A    
C58   H29   S    
C60   C61   A    
C3    C57   S    
C46   H19   S    
C65   C66   A    
Cu1   O5    S    
C67   C68   A    
C58   C59   A    
C34   O12   S    
C29   N3    S    
C28   H4    S    
C43   H7    S    
C40   C43   A    
Cu1   N3    S    
C61   C62   A    
C57   C62   A    
C9    H9    S    
C10   H10   S    
C18   C20   S    
C45   C50   A    
C3    C13   A    
C13   N2    S    
C12   H12   S    
C47   H20   S    
C55   H27   S    
Cu1   O4    S    
C25   C29   S    
C41   C43   A    
C25   N4    S    
C42   C44   A    
C23   O5    A    
C2    O4    A    
Cu2   O7    S    
C51   C56   A    
C31   O9    S    
C60   H31   S    
C41   H1    S    
C15   C20   S    
Cu2   O2    S    
C65   H35   S    
Cu1   O1    S    
C48   C49   A    
C4    C6    A    
C63   C64   A    
C23   O7    A    
C5    C7    A    
C31   N1    A    
C54   H26   S    
C24   O8    A    
C6    C8    A    
Cu1   Cu2   S    
C22   H18   S    
C1    O1    A    
C62   H33   S    
C66   H36   S    
C25   H5    S    
C29   C45   S    
C37   C38   A    
C26   H6    S    
C47   C48   A    
C55   C56   A    
C15   H15   S    
C16   C18   S    
C42   H2    S    
C9    C11   A    
Cu2   O3    S    
C10   C12   A    
C17   H13   S    
C30   C51   S    
C12   C14   A    
C64   H34   S    
O13   H39   S    
C48   H21   S    
C17   C19   S    
O14   H40   S    
Cu2   O6    S    
C27   H3    S    
C35   C37   A    
C32   N2    A    
C18   H14   S    
C7    C9    A    
C1    C20   S    
C16   C22   S    
C19   C21   S    
C2    C19   S    
C33   O11   S    
C56   H28   S    
C20   C22   S    
C3    C5    A    
C49   H22   S    
C15   C17   S    
C39   C44   A    
C25   C27   S    
C59   C60   A    
C26   C28   S    
C17   C22   S    
C36   C38   A    
C37   C39   A    
C2    O2    A    
C66   C67   A    
C38   C40   A    
C11   C13   A    
C24   O6    A    
C63   C68   A    
C53   H25   S    
C16   C19   S    
C7    C23   S    
C51   C52   A    
C33   C35   A    
C14   N1    S    
C31   C39   A    
C34   C36   A    
C67   H37   S    
C32   C40   A    
C4    C14   A    
C53   C54   A    
C35   C41   A    
C21   H17   S    
C27   N3    S    
C32   O10   S    
C44   H8    S    
C15   C21   S    
C8    C10   A    
C46   C47   A    
C5    O13   S    
C57   C58   A    
C11   H11   S    
C52   H24   S    
C30   N4    S    
C64   C65   A    
C27   C30   S    
C26   C30   S    
