data_mof_unit_28362.cif
_audit_creation_date              2012-12-10T18:51:35-0500
_audit_creation_method            fapswitch 2.2
_symmetry_space_group_name_H-M    P1
_symmetry_Int_Tables_number       1
_space_group_crystal_system       triclinic
_cell_length_a                    10.666056
_cell_length_b                    9.871034
_cell_length_c                    10.547413
_cell_angle_alpha                 90.348415
_cell_angle_beta                  90.307676
_cell_angle_gamma                 90.066961
_cell_volume                      1110.44704853

loop_
_atom_site_label
_atom_site_type_symbol
_atom_type_description
_atom_site_fract_x
_atom_site_fract_y
_atom_site_fract_z
_atom_type_partial_charge
C1    C     C_R   0.872366 0.500073 0.500045 -0.010347
C2    C     C_3   0.465667 0.375297 0.036452 0.182664
C3    C     C_3   0.386579 0.469676 0.953029 0.171414
C4    C     C_3   0.613420 0.530325 0.046971 0.171408
C5    C     C_3   0.505494 0.502109 0.876118 -0.291873
C6    C     C_3   0.494506 0.497891 0.123882 -0.291869
C7    C     C_R   0.581599 0.072396 0.575139 -0.070960
C8    C     C_R   0.418400 0.927604 0.424861 -0.070961
C9    C     C_R   0.418477 0.071273 0.424760 -0.083802
C10   C     C_R   0.581522 0.928727 0.575240 -0.083802
C11   C     C_R   0.064377 0.389207 0.550919 -0.199460
C12   C     C_R   0.127634 0.499927 0.499955 -0.010348
C13   C     C_R   0.935623 0.610793 0.449081 -0.199462
C14   C     C_R   0.935909 0.389268 0.550953 -0.189447
C15   C     C_R   0.064091 0.610732 0.449047 -0.189447
C16   C     C_3   0.164700 0.410295 0.981175 -0.770733
C17   C     C_3   0.835300 0.589703 0.018822 -0.770692
C18   C     C_3   0.257839 0.767492 0.994452 -0.829504
C19   C     C_3   0.742158 0.232507 0.005553 -0.829502
C20   C     C_3   0.603986 0.855298 0.017088 -0.812747
C21   C     C_3   0.396020 0.144701 0.982907 -0.812757
C22   C     C_R   0.260066 0.499952 0.499985 0.858784
C23   C     C_R   0.739933 0.500048 0.500015 0.858780
C24   C     C_R   0.495119 0.499387 0.257933 0.923221
C25   C     C_R   0.504881 0.500613 0.742067 0.923221
C26   C     C_3   0.415474 0.592123 0.038851 0.149685
C27   C     C_3   0.584526 0.407878 0.961148 0.149690
C28   C     C_3   0.534332 0.624703 0.963548 0.182654
H1    H     H_    0.647231 0.127007 0.634960 0.114314
H2    H     H_    0.917702 0.627517 0.073250 0.230882
H3    H     H_    0.808750 0.667753 0.948465 0.269288
H4    H     H_    0.862470 0.495822 0.967770 0.254779
H5    H     H_    0.359241 0.746717 0.161283 0.238253
H6    H     H_    0.187499 0.832170 0.042880 0.235965
H7    H     H_    0.207455 0.701489 0.926047 0.258396
H8    H     H_    0.323032 0.833681 0.941932 0.242959
H9    H     H_    0.640765 0.253288 0.838716 0.238251
H10   H     H_    0.812507 0.167838 0.957129 0.235968
H11   H     H_    0.676962 0.166310 0.058061 0.242957
H12   H     H_    0.352769 0.872993 0.365040 0.114315
H13   H     H_    0.792529 0.298508 0.073969 0.258391
H14   H     H_    0.517232 0.796181 0.849392 0.245010
H15   H     H_    0.647946 0.944709 0.972390 0.232613
H16   H     H_    0.671536 0.813961 0.086854 0.282938
H17   H     H_    0.518200 0.887732 0.067596 0.242240
H18   H     H_    0.482764 0.203819 0.150607 0.245011
H19   H     H_    0.352057 0.055289 0.027601 0.232615
H20   H     H_    0.481808 0.112268 0.932404 0.242242
H21   H     H_    0.328473 0.186038 0.913137 0.282934
H22   H     H_    0.114025 0.304052 0.591706 0.158974
H23   H     H_    0.353195 0.125033 0.364514 0.133790
H24   H     H_    0.885975 0.695948 0.408294 0.158972
H25   H     H_    0.886491 0.304107 0.591726 0.150611
H26   H     H_    0.113509 0.695893 0.408274 0.150611
H27   H     H_    0.646805 0.874966 0.635487 0.133790
H28   H     H_    0.242758 0.497926 0.820038 0.216694
H29   H     H_    0.082283 0.372533 0.926743 0.230878
H30   H     H_    0.137562 0.504158 0.032269 0.254797
H31   H     H_    0.191234 0.332204 0.051495 0.269292
H32   H     H_    0.757241 0.502085 0.179966 0.216691
N1    N     N_R   0.500000 0.857200 0.500000 -0.080516
N2    N     N_R   0.500000 0.142800 0.500000 -0.080516
N3    N     N_2   0.266839 0.436352 0.894842 -0.298461
N4    N     N_2   0.733160 0.563652 0.105156 -0.298465
N5    N     N_2   0.324793 0.688318 0.087794 -0.296255
N6    N     N_2   0.675209 0.311684 0.912208 -0.296250
N7    N     N_2   0.573698 0.756889 0.919524 -0.294045
N8    N     N_2   0.426301 0.243110 0.080473 -0.294042
O1    O     O_R   0.316770 0.614620 0.499990 -0.629630
O2    O     O_R   0.683230 0.385380 0.500010 -0.629630
O3    O     O_R   0.683230 0.614620 0.500010 -0.622782
O4    O     O_R   0.316770 0.385380 0.499990 -0.622781
O5    O     O_R   0.499970 0.614650 0.313950 -0.622489
O6    O     O_R   0.500030 0.385350 0.686050 -0.622488
O7    O     O_R   0.500030 0.614650 0.686050 -0.629647
O8    O     O_R   0.499970 0.385350 0.313950 -0.629647
Zn1   Zn    Zn3+2 0.500000 0.653120 0.500000 0.939205
Zn2   Zn    Zn3+2 0.500000 0.346880 0.500000 0.939206

loop_
_geom_bond_atom_site_label_1
_geom_bond_atom_site_label_2
_ccdc_geom_bond_type
C7    C10   A    
C7    H1    S    
O2    Zn2   S    
C20   N7    S    
O1    Zn1   S    
C9    H23   S    
C4    C27   S    
C21   H21   S    
H5    N5    S    
C18   N5    S    
O8    Zn2   S    
C2    N8    S    
C17   N4    S    
C11   C14   A    
C24   O5    A    
C5    C28   S    
C12   C22   S    
C19   N6    S    
C25   O6    A    
O4    Zn2   S    
C4    C28   S    
C5    C27   S    
N1    Zn1   S    
C8    C9    A    
C2    C27   S    
C16   N3    S    
C18   H7    S    
C22   O1    A    
C20   H17   S    
C8    N1    A    
C21   H20   S    
C17   H2    S    
C23   O2    A    
C2    C6    S    
C22   O4    A    
C20   H16   S    
C9    N2    A    
C15   H26   S    
C23   O3    A    
C28   N7    S    
C4    C6    S    
C24   O8    A    
C25   O7    A    
C16   H31   S    
C7    N2    A    
H18   N8    S    
C19   H10   S    
C13   H24   S    
C18   H6    S    
C12   C15   A    
C6    C24   S    
H9    N6    S    
H28   N3    S    
C16   H30   S    
C10   H27   S    
O7    Zn1   S    
C19   H11   S    
C5    C25   S    
C1    C23   S    
C13   C15   A    
C21   N8    S    
H14   N7    S    
C17   H3    S    
C10   N1    A    
C1    C13   A    
O3    Zn1   S    
C20   H15   S    
C26   N5    S    
N2    Zn2   S    
C3    C26   S    
C3    C5    S    
C11   C12   A    
C3    N3    S    
C4    N4    S    
C26   C28   S    
H32   N4    S    
C2    C3    S    
C27   N6    S    
C6    C26   S    
C16   H29   S    
C14   H25   S    
O6    Zn2   S    
C11   H22   S    
C17   H4    S    
O5    Zn1   S    
C1    C14   A    
C8    H12   S    
C18   H8    S    
C19   H13   S    
C21   H19   S    
