data_mof_unit_11928.cif
_audit_creation_date              2012-12-10T19:09:35-0500
_audit_creation_method            fapswitch 2.2
_symmetry_space_group_name_H-M    P1
_symmetry_Int_Tables_number       1
_space_group_crystal_system       triclinic
_cell_length_a                    9.541432
_cell_length_b                    10.828457
_cell_length_c                    17.093929
_cell_angle_alpha                 88.974381
_cell_angle_beta                  93.914575
_cell_angle_gamma                 90.51791
_cell_volume                      1761.67055452

loop_
_atom_site_label
_atom_site_type_symbol
_atom_type_description
_atom_site_fract_x
_atom_site_fract_y
_atom_site_fract_z
_atom_type_partial_charge
C1    C     C_R   0.499660 0.262328 0.502289 0.801011
C2    C     C_R   0.647076 0.462332 0.779041 -0.284788
C3    C     C_R   0.589940 0.503157 0.141445 -0.159706
C4    C     C_R   0.596726 0.498272 0.222852 -0.243355
C5    C     C_R   0.458887 0.513031 0.098382 0.383838
C6    C     C_R   0.473548 0.503510 0.262983 -0.027120
C7    C     C_R   0.343022 0.512207 0.220177 -0.221313
C8    C     C_R   0.336190 0.517526 0.138477 -0.196478
C9    C     C_R   0.625685 0.064911 0.518018 0.121496
C10   C     C_R   0.499394 0.129244 0.511612 -0.094524
C11   C     C_R   0.373014 0.062911 0.516947 -0.216089
C12   C     C_R   0.517438 0.501108 0.650745 0.805371
C13   C     C_R   0.373701 0.934107 0.516437 -0.233230
C14   C     C_R   0.500746 0.870786 0.510583 -0.098580
C15   C     C_R   0.626530 0.937793 0.517440 0.129298
C16   C     C_3   0.750800 0.936149 0.468885 -0.484848
C17   C     C_3   0.750151 0.076085 0.470048 -0.451478
C18   C     C_R   0.065967 0.530089 0.433420 0.256820
C19   C     C_R   0.081608 0.457900 0.563271 -0.070630
C20   C     C_R   0.932885 0.458027 0.563307 -0.080500
C21   C     C_R   0.918525 0.529128 0.433196 0.256373
C22   C     C_3   0.908256 0.647826 0.387955 -0.511666
C23   C     C_R   0.500494 0.737795 0.501760 0.785550
C24   C     C_3   0.067346 0.649609 0.388935 -0.495604
C25   C     C_R   0.482607 0.501438 0.349042 0.799996
C26   C     C_R   0.527716 0.508969 0.736403 -0.137130
C27   C     C_R   0.419547 0.563186 0.776499 0.411932
C28   C     C_R   0.427595 0.559881 0.858252 -0.232062
C29   C     C_R   0.545590 0.508807 0.900812 0.316321
C30   C     C_R   0.655979 0.463103 0.860573 -0.195104
Cu1   Cu    Cu3+1 0.640670 0.499980 0.500000 0.937669
Cu2   Cu    Cu3+1 0.359330 0.500020 0.500000 0.943911
H1    H     H_    0.698788 0.490456 0.254234 0.153786
H2    H     H_    0.274270 0.885094 0.516542 0.157371
H3    H     H_    0.844716 0.896053 0.501690 0.195504
H4    H     H_    0.724827 0.898859 0.409405 0.198580
H5    H     H_    0.842962 0.116107 0.503745 0.196098
H6    H     H_    0.724614 0.119427 0.411379 0.201488
H7    H     H_    0.142690 0.425126 0.614926 0.165990
H8    H     H_    0.883692 0.425414 0.614977 0.142218
H9    H     H_    0.856320 0.636475 0.328338 0.191239
H10   H     H_    0.865813 0.722452 0.422363 0.214607
H11   H     H_    0.106728 0.639728 0.329767 0.189548
H12   H     H_    0.687382 0.499796 0.112633 0.150591
H13   H     H_    0.116653 0.725909 0.424043 0.211525
H14   H     H_    0.747888 0.425057 0.892719 0.153419
H15   H     H_    0.732257 0.422580 0.749364 0.171869
H16   H     H_    0.246350 0.515316 0.249635 0.150202
H17   H     H_    0.341943 0.598537 0.888030 0.167120
H18   H     H_    0.234859 0.524947 0.106163 0.138782
H19   H     H_    0.273290 0.109850 0.517172 0.165378
N1    N     N_2   0.558024 0.502245 0.983826 -0.254248
N2    N     N_2   0.445869 0.519458 0.015264 -0.262137
N3    N     N_R   0.147870 0.500930 0.499500 -0.191591
N4    N     N_R   0.851960 0.500890 0.499500 -0.185129
O1    O     O_R   0.618810 0.319640 0.500000 -0.579681
O2    O     O_R   0.381230 0.319680 0.499990 -0.585183
O3    O     O_R   0.631790 0.498830 0.613930 -0.594238
O4    O     O_R   0.394210 0.498870 0.613920 -0.557072
O5    O     O_R   0.618770 0.680320 0.500010 -0.573694
O6    O     O_R   0.381190 0.680360 0.500000 -0.593134
O7    O     O_R   0.605790 0.501130 0.386080 -0.584907
O8    O     O_R   0.368210 0.501170 0.386070 -0.582430
O9    O     O_3   0.300915 0.613006 0.737118 -0.611135
C31   C     C_3   0.332487 0.731054 0.705407 0.102021
H20   H     H_    0.261328 0.745625 0.651890 0.176796
H21   H     H_    0.441756 0.739714 0.686323 0.106471
C32   C     C_3   0.305456 0.832347 0.763780 -0.386404
H22   H     H_    0.196587 0.822943 0.782602 0.231391
H23   H     H_    0.379861 0.822272 0.816356 0.215275
C33   C     C_3   0.324443 0.960602 0.727279 -0.895982
H24   H     H_    0.432532 0.971928 0.707649 0.261771
H25   H     H_    0.307127 0.032003 0.771347 0.258633
H26   H     H_    0.247302 0.974739 0.676312 0.253908

loop_
_geom_bond_atom_site_label_1
_geom_bond_atom_site_label_2
_ccdc_geom_bond_type
Cu1   O5    S    
C18   C21   A    
C19   C20   A    
C7    C8    A    
C26   C27   A    
C18   C24   S    
C24   H13   S    
Cu1   O3    S    
C5    N2    S    
C28   C29   A    
C1    O1    A    
Cu2   O6    S    
C16   H3    S    
C20   H8    S    
C22   H9    S    
C15   C16   S    
C25   O8    A    
C13   H2    S    
C12   O4    A    
C16   C17   S    
C31   H21   S    
Cu1   O1    S    
C9    C10   A    
C17   H6    S    
C12   O3    A    
C21   C22   S    
Cu1   O7    S    
Cu2   O2    S    
C20   N4    A    
Cu2   N3    S    
C23   O5    A    
C3    H12   S    
C4    C6    A    
C27   O9    S    
C33   H25   S    
C32   H22   S    
C12   C26   S    
C14   C23   S    
C29   C30   A    
C1    O2    A    
C5    C8    A    
C28   H17   S    
Cu1   Cu2   S    
C31   C32   S    
C2    C26   A    
C17   H5    S    
C19   H7    S    
C19   N3    A    
C9    C17   S    
C22   C24   S    
C3    C4    A    
C8    H18   S    
N1    N2    D    
C21   N4    A    
C4    H1    S    
C30   H14   S    
C1    C10   S    
Cu2   O8    S    
C3    C5    A    
C33   H26   S    
C6    C7    A    
C2    H15   S    
C2    C30   A    
C7    H16   S    
C9    C15   A    
C33   H24   S    
O9    C31   S    
C11   C13   A    
C22   H10   S    
C32   C33   S    
C25   O7    A    
C11   H19   S    
C10   C11   A    
C18   N3    A    
C6    C25   S    
C23   O6    A    
C32   H23   S    
C31   H20   S    
C27   C28   A    
C24   H11   S    
C14   C15   A    
Cu2   O4    S    
Cu1   N4    S    
C13   C14   A    
C16   H4    S    
C29   N1    S    
