data_mof_unit_63080.cif
_audit_creation_date              2012-12-10T18:35:39-0500
_audit_creation_method            fapswitch 2.2
_symmetry_space_group_name_H-M    P1
_symmetry_Int_Tables_number       1
_space_group_crystal_system       triclinic
_cell_length_a                    25.648446
_cell_length_b                    36.128427
_cell_length_c                    22.159519
_cell_angle_alpha                 89.948685
_cell_angle_beta                  125.356164
_cell_angle_gamma                 90.087028
_cell_volume                      16746.7903187

loop_
_atom_site_label
_atom_site_type_symbol
_atom_type_description
_atom_site_fract_x
_atom_site_fract_y
_atom_site_fract_z
_atom_type_partial_charge
C1    C     C_R   0.608170 0.249924 0.000092 0.779468
C2    C     C_3   0.722022 0.478508 0.040082 -0.358186
C3    C     C_1   0.077673 0.249381 0.655145 -0.035442
C4    C     C_1   0.611066 0.250242 0.721770 -0.105543
C5    C     C_1   0.610981 0.749829 0.721742 -0.108400
C6    C     C_1   0.111071 0.750243 0.721770 -0.106368
C7    C     C_1   0.110971 0.249832 0.721741 -0.107850
C8    C     C_3   0.744926 0.021454 0.063814 -0.053758
C9    C     C_3   0.752178 0.978214 0.068571 -0.044683
C10   C     C_3   0.255615 0.521664 0.070737 -0.044678
C11   C     C_3   0.248395 0.478413 0.066233 -0.053538
C12   C     C_3   0.809981 0.021378 0.010114 -0.378795
C13   C     C_3   0.220138 0.021375 0.037987 -0.357649
C14   C     C_3   0.806300 0.978778 0.001704 -0.352795
C15   C     C_3   0.304409 0.521379 0.997960 -0.352606
C16   C     C_3   0.308404 0.478775 0.006306 -0.378501
C17   C     C_1   0.749768 0.889165 0.999823 -0.120688
C18   C     C_1   0.749738 0.110834 0.999981 -0.120713
C19   C     C_1   0.249780 0.389166 0.999853 -0.120893
C20   C     C_1   0.249755 0.610834 0.999981 -0.120418
C21   C     C_3   0.748637 0.036748 0.999861 0.157685
C22   C     C_3   0.748632 0.963263 0.999529 0.151892
C23   C     C_3   0.248662 0.536734 0.999687 0.151545
C24   C     C_3   0.220191 0.978506 0.038033 -0.358079
C25   C     C_3   0.248712 0.463249 0.999879 0.157276
C26   C     C_3   0.684832 0.978410 0.928549 -0.268289
C27   C     C_3   0.687948 0.021853 0.925103 -0.266197
C28   C     C_3   0.186344 0.478111 0.926832 -0.265792
C29   C     C_3   0.183498 0.521537 0.930692 -0.268147
C30   C     C_1   0.749381 0.922465 0.999715 -0.084967
C31   C     C_1   0.749353 0.077534 0.999960 -0.095522
C32   C     C_1   0.249417 0.422465 0.999861 -0.095383
C33   C     C_1   0.249381 0.577534 0.999899 -0.084795
C34   C     C_R   0.650396 0.249959 0.800925 0.829210
C35   C     C_1   0.749185 0.577470 0.998466 -0.098030
C36   C     C_R   0.650380 0.750043 0.800893 0.832624
C37   C     C_R   0.150395 0.749958 0.800925 0.829150
C38   C     C_R   0.150382 0.250041 0.800892 0.832833
C39   C     C_R   0.749988 0.150411 0.000071 0.826909
C40   C     C_R   0.749999 0.849589 0.000020 0.826024
C41   C     C_R   0.249992 0.650411 0.000073 0.825532
C42   C     C_R   0.249995 0.349589 0.000018 0.827827
C43   C     C_R   0.749957 0.349532 0.999997 0.827439
C44   C     C_R   0.749899 0.650468 0.999946 0.827210
C45   C     C_R   0.249957 0.849532 0.999998 0.827594
C46   C     C_1   0.749351 0.422530 0.998606 -0.098352
C47   C     C_R   0.249899 0.150468 0.999946 0.827114
C48   C     C_3   0.706894 0.478178 0.915137 -0.236438
C49   C     C_3   0.706854 0.521783 0.915094 -0.236604
C50   C     C_3   0.208635 0.978181 0.915111 -0.236483
C51   C     C_3   0.208587 0.021786 0.915069 -0.236664
C52   C     C_3   0.816953 0.478583 0.035171 -0.414941
C53   C     C_3   0.816904 0.521572 0.035139 -0.414572
C54   C     C_3   0.317209 0.978583 0.037176 -0.414852
C55   C     C_3   0.317159 0.021571 0.037137 -0.414727
C56   C     C_1   0.749765 0.610812 0.999441 -0.114747
C57   C     C_1   0.249202 0.077470 0.998438 -0.098240
C58   C     C_1   0.749930 0.389188 0.999582 -0.115279
C59   C     C_1   0.249769 0.110812 0.999428 -0.114951
C60   C     C_1   0.249934 0.889188 0.999567 -0.115175
C61   C     C_2   0.527654 0.322490 0.569501 1.002228
C62   C     C_2   0.528676 0.677873 0.570644 0.999409
C63   C     C_2   0.029731 0.822589 0.569506 1.002359
C64   C     C_2   0.024065 0.178171 0.570641 0.999116
C65   C     C_2   0.484524 0.322527 0.415372 0.967728
C66   C     C_2   0.482139 0.677195 0.416253 0.964280
C67   C     C_2   0.986598 0.822138 0.415378 0.967641
C68   C     C_1   0.249368 0.922530 0.998577 -0.098290
C69   C     C_2   0.977430 0.176506 0.416248 0.964432
C70   C     C_2   0.681539 0.036785 0.856764 0.975013
C71   C     C_2   0.662733 0.958363 0.856949 0.969280
C72   C     C_2   0.158516 0.541656 0.858275 0.969146
C73   C     C_2   0.176675 0.463290 0.856641 0.974228
C74   C     C_2   0.641219 0.460177 0.866240 0.953190
C75   C     C_2   0.641150 0.539656 0.866141 0.953086
C76   C     C_2   0.143145 0.960177 0.864514 0.953144
C77   C     C_2   0.143059 0.039656 0.864433 0.952947
C78   C     C_3   0.007865 0.274851 0.049722 -0.129151
C79   C     C_3   0.973302 0.716153 0.981753 -0.174152
C80   C     C_3   0.507865 0.774851 0.049722 -0.129036
C81   C     C_R   0.608104 0.750012 0.999959 0.780066
C82   C     C_3   0.473302 0.216154 0.981753 -0.175190
C83   C     C_3   0.508304 0.783868 0.981773 -0.174907
C84   C     C_3   0.483533 0.240853 0.932333 -0.175172
C85   C     C_3   0.008303 0.283867 0.981772 -0.175399
C86   C     C_3   0.983532 0.740852 0.932333 -0.174528
C87   C     C_3   0.550769 0.749904 0.999772 0.049100
C88   C     C_3   0.551020 0.249846 0.000274 0.050013
C89   C     C_3   0.050769 0.249904 0.999772 0.049507
C90   C     C_3   0.051019 0.749846 0.000273 0.049500
C91   C     C_3   0.551186 0.740865 0.067676 -0.177718
C92   C     C_R   0.108170 0.749923 0.000092 0.779901
C93   C     C_3   0.541689 0.225126 0.049737 -0.129870
C94   C     C_3   0.051186 0.240866 0.067676 -0.177765
C95   C     C_3   0.041689 0.725126 0.049736 -0.129690
C96   C     C_3   0.991599 0.216131 0.018222 -0.177048
C97   C     C_3   0.016369 0.759149 0.067660 -0.178977
C98   C     C_3   0.491598 0.716131 0.018221 -0.176644
C99   C     C_3   0.516370 0.259149 0.067661 -0.178686
C100  C     C_3   0.492037 0.725148 0.950271 -0.127942
C101  C     C_3   0.526600 0.283847 0.018241 -0.175953
C102  C     C_3   0.992037 0.225147 0.950272 -0.127983
C103  C     C_R   0.108104 0.250012 0.999960 0.779892
C104  C     C_3   0.026599 0.783847 0.018239 -0.175858
C105  C     C_3   0.948715 0.259133 0.932318 -0.175267
C106  C     C_3   0.958212 0.774875 0.950257 -0.126974
C107  C     C_3   0.448715 0.759134 0.932318 -0.175135
C108  C     C_3   0.458213 0.274875 0.950258 -0.127176
C109  C     C_R   0.891800 0.249984 0.000040 0.785838
C110  C     C_R   0.891734 0.750079 0.999907 0.786570
C111  C     C_R   0.391800 0.749984 0.000040 0.786391
C112  C     C_R   0.391734 0.250080 0.999908 0.785961
C113  C     C_3   0.949133 0.250095 0.000224 0.047994
C114  C     C_3   0.747927 0.463336 0.996641 0.239978
C115  C     C_3   0.948883 0.750154 0.999722 0.046911
C116  C     C_3   0.449133 0.750095 0.000223 0.047533
C117  C     C_3   0.448883 0.250155 0.999722 0.047635
C118  C     C_3   0.463917 0.248572 0.541788 -0.127245
C119  C     C_3   0.463964 0.752327 0.541839 -0.118583
C120  C     C_3   0.963883 0.749405 0.541787 -0.127601
C121  C     C_3   0.964182 0.254184 0.541836 -0.117977
C122  C     C_3   0.552926 0.218082 0.541460 -0.102181
C123  C     C_3   0.552218 0.782636 0.542046 -0.109418
C124  C     C_3   0.051999 0.717633 0.541461 -0.100855
C125  C     C_3   0.747841 0.536662 0.996568 0.239632
C126  C     C_3   0.054289 0.281611 0.542052 -0.110453
C127  C     C_3   0.503783 0.216392 0.456018 -0.431521
C128  C     C_3   0.504910 0.783290 0.455993 -0.446963
C129  C     C_3   0.002809 0.716038 0.456018 -0.431939
C130  C     C_3   0.007034 0.282403 0.455998 -0.446699
C131  C     C_1   0.389456 0.250490 0.278259 -0.115247
C132  C     C_1   0.389452 0.749524 0.278287 -0.116343
C133  C     C_1   0.889467 0.750494 0.278260 -0.115048
C134  C     C_1   0.889430 0.249529 0.278287 -0.116601
C135  C     C_3   0.536990 0.251933 0.573430 0.189444
C136  C     C_3   0.247974 0.963337 0.996592 0.239934
C137  C     C_3   0.536761 0.748406 0.573336 0.223076
C138  C     C_3   0.037040 0.751938 0.573432 0.189634
C139  C     C_3   0.036665 0.248419 0.573336 0.222968
C140  C     C_3   0.422262 0.254616 0.456453 -0.366351
C141  C     C_3   0.422163 0.746181 0.456552 -0.366915
C142  C     C_3   0.922403 0.755435 0.456453 -0.366042
C143  C     C_3   0.921987 0.248021 0.456549 -0.367276
C144  C     C_3   0.463896 0.252632 0.426417 0.170864
C145  C     C_3   0.463830 0.747465 0.426446 0.184753
C146  C     C_3   0.963968 0.752634 0.426418 0.170774
C147  C     C_3   0.247888 0.036662 0.996520 0.239808
C148  C     C_3   0.963676 0.247467 0.426446 0.184915
C149  C     C_3   0.511793 0.286172 0.456951 -0.280691
C150  C     C_3   0.510792 0.713670 0.456846 -0.282275
C151  C     C_3   0.012820 0.785696 0.456956 -0.280750
C152  C     C_3   0.008425 0.212673 0.456841 -0.282172
C153  C     C_3   0.548584 0.289450 0.544461 -0.029800
C154  C     C_3   0.548422 0.711035 0.544422 -0.040834
C155  C     C_3   0.049706 0.789072 0.544466 -0.030059
C156  C     C_3   0.045898 0.210241 0.544419 -0.040563
C157  C     C_R   0.849499 0.249935 0.199117 0.818516
C158  C     C_3   0.721960 0.521376 0.040027 -0.357687
C159  C     C_R   0.849481 0.750062 0.199084 0.816143
C160  C     C_R   0.349499 0.749936 0.199117 0.818482
C161  C     C_R   0.349481 0.250063 0.199084 0.816114
C162  C     C_1   0.422967 0.251283 0.344856 -0.025035
C163  C     C_1   0.422938 0.748761 0.344882 -0.027794
C164  C     C_1   0.923000 0.751287 0.344857 -0.024907
C165  C     C_1   0.922868 0.248767 0.344882 -0.027970
C166  C     C_1   0.577858 0.250801 0.655174 -0.035566
C167  C     C_1   0.577710 0.749373 0.655145 -0.035271
C168  C     C_1   0.077876 0.750804 0.655175 -0.035421
H1    H     H_    0.732711 0.530341 0.890586 0.131986
H2    H     H_    0.549491 0.311585 0.033198 0.139633
H3    H     H_    0.047905 0.142314 0.652868 0.360939
H4    H     H_    0.624496 0.321051 0.564171 0.220917
H5    H     H_    0.635465 0.276163 0.559686 0.164982
H6    H     H_    0.624546 0.680612 0.562185 0.222882
H7    H     H_    0.634169 0.725892 0.558619 0.165539
H8    H     H_    0.126513 0.819714 0.564182 0.220935
H9    H     H_    0.136192 0.774643 0.559696 0.164959
H10   H     H_    0.119998 0.177673 0.562180 0.223237
H11   H     H_    0.132509 0.222540 0.558605 0.165299
H12   H     H_    0.407193 0.353961 0.345260 0.353049
H13   H     H_    0.986383 0.204739 0.909438 0.155239
H14   H     H_    0.403682 0.646225 0.347234 0.353845
H15   H     H_    0.910181 0.854184 0.345276 0.353304
H16   H     H_    0.897027 0.146993 0.347227 0.353487
H17   H     H_    0.466467 0.265761 0.632014 0.189177
H18   H     H_    0.395595 0.271132 0.551469 0.195803
H19   H     H_    0.395151 0.730657 0.551671 0.197505
H20   H     H_    0.466021 0.735989 0.632186 0.188531
H21   H     H_    0.966933 0.767203 0.632014 0.189556
H22   H     H_    0.896224 0.773016 0.551467 0.196204
H23   H     H_    0.894054 0.234922 0.551659 0.197237
H24   H     H_    0.049490 0.811585 0.033196 0.139876
H25   H     H_    0.965231 0.239253 0.632178 0.188015
H26   H     H_    0.851240 0.975705 0.145981 0.203015
H27   H     H_    0.811720 0.937275 0.142272 0.193498
H28   H     H_    0.835275 0.041702 0.147533 0.198794
H29   H     H_    0.773786 0.066194 0.134486 0.194274
H30   H     H_    0.339832 0.458265 0.146500 0.198388
H31   H     H_    0.279859 0.433625 0.137189 0.194491
H32   H     H_    0.355127 0.524311 0.143941 0.202763
H33   H     H_    0.316799 0.562636 0.142882 0.193114
H34   H     H_    0.716252 0.039714 0.795189 0.349422
H35   H     H_    0.905679 0.266618 0.876854 0.142385
H36   H     H_    0.683261 0.939167 0.787459 0.346737
H37   H     H_    0.174761 0.561042 0.785122 0.347906
H38   H     H_    0.207012 0.460578 0.790646 0.348141
H39   H     H_    0.555899 0.448809 0.847348 0.351764
H40   H     H_    0.555802 0.550832 0.847198 0.352042
H41   H     H_    0.056675 0.948797 0.842467 0.352221
H42   H     H_    0.056563 0.050820 0.842357 0.352104
H43   H     H_    0.923095 0.795302 0.909415 0.154051
H44   H     H_    0.405679 0.766619 0.876855 0.142794
H45   H     H_    0.423096 0.295303 0.909417 0.153342
H46   H     H_    0.384285 0.233013 0.429578 0.146791
H47   H     H_    0.384785 0.768064 0.429626 0.149858
H48   H     H_    0.883810 0.734192 0.429574 0.146996
H49   H     H_    0.732750 0.469706 0.890627 0.131932
H50   H     H_    0.886045 0.270659 0.429626 0.149799
H51   H     H_    0.453740 0.220268 0.551914 0.141932
H52   H     H_    0.455114 0.781110 0.551958 0.179008
H53   H     H_    0.952898 0.721325 0.551909 0.142096
H54   H     H_    0.957198 0.283388 0.551960 0.179218
H55   H     H_    0.600732 0.222151 0.553088 0.170541
H56   H     H_    0.601659 0.780548 0.557293 0.149976
H57   H     H_    0.099912 0.721095 0.553090 0.170375
H58   H     H_    0.103552 0.278172 0.557306 0.149845
H59   H     H_    0.470940 0.192365 0.439861 0.197977
H60   H     H_    0.235722 0.030349 0.892148 0.131556
H61   H     H_    0.472509 0.807672 0.437294 0.200148
H62   H     H_    0.969284 0.692373 0.439860 0.197885
H63   H     H_    0.976229 0.307509 0.437297 0.200297
H64   H     H_    0.529694 0.211948 0.430081 0.170474
H65   H     H_    0.532538 0.786481 0.431854 0.161892
H66   H     H_    0.028583 0.711031 0.430082 0.170361
H67   H     H_    0.034827 0.284303 0.431865 0.161741
H68   H     H_    0.847985 0.468381 0.093233 0.185096
H69   H     H_    0.847903 0.531800 0.093187 0.185439
H70   H     H_    0.347070 0.968381 0.095299 0.185063
H71   H     H_    0.235784 0.969714 0.892201 0.131762
H72   H     H_    0.346994 0.031800 0.095241 0.185406
H73   H     H_    0.397397 0.281746 0.441748 0.252125
H74   H     H_    0.396580 0.719263 0.442025 0.251633
H75   H     H_    0.898320 0.782813 0.441749 0.252257
H76   H     H_    0.894689 0.221726 0.442014 0.251446
H77   H     H_    0.547192 0.278597 0.445202 0.113693
H78   H     H_    0.545775 0.720449 0.443973 0.114462
H79   H     H_    0.047994 0.777525 0.445210 0.113725
H80   H     H_    0.043796 0.218102 0.443966 0.114279
H81   H     H_    0.817418 0.034096 0.970052 0.224874
H82   H     H_    0.983706 0.188375 0.033156 0.139646
H83   H     H_    0.802276 0.971347 0.950670 0.256269
H84   H     H_    0.297919 0.528897 0.945531 0.256485
H85   H     H_    0.313535 0.466155 0.964385 0.224911
H86   H     H_    0.853347 0.028885 0.065216 0.157436
H87   H     H_    0.851942 0.966162 0.047537 0.152736
H88   H     H_    0.350773 0.534038 0.042212 0.152505
H89   H     H_    0.353053 0.471286 0.060247 0.157486
H90   H     H_    0.645464 0.032704 0.921421 0.124107
H91   H     H_    0.646672 0.972506 0.936883 0.117547
H92   H     H_    0.147110 0.527316 0.941920 0.117718
H93   H     H_    0.028773 0.766651 0.123109 0.139460
H94   H     H_    0.145179 0.467144 0.925912 0.124215
H95   H     H_    0.838084 0.468349 0.006377 0.177645
H96   H     H_    0.838026 0.531900 0.006345 0.177680
H97   H     H_    0.339668 0.968347 0.009877 0.177630
H98   H     H_    0.339599 0.031898 0.009824 0.177344
H99   H     H_    0.696021 0.027531 0.048475 0.126775
H100  H     H_    0.710693 0.966643 0.066163 0.136086
H101  H     H_    0.215469 0.533120 0.071109 0.136397
H102  H     H_    0.200438 0.472224 0.053721 0.127032
H103  H     H_    0.673320 0.467939 0.017119 0.227908
H104  H     H_    0.483705 0.688375 0.033154 0.140106
H105  H     H_    0.673223 0.531820 0.017017 0.228101
H106  H     H_    0.171207 0.967941 0.013523 0.228131
H107  H     H_    0.171126 0.031822 0.013450 0.228185
H108  H     H_    0.752766 0.468505 0.098310 0.159192
H109  H     H_    0.752661 0.531420 0.098230 0.159331
H110  H     H_    0.249748 0.968498 0.096301 0.159102
H111  H     H_    0.249666 0.031413 0.096234 0.159230
H112  H     H_    0.516197 0.811623 0.966838 0.141648
H113  H     H_    0.471129 0.233352 0.876884 0.138505
H114  H     H_    0.016197 0.311623 0.966837 0.140773
H115  H     H_    0.528774 0.266651 0.123111 0.139250
H116  H     H_    0.971129 0.733351 0.876883 0.139273
H117  H     H_    0.013520 0.295260 0.090556 0.151237
H118  H     H_    0.950411 0.688416 0.966794 0.141617
H119  H     H_    0.513520 0.795259 0.090557 0.151506
H120  H     H_    0.450410 0.188417 0.966794 0.140754
H121  H     H_    0.594222 0.733380 0.123139 0.138105
H122  H     H_    0.576807 0.204699 0.090578 0.153214
H123  H     H_    0.094222 0.233381 0.123139 0.137852
H124  H     H_    0.076807 0.704699 0.090578 0.153618
H125  H     H_    0.513467 0.175327 0.567369 0.192378
H126  H     H_    0.486382 0.704740 0.909436 0.155452
H127  H     H_    0.592815 0.182311 0.631197 0.203291
H128  H     H_    0.585950 0.819114 0.628694 0.196011
H129  H     H_    0.556224 0.839480 0.547715 0.198164
H130  H     H_    0.011329 0.675640 0.567371 0.191672
H131  H     H_    0.090869 0.681934 0.631194 0.200834
H132  H     H_    0.090365 0.318362 0.628701 0.197974
H133  H     H_    0.061948 0.338361 0.547727 0.198736
H134  H     H_    0.550564 0.357200 0.652940 0.360794
H135  H     H_    0.554814 0.641517 0.652893 0.361617
H136  H     H_    0.053640 0.857570 0.652939 0.360977
N1    N     N_3   0.556266 0.182057 0.574570 -0.447412
N2    N     N_3   0.444272 0.727366 0.577538 -0.411835
N3    N     N_3   0.945475 0.775442 0.577197 -0.409926
N4    N     N_3   0.942923 0.230461 0.577528 -0.412371
N5    N     N_3   0.809937 0.966170 0.139709 -0.412174
N6    N     N_3   0.789775 0.039381 0.135912 -0.412333
N7    N     N_3   0.295347 0.460480 0.137612 -0.412060
N8    N     N_3   0.314958 0.533741 0.140300 -0.411980
N9    N     N_3   0.548136 0.817743 0.572597 -0.460289
N10   N     N_3   0.054310 0.681804 0.574568 -0.449719
N11   N     N_3   0.052479 0.317310 0.572603 -0.458995
N12   N     N_3   0.617556 0.294965 0.579079 -0.442626
N13   N     N_3   0.617325 0.706295 0.578081 -0.441548
N14   N     N_3   0.118823 0.793840 0.579087 -0.442494
N15   N     N_3   0.114439 0.203823 0.578073 -0.441468
N16   N     N_3   0.444770 0.274083 0.577197 -0.410150
O1    O     O_3   0.749950 0.249950 0.000000 -0.485662
O2    O     O_R   0.637220 0.728540 0.836030 -0.624377
O3    O     O_R   0.137220 0.771460 0.836030 -0.623801
O4    O     O_R   0.137220 0.228540 0.836030 -0.623899
O5    O     O_R   0.654190 0.228460 0.043020 -0.646524
O6    O     O_R   0.654190 0.771540 0.043020 -0.639881
O7    O     O_R   0.154190 0.728460 0.043020 -0.646177
O8    O     O_R   0.154190 0.271540 0.043020 -0.640112
O9    O     O_R   0.845720 0.228460 0.956990 -0.638537
O10   O     O_R   0.845720 0.771540 0.956990 -0.645293
O11   O     O_R   0.345720 0.728460 0.956990 -0.638166
O12   O     O_3   0.749950 0.750050 0.000000 -0.485835
O13   O     O_R   0.345720 0.271540 0.956990 -0.645916
O14   O     O_R   0.611190 0.271450 0.957030 -0.641140
O15   O     O_R   0.611190 0.728550 0.957030 -0.647537
O16   O     O_R   0.111190 0.771450 0.957030 -0.641282
O17   O     O_R   0.111190 0.228550 0.957030 -0.647505
O18   O     O_R   0.888700 0.271440 0.042960 -0.646918
O19   O     O_R   0.888700 0.728560 0.042960 -0.640060
O20   O     O_R   0.388700 0.771440 0.042960 -0.646826
O21   O     O_R   0.388700 0.228560 0.042960 -0.640006
O22   O     O_R   0.801200 0.228440 0.163980 -0.624409
O23   O     O_3   0.249950 0.749950 0.000000 -0.485817
O24   O     O_R   0.801200 0.771560 0.163980 -0.624686
O25   O     O_R   0.301200 0.728440 0.163980 -0.624473
O26   O     O_R   0.301200 0.271560 0.163980 -0.624875
O27   O     O_R   0.698710 0.228470 0.836030 -0.639970
O28   O     O_R   0.698710 0.771530 0.836030 -0.641340
O29   O     O_R   0.198710 0.728470 0.836030 -0.640789
O30   O     O_R   0.198710 0.271530 0.836030 -0.640953
O31   O     O_R   0.740720 0.167960 0.043020 -0.640092
O32   O     O_R   0.740720 0.832040 0.043020 -0.637885
O33   O     O_R   0.240720 0.667960 0.043020 -0.638197
O34   O     O_3   0.249950 0.250050 0.000000 -0.485616
O35   O     O_R   0.240720 0.332040 0.043020 -0.639143
O36   O     O_R   0.697700 0.331940 0.957000 -0.622931
O37   O     O_R   0.697700 0.668060 0.957000 -0.623631
O38   O     O_R   0.197700 0.831940 0.957000 -0.623124
O39   O     O_R   0.197700 0.168060 0.957000 -0.623756
O40   O     O_R   0.759220 0.167970 0.957030 -0.630523
O41   O     O_R   0.759220 0.832030 0.957030 -0.631189
O42   O     O_R   0.259220 0.667970 0.957030 -0.630795
O43   O     O_R   0.259220 0.332030 0.957030 -0.631699
O44   O     O_R   0.802170 0.331930 0.042960 -0.642545
O45   O     O_R   0.862680 0.271430 0.163960 -0.644361
O46   O     O_R   0.802170 0.668070 0.042960 -0.641849
O47   O     O_R   0.302170 0.831930 0.042960 -0.642482
O48   O     O_R   0.302170 0.168070 0.042960 -0.641878
O49   O     O_2   0.474936 0.336700 0.528580 -0.602004
O50   O     O_R   0.569313 0.335814 0.641803 -0.776037
O51   O     O_2   0.474643 0.664937 0.532394 -0.599990
O52   O     O_R   0.573022 0.662872 0.640823 -0.775850
O53   O     O_2   0.977428 0.837263 0.528581 -0.601666
O54   O     O_R   0.071769 0.835834 0.641805 -0.776082
O55   O     O_2   0.969234 0.166386 0.532404 -0.600960
O56   O     O_R   0.862680 0.728570 0.163960 -0.643416
O57   O     O_R   0.067452 0.162867 0.640799 -0.774528
O58   O     O_2   0.521157 0.346927 0.423404 -0.631532
O59   O     O_R   0.418510 0.328568 0.369113 -0.778966
O60   O     O_2   0.517855 0.652185 0.424603 -0.629919
O61   O     O_R   0.415928 0.671767 0.370439 -0.780679
O62   O     O_2   0.023926 0.846063 0.423416 -0.631610
O63   O     O_R   0.920768 0.828801 0.369119 -0.778685
O64   O     O_2   0.011500 0.150494 0.424603 -0.629749
O65   O     O_R   0.910918 0.172489 0.370429 -0.780916
O66   O     O_2   0.636248 0.056713 0.813748 -0.628228
O67   O     O_R   0.362680 0.771430 0.163960 -0.644358
O68   O     O_R   0.726446 0.027969 0.842445 -0.779751
O69   O     O_2   0.608130 0.946307 0.817827 -0.630513
O70   O     O_R   0.704128 0.953049 0.835966 -0.774621
O71   O     O_2   0.103838 0.553624 0.821614 -0.631104
O72   O     O_R   0.197374 0.547130 0.833778 -0.773904
O73   O     O_2   0.130793 0.443315 0.815261 -0.628328
O74   O     O_R   0.219258 0.472262 0.838792 -0.780071
O75   O     O_2   0.626821 0.443601 0.810434 -0.608394
O76   O     O_R   0.597510 0.462034 0.884541 -0.775575
O77   O     O_2   0.626735 0.556231 0.810298 -0.608521
O78   O     O_R   0.362680 0.228570 0.163960 -0.643352
O79   O     O_R   0.597433 0.537685 0.884431 -0.775372
O80   O     O_2   0.130192 0.943608 0.809291 -0.608570
O81   O     O_R   0.097975 0.962022 0.880606 -0.775059
O82   O     O_2   0.130074 0.056239 0.809177 -0.608002
O83   O     O_R   0.097891 0.037674 0.880524 -0.775124
O84   O     O_R   0.637220 0.271460 0.836030 -0.623766
Zn1   Zn    Zn3+2 0.824580 0.280660 0.061400 0.969989
Zn2   Zn    Zn3+2 0.763170 0.780750 0.938580 0.981747
Zn3   Zn    Zn3+2 0.263170 0.719250 0.938580 0.984179
Zn4   Zn    Zn3+2 0.263170 0.280750 0.938580 0.981575
Zn5   Zn    Zn3+2 0.675310 0.280670 0.938580 0.993930
Zn6   Zn    Zn3+2 0.675310 0.719330 0.938580 0.992269
Zn7   Zn    Zn3+2 0.175310 0.780670 0.938580 0.993811
Zn8   Zn    Zn3+2 0.175310 0.219330 0.938580 0.992424
Zn9   Zn    Zn3+2 0.824580 0.719340 0.061400 0.972975
Zn10  Zn    Zn3+2 0.324580 0.780660 0.061400 0.970312
Zn11  Zn    Zn3+2 0.324580 0.219340 0.061400 0.972722
Zn12  Zn    Zn3+2 0.736740 0.219240 0.061440 0.977842
Zn13  Zn    Zn3+2 0.736740 0.780760 0.061440 0.981119
Zn14  Zn    Zn3+2 0.236740 0.719240 0.061440 0.979364
Zn15  Zn    Zn3+2 0.236740 0.280760 0.061440 0.980027
Zn16  Zn    Zn3+2 0.763170 0.219250 0.938580 0.984671

loop_
_geom_bond_atom_site_label_1
_geom_bond_atom_site_label_2
_ccdc_geom_bond_type
O36   Zn5   S    
H37   O72   S    
C96   C102  S    
C142  C146  S    
C141  H47   S    
C37   O29   A    
C90   C95   S    
C161  O26   A    
C2    H103  S    
C39   O31   A    
C53   H96   S    
C17   C30   T    
C119  N2    S    
C76   O81   S    
O9    Zn16  S    
C87   C91   S    
C41   O33   A    
C128  C145  S    
C57   C59   T    
C9    N5    S    
O24   Zn13  S    
C104  H24   S    
C5    C36   S    
C130  H67   S    
C11   N7    S    
O32   Zn13  S    
O3    Zn7   S    
C89   C94   S    
C149  C153  S    
C43   C58   S    
C26   H91   S    
C152  C156  S    
C122  N1    S    
H25   N4    S    
C151  C155  S    
C97   C115  S    
C78   H117  S    
C108  H45   S    
C141  C145  S    
H40   O79   S    
C79   H118  S    
C62   O51   D    
C83   C107  S    
O23   Zn3   S    
C26   C71   S    
C38   O30   A    
C126  H58   S    
C80   C83   S    
C118  C140  S    
C19   C32   T    
C37   O3    A    
C112  O13   A    
H41   O81   S    
C48   H49   S    
H134  O50   S    
C48   C74   S    
C54   H70   S    
C86   C90   S    
C125  C158  S    
C158  H109  S    
H136  O54   S    
C14   H83   S    
C118  N16   S    
C12   H81   S    
C153  N12   S    
C50   C76   S    
C16   H85   S    
C90   C92   S    
C71   O70   S    
C134  C165  T    
C101  H2    S    
C94   C96   S    
C90   C104  S    
C20   C33   T    
C99   C101  S    
C82   C84   S    
C57   C147  S    
O28   Zn2   S    
O56   Zn9   S    
C63   O53   D    
C11   H102  S    
O23   Zn7   S    
O29   Zn3   S    
C78   C113  S    
C120  C138  S    
H20   N2    S    
C64   O57   S    
O6    Zn13  S    
C52   H68   S    
C48   C114  S    
C16   C25   S    
C52   H95   S    
C91   H121  S    
C160  O67   A    
C88   C101  S    
C84   C88   S    
C95   C97   S    
C155  N14   S    
C10   N8    S    
C84   H113  S    
C3    C7    T    
C141  H74   S    
H33   N8    S    
O23   Zn10  S    
C106  C115  S    
C132  C163  T    
C143  H50   S    
C2    C114  S    
C78   C94   S    
C77   O82   D    
O1    Zn16  S    
C135  C166  S    
H15   O63   S    
C91   C98   S    
C65   C149  S    
C47   O39   A    
C41   O42   A    
C13   H107  S    
C47   C59   S    
O44   Zn1   S    
O34   Zn11  S    
O33   Zn14  S    
C8    N6    S    
C51   H60   S    
C86   H116  S    
O10   Zn2   S    
C18   C31   T    
O21   Zn11  S    
O22   Zn12  S    
O15   Zn6   S    
C156  N15   S    
C67   O63   S    
C139  C156  S    
C109  O9    A    
C124  H57   S    
C24   H106  S    
C21   C31   S    
H28   N6    S    
O17   Zn8   S    
C93   H122  S    
H38   O74   S    
C105  C113  S    
C50   H71   S    
C38   O4    A    
C61   O49   D    
C159  O56   A    
C11   C25   S    
C138  C168  S    
C111  O11   A    
C122  C127  S    
C35   C125  S    
H36   O70   S    
C55   C147  S    
C10   H101  S    
C124  C129  S    
C121  H54   S    
C49   C75   S    
C51   C147  S    
C145  C150  S    
C19   C42   S    
C24   C136  S    
C42   O35   A    
C46   C58   T    
C86   C106  S    
C8    H99   S    
C65   O59   S    
H135  O52   S    
O34   Zn8   S    
C126  C139  S    
C54   H97   S    
O31   Zn12  S    
C97   C104  S    
C80   C116  S    
C100  H126  S    
C53   H69   S    
H22   N3    S    
C145  C163  S    
C131  C162  T    
C146  C164  S    
C129  H62   S    
H23   N4    S    
C109  O18   A    
C44   O46   A    
O45   Zn1   S    
C123  N9    S    
C161  O78   A    
C99   C117  S    
O19   Zn9   S    
H10   N15   S    
C64   O55   D    
C53   C125  S    
C78   C85   S    
H18   N16   S    
C119  H52   S    
C36   O2    A    
O27   Zn16  S    
C72   O72   S    
C3    C139  S    
C73   O74   S    
C13   C147  S    
H6    N13   S    
C47   O48   A    
O25   Zn14  S    
C52   C53   S    
C158  H105  S    
C87   C100  S    
C128  H65   S    
C150  H78   S    
C54   C55   S    
C22   C30   S    
C35   C56   T    
C69   C152  S    
C34   O84   A    
C94   H123  S    
C148  C152  S    
O4    Zn8   S    
O40   Zn16  S    
H9    N14   S    
C52   C114  S    
C77   O83   S    
H8    N14   S    
H29   N6    S    
C14   C22   S    
C142  H48   S    
C1    C88   S    
C106  H43   S    
C127  H64   S    
C120  N3    S    
C97   H93   S    
O1    Zn1   S    
C107  C116  S    
C10   C11   S    
C146  C151  S    
C111  O20   A    
O7    Zn14  S    
O38   Zn7   S    
C138  C155  S    
C83   C87   S    
C62   O52   S    
C128  H61   S    
C148  C165  S    
C96   H82   S    
H130  N10   S    
C104  C106  S    
C25   C28   S    
C26   C27   S    
C75   O79   S    
H4    N12   S    
C76   O80   D    
C124  C138  S    
C28   C29   S    
H26   N5    S    
C66   C150  S    
C79   C115  S    
C151  H79   S    
C112  C117  S    
C66   O60   D    
C105  H35   S    
C15   H84   S    
C126  C130  S    
O30   Zn4   S    
O5    Zn12  S    
C102  C105  S    
C140  H73   S    
O1    Zn5   S    
H131  N10   S    
C100  C107  S    
C71   O69   D    
C44   O37   A    
C45   O47   A    
H5    N12   S    
C111  C116  S    
C40   O32   A    
C55   H72   S    
C82   H120  S    
C74   O75   D    
C93   C99   S    
C110  O19   A    
C66   O61   S    
C101  C108  S    
C21   C27   S    
C82   C93   S    
C127  H59   S    
C55   H98   S    
O1    Zn12  S    
C20   C41   S    
C108  C117  S    
C126  N11   S    
C154  N13   S    
O34   Zn15  S    
C43   O44   A    
H12   O59   S    
C45   O38   A    
H30   N7    S    
C69   O65   S    
C83   H112  S    
C85   C89   S    
O34   Zn4   S    
C98   H104  S    
C40   O41   A    
C133  C159  S    
C17   C40   S    
O67   Zn10  S    
C18   C39   S    
C51   C77   S    
C79   C95   S    
H31   N7    S    
C92   O7    A    
C44   C56   S    
C2    C158  S    
C50   C51   S    
C124  N10   S    
H32   N8    S    
C129  C146  S    
C81   C87   S    
O46   Zn9   S    
O35   Zn15  S    
C48   C49   S    
H127  N1    S    
H34   O68   S    
C85   H114  S    
C96   C113  S    
O84   Zn5   S    
C133  C164  T    
C23   C29   S    
C137  C167  S    
H11   N15   S    
O16   Zn7   S    
C27   H90   S    
C123  C137  S    
C34   O27   A    
H133  N11   S    
C149  H77   S    
C75   O77   D    
C102  H13   S    
H19   N2    S    
C140  C144  S    
C69   O64   D    
O14   Zn5   S    
C107  H44   S    
C49   C125  S    
C123  H56   S    
C129  H66   S    
C160  O25   A    
C103  O17   A    
C80   C91   S    
H42   O83   S    
C112  O21   A    
O42   Zn3   S    
C49   H1    S    
C16   H89   S    
C121  C139  S    
C157  O22   A    
C28   H94   S    
C84   C108  S    
C137  C154  S    
C127  C144  S    
C122  C135  S    
C152  H80   S    
O18   Zn1   S    
H129  N9    S    
O39   Zn8   S    
O23   Zn14  S    
C60   C68   T    
C22   C26   S    
C63   O54   S    
C159  O24   A    
C82   C117  S    
C110  C115  S    
C79   C86   S    
C118  C135  S    
C142  H75   S    
H7    N13   S    
C45   C60   S    
C120  H53   S    
C89   C102  S    
C121  C143  S    
H16   O65   S    
O78   Zn11  S    
C110  O10   A    
C70   O68   S    
H39   O76   S    
C65   O58   D    
O41   Zn2   S    
C132  C160  S    
O48   Zn11  S    
C130  H63   S    
O47   Zn10  S    
H21   N3    S    
C9    C22   S    
C131  C161  S    
H132  N11   S    
C15   C16   S    
H3    O57   S    
H27   N5    S    
O8    Zn15  S    
C14   H87   S    
O11   Zn3   S    
C8    C9    S    
C23   C33   S    
C140  H46   S    
C29   C72   S    
C28   C73   S    
C25   C32   S    
C15   C23   S    
O12   Zn13  S    
C73   O73   D    
C85   C105  S    
O13   Zn4   S    
C157  O45   A    
C15   H88   S    
C9    H100  S    
C4    C34   S    
O12   Zn9   S    
C29   H92   S    
C12   H86   S    
C46   C114  S    
C130  C148  S    
C119  C137  S    
C68   C136  S    
C120  C142  S    
C61   O50   S    
O2    Zn6   S    
O20   Zn10  S    
C12   C21   S    
C62   C154  S    
C13   C24   S    
C144  C149  S    
H125  N1    S    
C98   C116  S    
O12   Zn2   S    
C81   O15   A    
C54   C136  S    
C8    C21   S    
C6    C37   S    
C39   O40   A    
C95   H124  S    
C92   O16   A    
C27   C70   S    
C12   C14   S    
C121  N4    S    
H14   O61   S    
O43   Zn4   S    
C70   O66   D    
C13   H111  S    
C81   O6    A    
C88   C93   S    
C80   H119  S    
H128  N9    S    
C144  C162  S    
C6    C168  T    
C61   C153  S    
C109  C113  S    
C10   C23   S    
C42   O43   A    
C64   C156  S    
C98   C100  S    
C135  C153  S    
O26   Zn15  S    
C103  O8    A    
C36   O28   A    
C63   C155  S    
C50   C136  S    
C1    O14   A    
C123  C128  S    
C24   H110  S    
O37   Zn6   S    
C67   C151  S    
C119  C141  S    
O12   Zn6   S    
C7    C38   S    
C4    C166  T    
C5    C167  T    
C122  H55   S    
C1    O5    A    
C143  C148  S    
C2    H108  S    
C134  C157  S    
C43   O36   A    
H17   N16   S    
C150  C154  S    
C67   O62   D    
C118  H51   S    
C143  H76   S    
C72   O71   D    
C74   O76   S    
C89   C103  S    
C99   H115  S    
