data_mof_unit_44221.cif
_audit_creation_date              2012-12-11T15:29:52-0500
_audit_creation_method            fapswitch 2.2
_symmetry_space_group_name_H-M    P1
_symmetry_Int_Tables_number       1
_space_group_crystal_system       triclinic
_cell_length_a                    8.19657
_cell_length_b                    14.954258
_cell_length_c                    19.001327
_cell_angle_alpha                 96.494115
_cell_angle_beta                  94.352006
_cell_angle_gamma                 98.086842
_cell_volume                      2281.10849409

loop_
_atom_site_label
_atom_site_type_symbol
_atom_type_description
_atom_site_fract_x
_atom_site_fract_y
_atom_site_fract_z
_atom_type_partial_charge
Ba1   Ba    Ba6+2 0.161760 0.544680 0.467770 1.636322
Ba2   Ba    Ba6+2 0.648420 0.455310 0.532170 1.640492
C1    C     C_3   0.411286 0.777394 0.207440 -0.369669
C2    C     C_R   0.097909 0.077207 0.541223 -0.031964
C3    C     C_R   0.958388 0.889770 0.528806 -0.034447
C4    C     C_3   0.961085 0.795223 0.321681 0.369256
C5    C     C_R   0.111396 0.922756 0.568164 -0.039356
C6    C     C_R   0.181411 0.013868 0.572754 -0.108586
C7    C     C_R   0.890065 0.795729 0.520116 0.036985
C8    C     C_R   0.734651 0.767965 0.482788 -0.303192
C9    C     C_R   0.920554 0.204265 0.480236 0.020746
C10   C     C_R   0.852690 0.110200 0.471631 -0.041132
C11   C     C_R   0.940205 0.047000 0.503562 0.016405
C12   C     C_3   0.425592 0.746180 0.280727 0.359052
C13   C     C_R   0.699991 0.077147 0.432187 -0.059143
C14   C     C_R   0.629901 0.986093 0.427631 -0.100652
C15   C     C_R   0.712745 0.922915 0.459699 -0.033708
C16   C     C_3   0.004642 0.891383 0.303677 -0.378905
C17   C     C_R   0.870822 0.953053 0.497025 0.007884
C18   C     C_R   0.643110 0.830208 0.454947 -0.001071
C19   C     C_R   0.074320 0.232434 0.519167 -0.284227
C20   C     C_R   0.614051 0.545195 0.302131 -0.288229
C21   C     C_R   0.458053 0.496692 0.278444 0.081648
C22   C     C_R   0.401395 0.488174 0.206076 -0.119221
C23   C     C_3   0.559837 0.732246 0.638837 0.310873
C24   C     C_R   0.501967 0.526240 0.156685 -0.022938
C25   C     C_R   0.662602 0.571358 0.181285 -0.141541
C26   C     C_R   0.718998 0.579043 0.253525 0.009999
C27   C     C_R   0.483160 0.585533 0.037834 -0.076965
C28   C     C_3   0.761029 0.354029 0.318128 0.315648
C29   C     C_R   0.429547 0.574847 0.965256 -0.080390
C30   C     C_R   0.335022 0.492998 0.931951 0.059295
C31   C     C_R   0.293287 0.422765 0.973614 -0.081327
C32   C     C_R   0.346821 0.433424 0.046294 -0.084776
C33   C     C_R   0.442919 0.514959 0.079409 0.067761
C34   C     C_3   0.592600 0.835051 0.658821 -0.398164
C35   C     C_R   0.124761 0.434130 0.826328 -0.099019
C36   C     C_R   0.076522 0.425496 0.753052 0.007146
C37   C     C_R   0.340901 0.509473 0.733776 0.051276
C38   C     C_R   0.390071 0.518498 0.806639 -0.110733
C39   C     C_R   0.283101 0.480620 0.853967 -0.003570
C40   C     C_3   0.737200 0.335149 0.237400 -0.399098
C41   C     C_R   0.187330 0.460270 0.707149 -0.272998
C42   C     C_3   0.045815 0.652231 0.684446 0.312905
C43   C     C_3   0.074571 0.676186 0.764842 -0.403056
C44   C     C_3   0.196223 0.255839 0.331572 0.753408
C45   C     C_3   0.849480 0.204200 0.677047 0.414900
C46   C     C_3   0.275746 0.194595 0.379532 -0.336854
C47   C     C_3   0.994440 0.130799 0.280811 0.254659
C48   C     C_3   0.866700 0.102117 0.216150 -0.143041
C49   C     C_3   0.705337 0.050920 0.236061 -0.491909
C50   C     C_3   0.254803 0.158727 0.894737 0.268861
C51   C     C_3   0.177293 0.058201 0.885354 -0.190038
C52   C     C_3   0.196094 0.016958 0.954859 -0.494206
C53   C     C_3   0.826494 0.107997 0.697351 -0.373635
C54   C     C_3   0.310848 0.204924 0.713446 0.319305
C55   C     C_3   0.364225 0.192481 0.789699 0.270486
C56   C     C_R   0.166371 0.170203 0.547142 -0.023113
H1    H     H_    0.340179 0.681294 0.279486 0.093199
H2    H     H_    0.112184 0.294122 0.361810 -0.057618
H3    H     H_    0.282989 0.789698 0.193480 0.150064
H4    H     H_    0.363344 0.157500 0.350342 0.108424
H5    H     H_    0.183124 0.144312 0.399024 0.003458
H6    H     H_    0.343887 0.237908 0.426573 0.111600
H7    H     H_    0.554907 0.734640 0.292874 -0.060009
H8    H     H_    0.442212 0.724197 0.167234 0.070165
H9    H     H_    0.677460 0.708627 0.625708 0.016326
H10   H     H_    0.468064 0.716666 0.591386 0.064654
H11   H     H_    0.687548 0.853301 0.705033 0.123827
H12   H     H_    0.637151 0.276740 0.220464 0.132335
H13   H     H_    0.638133 0.868654 0.613405 0.061412
H14   H     H_    0.476595 0.860337 0.672766 0.117841
H15   H     H_    0.498312 0.841253 0.206744 0.106799
H16   H     H_    0.941257 0.897645 0.251122 0.110081
H17   H     H_    0.768784 0.204827 0.627584 0.092790
H18   H     H_    0.980342 0.223151 0.666632 -0.104929
H19   H     H_    0.695578 0.086878 0.707098 0.131112
H20   H     H_    0.859106 0.059890 0.653643 0.065560
H21   H     H_    0.907783 0.105047 0.746260 0.133584
H22   H     H_    0.201889 0.152458 0.694546 -0.020824
H23   H     H_    0.703347 0.395166 0.214171 0.064748
H24   H     H_    0.277377 0.274471 0.712859 -0.007628
H25   H     H_    0.466716 0.247892 0.811593 0.064993
H26   H     H_    0.031542 0.790349 0.373017 0.091573
H27   H     H_    0.410214 0.125668 0.788802 0.011381
H28   H     H_    0.180452 0.878918 0.595809 0.103158
H29   H     H_    0.301077 0.034019 0.602522 0.088716
H30   H     H_    0.510314 0.966123 0.397868 0.108409
H31   H     H_    0.631258 0.121011 0.404530 0.100026
H32   H     H_    0.680925 0.696959 0.478015 0.076627
H33   H     H_    0.127387 0.303560 0.524344 0.077163
H34   H     H_    0.854532 0.319854 0.216667 0.131704
H35   H     H_    0.510620 0.556151 0.826185 0.069158
H36   H     H_    0.460981 0.631332 0.935372 0.059395
H37   H     H_    0.554965 0.649641 0.061530 0.059613
H38   H     H_    0.826463 0.782876 0.327655 -0.069414
H39   H     H_    0.279816 0.450510 0.188393 0.092015
H40   H     H_    0.221933 0.358776 0.949664 0.079865
H41   H     H_    0.315770 0.376874 0.076156 0.063021
H42   H     H_    0.037355 0.407659 0.861586 0.073677
H43   H     H_    0.746189 0.596964 0.144234 0.076614
H44   H     H_    0.149568 0.454503 0.650795 0.060835
H45   H     H_    0.156225 0.627923 0.664056 0.004009
H46   H     H_    0.658882 0.550028 0.357669 0.071610
H47   H     H_    0.964641 0.940079 0.345060 0.058857
H48   H     H_    0.140283 0.908401 0.301652 0.152044
H49   H     H_    0.648887 0.376014 0.338347 0.024378
H50   H     H_    0.867634 0.409007 0.333215 0.073613
H51   H     H_    0.931338 0.145702 0.329327 0.042444
H52   H     H_    0.061518 0.072578 0.287902 0.036873
H53   H     H_    0.838177 0.162682 0.191779 0.134494
H54   H     H_    0.919232 0.057992 0.175376 0.093877
H55   H     H_    0.729093 0.992374 0.264275 0.127633
H56   H     H_    0.937772 0.597725 0.671814 0.070391
H57   H     H_    0.621501 0.025120 0.187138 0.135414
H58   H     H_    0.642423 0.097325 0.270849 0.154712
H59   H     H_    0.192167 0.195855 0.936102 0.069398
H60   H     H_    0.388268 0.167147 0.914980 0.018147
H61   H     H_    0.043506 0.052043 0.867324 0.124651
H62   H     H_    0.237453 0.019066 0.844183 0.106426
H63   H     H_    0.329138 0.021071 0.973305 0.135091
H64   H     H_    0.138840 0.944273 0.946332 0.142380
H65   H     H_    0.133353 0.053506 0.996568 0.135459
H66   H     H_    0.189223 0.726203 0.779090 0.127965
H67   H     H_    0.087186 0.614562 0.790736 0.059548
H68   H     H_    0.967968 0.706017 0.785196 0.124013
O1    O     O_2   0.165020 0.721890 0.541560 -0.465318
O2    O     O_2   0.735048 0.429362 0.747090 -0.475643
O3    O     O_3   0.805817 0.264126 0.732455 -0.581459
O4    O     O_3   0.893030 0.608480 0.539180 -0.491674
O5    O     O_3   0.426670 0.454500 0.415370 -0.485582
O6    O     O_2   0.638230 0.542350 0.670940 -0.459419
O7    O     O_3   0.499271 0.691386 0.696540 -0.645725
O8    O     O_2   0.506229 0.174243 0.538835 -0.488102
O9    O     O_3   0.440541 0.192373 0.671015 -0.618987
O10   O     O_3   0.389120 0.667500 0.413900 -0.485771
O11   O     O_2   0.303125 0.826496 0.461290 -0.489402
O12   O     O_3   0.328523 0.313183 0.310055 -0.641597
O13   O     O_3   0.017405 0.730520 0.654792 -0.642329
O14   O     O_3   0.382113 0.813149 0.330735 -0.610493
O15   O     O_2   0.172060 0.457600 0.329040 -0.482342
O16   O     O_3   0.964390 0.622060 0.377370 -0.490446
O17   O     O_2   0.054070 0.563697 0.250655 -0.489394
O18   O     O_3   0.109022 0.206066 0.268205 -0.650451
O19   O     O_3   0.227900 0.196606 0.830676 -0.678847
O20   O     O_3   0.003291 0.733453 0.267125 -0.597967
O21   O     O_2   0.645270 0.278050 0.458420 -0.458493
O22   O     O_3   0.917270 0.391510 0.460760 -0.494528
O23   O     O_3   0.421180 0.332490 0.586040 -0.453983
O24   O     O_3   0.788512 0.273760 0.345074 -0.646753
O25   O     O_3   0.383630 0.545490 0.584580 -0.478244
O26   O     O_3   0.845910 0.377930 0.622570 -0.488356
P1    P     P_3+3 0.990700 0.707490 0.561920 0.972242
P2    P     P_3+3 0.340130 0.430100 0.338870 0.982160
P3    P     P_3+3 0.935219 0.623205 0.285683 0.942957
P4    P     P_3+3 0.819590 0.292500 0.438020 0.964912
P5    P     P_3+3 0.865657 0.375816 0.714823 0.978738
P6    P     P_3+3 0.429727 0.785376 0.416150 0.937962
P7    P     P_3+3 0.463521 0.573044 0.673573 0.949312
P8    P     P_3+3 0.381356 0.214965 0.585208 0.949663

loop_
_geom_bond_atom_site_label_1
_geom_bond_atom_site_label_2
_ccdc_geom_bond_type
O8    P8    D    
C52   H65   S    
C50   O19   S    
C55   O19   S    
C28   H49   S    
C23   H9    S    
C38   H35   S    
C2    C6    A    
O1    P1    D    
O3    P5    S    
C51   H62   S    
C5    C6    A    
C51   C52   S    
C42   C43   S    
C12   H1    S    
C23   H10   S    
C24   C25   A    
C49   H55   S    
O11   P6    D    
C45   O3    S    
C47   H51   S    
C22   C24   A    
C45   H18   S    
Ba1   Ba2   S    
C4    O20   S    
O15   P2    D    
C28   O24   S    
C5    H28   S    
O13   P1    S    
Ba2   O22   S    
C13   C14   A    
C47   O18   S    
C40   H12   S    
C15   C18   A    
C20   H46   S    
C54   C55   S    
C32   C33   A    
C2    C11   A    
Ba1   O16   S    
O14   P6    S    
O17   P3    D    
O20   P3    S    
C31   H40   S    
C8    C18   A    
C14   C15   A    
C26   P3    S    
Ba2   O6    S    
C21   C22   A    
C55   H25   S    
O16   P3    S    
Ba1   O10   S    
C23   O7    S    
C7    C8    A    
C34   H13   S    
C44   O12   S    
O10   P6    S    
C50   H59   S    
O12   P2    S    
Ba2   O23   S    
C52   H64   S    
C42   H56   S    
C16   H16   S    
C20   C26   A    
Ba1   P2    S    
C40   H23   S    
C42   H45   S    
O2    P5    D    
C31   C32   A    
C1    H3    S    
C43   H66   S    
Ba2   O26   S    
C4    C16   S    
C44   C46   S    
O6    P7    D    
C4    H26   S    
C11   C17   A    
C22   H39   S    
Ba1   O15   S    
Ba1   O4    S    
C43   H67   S    
C37   C38   A    
C3    C5    A    
C53   H20   S    
C46   H5    S    
C44   O18   S    
C48   C49   S    
Ba2   O21   S    
C9    C19   A    
C49   H57   S    
O7    P7    S    
O25   P7    S    
C16   H48   S    
C3    C7    A    
C35   C36   A    
C13   H31   S    
C53   H21   S    
C46   H4    S    
C29   C30   A    
C10   C13   A    
C43   H68   S    
C30   C39   S    
C18   P6    S    
C48   H54   S    
Ba2   O5    S    
Ba1   P1    S    
O21   P4    D    
C1    C12   S    
C9    P4    S    
C38   C39   A    
C52   H63   S    
C12   O14   S    
C42   O13   S    
C4    H38   S    
C7    P1    S    
C1    H8    S    
Ba2   O4    S    
C54   O9    S    
C50   C51   S    
C45   C53   S    
C19   H33   S    
Ba2   O25   S    
O26   P5    S    
Ba2   P4    S    
O9    P8    S    
C44   H2    S    
C37   P7    S    
O5    P2    S    
Ba1   O1    S    
C36   P5    S    
Ba1   O5    S    
C37   C41   A    
C9    C10   A    
C51   H61   S    
C54   H24   S    
C3    C17   A    
C29   H36   S    
C32   H41   S    
C27   C33   A    
C49   H58   S    
C54   H22   S    
C6    H29   S    
C30   C31   A    
C41   H44   S    
C45   H17   S    
C36   C41   A    
C27   C29   A    
C56   P8    S    
C53   H19   S    
C48   H53   S    
C15   C17   A    
C12   H7    S    
C25   H43   S    
Ba1   O25   S    
O4    P1    S    
C40   H34   S    
C35   C39   A    
C34   H11   S    
C1    H15   S    
O23   P8    S    
C16   H47   S    
C46   H6    S    
C23   C34   S    
C27   H37   S    
C24   C33   S    
C19   C56   A    
C10   C11   A    
C8    H32   S    
C47   C48   S    
C21   P2    S    
C2    C56   A    
C25   C26   A    
C14   H30   S    
C20   C21   A    
C28   C40   S    
Ba1   O22   S    
O24   P4    S    
O22   P4    S    
C28   H50   S    
C55   H27   S    
C35   H42   S    
C34   H14   S    
C47   H52   S    
C50   H60   S    
