data_mof_unit_5639.cif
_audit_creation_date              2012-12-11T14:00:02-0500
_audit_creation_method            fapswitch 2.2
_symmetry_space_group_name_H-M    P1
_symmetry_Int_Tables_number       1
_space_group_crystal_system       triclinic
_cell_length_a                    11.337438
_cell_length_b                    11.434688
_cell_length_c                    18.692603
_cell_angle_alpha                 89.536971
_cell_angle_beta                  90.215374
_cell_angle_gamma                 119.902881
_cell_volume                      2100.63037087

loop_
_atom_site_label
_atom_site_type_symbol
_atom_type_description
_atom_site_fract_x
_atom_site_fract_y
_atom_site_fract_z
_atom_type_partial_charge
C1    C     C_R   0.542262 0.478058 0.853294 0.569159
C2    C     C_R   0.477951 0.547094 0.353434 0.554208
C3    C     C_R   0.069278 0.522033 0.353318 0.556604
C4    C     C_R   0.458442 0.939427 0.350221 0.556118
C5    C     C_2   0.017228 0.511043 0.584741 -0.099763
C6    C     C_2   0.487724 0.506046 0.585010 -0.105187
C7    C     C_2   0.539310 0.091223 0.565369 -0.093457
C8    C     C_2   0.515205 0.026929 0.412151 -0.107888
C9    C     C_2   0.491901 0.521759 0.428025 -0.100444
C10   C     C_2   0.029198 0.507102 0.427688 -0.092028
C11   C     C_2   0.087756 0.458445 0.472757 -0.149679
C12   C     C_R   0.520994 0.062457 0.852436 0.571492
C13   C     C_2   0.540290 0.628252 0.472370 -0.150424
C14   C     C_2   0.444942 0.076856 0.445129 -0.151540
C15   C     C_2   0.474027 0.128216 0.518570 -0.165721
C16   C     C_2   0.563324 0.618953 0.547933 -0.157678
C17   C     C_2   0.055555 0.435932 0.548365 -0.162909
C18   C     C_2   0.006975 0.503371 0.920325 -0.094588
C19   C     C_2   0.497451 0.499812 0.923531 -0.100490
C20   C     C_2   0.500634 0.995446 0.922033 -0.104351
C21   C     C_2   0.505240 0.004622 0.077963 -0.104577
C22   C     C_2   0.503831 0.497315 0.079865 -0.094722
C23   C     C_R   0.938316 0.457983 0.851631 0.570019
C24   C     C_2   0.996827 0.499932 0.076428 -0.100695
C25   C     C_2   0.007472 0.604383 0.036323 0.209625
C26   C     C_2   0.397702 0.401708 0.043558 0.222136
C27   C     C_2   0.595882 0.987743 0.039387 0.217037
C28   C     C_2   0.608455 0.012912 0.960951 0.215193
C29   C     C_2   0.403505 0.395358 0.963658 0.210446
C30   C     C_2   0.995573 0.598287 0.956410 0.222406
C31   C     C_3   0.148263 0.827547 0.055107 0.012899
C32   C     C_3   0.158309 0.948038 0.093870 -0.331151
C33   C     C_3   0.166161 0.268454 0.068741 0.018225
C34   C     C_R   0.480337 0.542057 0.148445 0.571567
C35   C     C_3   0.075041 0.195957 0.133205 -0.329661
C36   C     C_3   0.693083 0.853470 0.050112 0.007432
C37   C     C_3   0.801204 0.841558 0.092082 -0.343225
C38   C     C_3   0.840533 0.147482 0.950510 0.006580
C39   C     C_3   0.960367 0.159828 0.908560 -0.341917
C40   C     C_3   0.321232 0.172571 0.944737 0.012133
C41   C     C_3   0.210129 0.051846 0.905943 -0.330365
C42   C     C_3   0.896769 0.731137 0.931623 0.018560
C43   C     C_3   0.877281 0.804117 0.867507 -0.328201
C44   C     C_R   0.064024 0.521830 0.146709 0.568142
C45   C     C_R   0.458535 0.937524 0.147549 0.559492
C46   C     C_R   0.541581 0.480510 0.649755 0.553747
C47   C     C_R   0.548308 0.128303 0.640009 0.567087
C48   C     C_R   0.938571 0.458009 0.649682 0.553326
Cr1   Cr    Cr6+3 0.464030 0.233680 0.750360 1.016176
Cr2   Cr    Cr6+3 0.766320 0.230350 0.750360 1.023086
Cr3   Cr    Cr6+3 0.769650 0.535970 0.750360 1.003804
Cr4   Cr    Cr6+3 0.233680 0.464030 0.249640 1.002194
Cr5   Cr    Cr6+3 0.230350 0.766320 0.249640 1.025161
Cr6   Cr    Cr6+3 0.535970 0.769650 0.249640 1.024204
H1    H     H_    0.155201 0.423987 0.452875 0.155794
H2    H     H_    0.584513 0.031107 0.549716 0.106978
H3    H     H_    0.394822 0.423988 0.562678 0.095721
H4    H     H_    0.026869 0.603045 0.561798 0.112305
H5    H     H_    0.162989 0.852290 0.997968 0.144581
H6    H     H_    0.229493 0.805141 0.069135 0.158668
H7    H     H_    0.263780 0.029889 0.101669 0.153479
H8    H     H_    0.108959 0.990227 0.060204 0.096656
H9    H     H_    0.108201 0.917496 0.147089 0.182679
H10   H     H_    0.124194 0.200174 0.022751 0.147798
H11   H     H_    0.163631 0.362801 0.057121 0.141702
H12   H     H_    0.574715 0.729478 0.451844 0.156100
H13   H     H_    0.124970 0.246799 0.183726 0.210615
H14   H     H_    0.975138 0.190879 0.127161 0.135687
H15   H     H_    0.055608 0.092636 0.139911 0.092479
H16   H     H_    0.721239 0.860696 0.993040 0.155472
H17   H     H_    0.591326 0.763276 0.056327 0.145457
H18   H     H_    0.793930 0.856170 0.150196 0.195989
H19   H     H_    0.795722 0.743470 0.083169 0.139958
H20   H     H_    0.899663 0.922952 0.073073 0.113211
H21   H     H_    0.861965 0.140325 0.007630 0.154944
H22   H     H_    0.829008 0.237441 0.944131 0.144753
H23   H     H_    0.355022 0.070056 0.420213 0.154704
H24   H     H_    0.053213 0.258418 0.917149 0.140330
H25   H     H_    0.978154 0.079157 0.927834 0.113172
H26   H     H_    0.937462 0.144437 0.850484 0.196333
H27   H     H_    0.312007 0.147846 0.001900 0.144888
H28   H     H_    0.424951 0.195602 0.930494 0.158046
H29   H     H_    0.189930 0.082130 0.852686 0.183362
H30   H     H_    0.233639 0.970289 0.898228 0.154050
H31   H     H_    0.118807 0.009554 0.939620 0.096817
H32   H     H_    0.924038 0.799117 0.977772 0.147937
H33   H     H_    0.799695 0.636669 0.943281 0.141688
H34   H     H_    0.427524 0.186006 0.536748 0.131919
H35   H     H_    0.877496 0.755032 0.816682 0.210894
H36   H     H_    0.781437 0.807145 0.873415 0.136117
H37   H     H_    0.960167 0.908298 0.861542 0.091735
H38   H     H_    0.962065 0.401718 0.053013 0.013358
H39   H     H_    0.600276 0.560707 0.053990 0.013420
H40   H     H_    0.447928 0.046218 0.053073 0.006526
H41   H     H_    0.401535 0.953543 0.946650 0.006773
H42   H     H_    0.561248 0.598198 0.946871 0.013105
H43   H     H_    0.040747 0.440794 0.946461 0.012936
H44   H     H_    0.651922 0.704233 0.571507 0.156829
H45   H     H_    0.053622 0.348328 0.572659 0.154007
H46   H     H_    0.962238 0.543176 0.445837 0.094919
H47   H     H_    0.455892 0.419381 0.446818 0.084591
H48   H     H_    0.609935 0.040357 0.433975 0.098639
O1    O     O_R   0.434100 0.092480 0.829780 -0.548227
O2    O     O_R   0.362730 0.477510 0.175360 -0.459699
O3    O     O_R   0.114780 0.637270 0.175360 -0.455068
O4    O     O_R   0.522490 0.885220 0.175360 -0.444664
O5    O     O_R   0.432250 0.092620 0.670380 -0.502455
O6    O     O_R   0.907380 0.339630 0.670380 -0.524859
O7    O     O_R   0.660370 0.567750 0.670380 -0.516870
O8    O     O_R   0.092620 0.432250 0.329620 -0.522355
O9    O     O_R   0.339630 0.907380 0.329620 -0.513755
O10   O     O_R   0.567750 0.660370 0.329620 -0.516677
O11   O     O_R   0.475790 0.362860 0.676880 -0.522093
O12   O     O_R   0.907520 0.341620 0.829780 -0.543584
O13   O     O_R   0.637140 0.112930 0.676880 -0.499840
O14   O     O_R   0.887070 0.524210 0.676880 -0.503868
O15   O     O_R   0.362860 0.475790 0.323120 -0.507798
O16   O     O_R   0.112930 0.637140 0.323120 -0.495003
O17   O     O_R   0.524210 0.887070 0.323120 -0.508540
O18   O     O_3   0.666667 0.333333 0.749450 -0.289619
O19   O     O_3   0.333333 0.666667 0.250550 -0.270843
O20   O     O_3   0.020256 0.716110 0.070752 -0.565501
O21   O     O_3   0.298744 0.293991 0.083649 -0.563210
O22   O     O_3   0.691661 0.968181 0.075410 -0.555831
O23   O     O_R   0.658380 0.565900 0.829780 -0.556709
O24   O     O_3   0.723755 0.032495 0.925241 -0.555789
O25   O     O_3   0.304007 0.283377 0.929217 -0.565242
O26   O     O_3   0.003304 0.705492 0.916202 -0.561783
O27   O     O_R   0.092480 0.434100 0.170220 -0.557330
O28   O     O_R   0.341620 0.907520 0.170220 -0.552802
O29   O     O_R   0.565900 0.658380 0.170220 -0.542786
O30   O     O_R   0.477510 0.362730 0.824640 -0.456102
O31   O     O_R   0.637270 0.114780 0.824640 -0.439741
O32   O     O_R   0.885220 0.522490 0.824640 -0.457076

loop_
_geom_bond_atom_site_label_1
_geom_bond_atom_site_label_2
_ccdc_geom_bond_type
Cr1   O11   S    
C37   H20   S    
C4    C8    S    
C1    O30   A    
C33   H11   S    
Cr1   O5    S    
C38   H22   S    
C44   O3    A    
C47   O13   A    
Cr6   O29   S    
C2    O10   A    
C43   H35   S    
C5    H4    S    
Cr2   O18   S    
Cr4   O27   S    
C36   C37   S    
C36   O22   S    
C1    O23   A    
C32   H7    S    
C38   C39   S    
Cr3   O32   S    
Cr1   O18   S    
C5    C17   D    
C21   H40   S    
C3    O8    A    
C41   H29   S    
C46   O7    A    
Cr2   O13   S    
C14   H23   S    
C31   H5    S    
C9    C13   D    
C38   O24   S    
C11   C17   S    
C28   O24   S    
C4    O17   A    
C18   C30   D    
C18   H43   S    
Cr4   O8    S    
C25   O20   S    
C23   O32   A    
C36   H17   S    
C42   O26   S    
C48   O14   A    
Cr4   O15   S    
Cr5   O9    S    
C7    C15   D    
C21   C27   D    
C45   O28   A    
Cr3   O7    S    
Cr6   O17   S    
Cr2   O6    S    
C6    H3    S    
C7    H2    S    
C20   H41   S    
C24   H38   S    
C5    C48   S    
C2    O15   A    
C36   H16   S    
C21   C45   S    
C13   H12   S    
C22   C34   S    
Cr1   O30   S    
C30   O26   S    
C1    C19   S    
C43   H36   S    
Cr6   O4    S    
C18   C23   S    
Cr3   O23   S    
C39   H24   S    
C40   H28   S    
C24   C25   D    
C32   H9    S    
C12   O1    A    
Cr5   O16   S    
C20   C28   D    
C44   O27   A    
C40   O25   S    
C34   O2    A    
Cr2   O12   S    
C39   H25   S    
C31   H6    S    
C3    O16   A    
Cr4   O19   S    
C31   C32   S    
C35   H13   S    
C12   C20   S    
Cr3   O18   S    
Cr6   O10   S    
C10   H46   S    
C17   H45   S    
C38   H21   S    
C42   H32   S    
C40   C41   S    
C4    O9    A    
C34   O29   A    
C47   O5    A    
C12   O31   A    
C29   O25   S    
C22   C26   D    
C24   C44   S    
C22   H39   S    
C13   C16   S    
C42   C43   S    
C19   C29   D    
C11   H1    S    
C45   O4    A    
C25   C30   S    
C37   H19   S    
Cr4   O2    S    
C8    C14   D    
C6    C46   S    
C46   O11   A    
C40   H27   S    
Cr6   O19   S    
C31   O20   S    
Cr2   O31   S    
Cr1   O1    S    
C27   O22   S    
Cr5   O28   S    
C41   H31   S    
Cr3   O14   S    
C39   H26   S    
C32   H8    S    
C3    C10   S    
Cr5   O19   S    
C23   O12   A    
C41   H30   S    
C16   H44   S    
C48   O6    A    
C35   H14   S    
C33   H10   S    
C33   C35   S    
C43   H37   S    
C10   C11   D    
C6    C16   D    
Cr5   O3    S    
C35   H15   S    
C26   C29   S    
C9    H47   S    
C26   O21   S    
C37   H18   S    
C27   C28   S    
C33   O21   S    
C14   C15   S    
C42   H33   S    
C2    C9    S    
C8    H48   S    
C19   H42   S    
C7    C47   S    
C15   H34   S    
