data_mof_unit_40353.cif
_audit_creation_date              2012-12-11T16:29:29-0500
_audit_creation_method            fapswitch 2.2
_symmetry_space_group_name_H-M    P1
_symmetry_Int_Tables_number       1
_space_group_crystal_system       triclinic
_cell_length_a                    6.951573
_cell_length_b                    17.282743
_cell_length_c                    18.830183
_cell_angle_alpha                 106.074325
_cell_angle_beta                  89.945003
_cell_angle_gamma                 90.692883
_cell_volume                      2173.68645034

loop_
_atom_site_label
_atom_site_type_symbol
_atom_type_description
_atom_site_fract_x
_atom_site_fract_y
_atom_site_fract_z
_atom_type_partial_charge
O1    O     O_R   0.494360 0.415680 0.413760 -0.527329
O2    O     O_R   0.818810 0.432910 0.557230 -0.533668
O3    O     O_R   0.994290 0.584320 0.586240 -0.530455
C1    C     C_R   0.650175 0.417010 0.581511 0.729886
O4    O     O_R   0.823740 0.406440 0.412520 -0.535457
O5    O     O_R   0.999250 0.557660 0.440500 -0.516057
C2    C     C_R   0.653488 0.382280 0.385712 0.869529
O6    O     O_R   0.489400 0.442340 0.559500 -0.514626
O7    O     O_3   0.662500 0.549650 0.509350 -0.358465
V1    V     V_3+5 0.935340 0.490790 0.498270 1.432899
O8    O     O_R   0.329270 0.567090 0.442770 -0.524188
C3    C     C_R   0.161459 0.581650 0.417357 0.736106
O9    O     O_R   0.324340 0.593560 0.587480 -0.527158
C4    C     C_R   0.156054 0.616776 0.615363 0.886540
V2    V     V_3+5 0.435970 0.509210 0.501730 1.442476
O10   O     O_3   0.158940 0.450350 0.490650 -0.367736
C5    C     C_R   0.221140 0.595124 0.764646 0.223570
C6    C     C_R   0.248102 0.585817 0.835589 -0.195020
C7    C     C_R   0.224343 0.649803 0.898324 0.223472
C8    C     C_R   0.177969 0.724792 0.890383 -0.149713
C9    C     C_R   0.156759 0.738421 0.819924 -0.041708
C10   C     C_R   0.175070 0.672613 0.754892 0.011845
C11   C     C_R   0.119077 0.817219 0.815175 -0.128965
C12   C     C_R   0.100867 0.832782 0.744928 0.030965
C13   C     C_R   0.114844 0.767352 0.678634 -0.020819
C14   C     C_R   0.148604 0.686561 0.683732 -0.153882
C15   C     C_R   0.071376 0.912659 0.738600 0.122870
C16   C     C_R   0.052883 0.926688 0.669784 -0.228564
C17   C     C_R   0.065922 0.864799 0.604811 0.298570
C18   C     C_R   0.098415 0.785701 0.608895 0.114160
H1    H     H_    0.286789 0.527402 0.841595 0.120811
H2    H     H_    0.160497 0.772541 0.940979 0.105482
H3    H     H_    0.031687 0.988077 0.668141 0.141484
C19   C     C_1   0.111762 0.862846 0.131704 -0.233532
C20   C     C_1   0.119242 0.819857 0.174916 0.003675
C21   C     C_1   0.128641 0.769242 0.226454 -0.005885
C22   C     C_1   0.136702 0.726682 0.270032 -0.004808
C23   C     C_1   0.146085 0.676233 0.321699 -0.005479
C24   C     C_1   0.153559 0.633537 0.365155 -0.267589
C25   C     C_1   0.641769 0.365235 0.633708 -0.243485
C26   C     C_1   0.637577 0.322648 0.677285 -0.000873
C27   C     C_1   0.634163 0.272280 0.729055 -0.005455
C28   C     C_1   0.631560 0.229750 0.772710 -0.008492
C29   C     C_1   0.627986 0.179218 0.824342 -0.014403
C30   C     C_1   0.623661 0.136399 0.867731 -0.234581
C31   C     C_R   0.788341 0.399442 0.242290 0.148443
C32   C     C_R   0.894500 0.402707 0.178990 0.256711
C33   C     C_R   0.902349 0.335121 0.118140 0.282849
C34   C     C_R   0.807423 0.264504 0.120256 -0.304514
C35   C     C_R   0.716008 0.256376 0.185053 -0.021948
C36   C     C_R   0.714270 0.323649 0.249047 -0.008490
C37   C     C_R   0.626170 0.182295 0.185627 -0.121911
C38   C     C_R   0.551108 0.171452 0.252852 -0.005834
C39   C     C_R   0.553774 0.237682 0.318831 -0.044167
C40   C     C_R   0.638717 0.313696 0.316952 -0.142517
C41   C     C_R   0.477447 0.094905 0.257026 0.244287
C42   C     C_R   0.380225 0.088342 0.319699 -0.273942
C43   C     C_R   0.377733 0.151761 0.383105 0.183477
C44   C     C_R   0.473488 0.224185 0.384955 0.186778
H4    H     H_    0.811801 0.215670 0.070114 0.142247
H5    H     H_    0.317848 0.030944 0.321006 0.133106
O11   O     O_R   0.775690 0.057750 0.940570 -0.520393
O12   O     O_R   0.441200 0.093570 0.087490 -0.530574
O13   O     O_R   0.265840 0.942320 0.059480 -0.519424
C45   C     C_R   0.611194 0.116439 0.115091 0.781761
O14   O     O_R   0.446270 0.067110 0.942790 -0.524347
O15   O     O_R   0.270950 0.915660 0.913750 -0.532442
C46   C     C_R   0.615187 0.084243 0.919565 0.708615
O16   O     O_R   0.770580 0.084400 0.086300 -0.540146
O17   O     O_3   0.602640 0.950400 0.990690 -0.356230
V3    V     V_3+5 0.329740 0.009200 0.001730 1.441018
O18   O     O_R   0.940900 0.906360 0.912450 -0.529947
C47   C     C_R   0.109418 0.883847 0.884893 0.793955
O19   O     O_R   0.935830 0.932820 0.057160 -0.527047
C48   C     C_R   0.103971 0.915500 0.080225 0.696241
V4    V     V_3+5 0.829130 0.990680 0.998180 1.433437
O20   O     O_3   0.106100 0.049590 0.009310 -0.360388
N1    N     N_2   0.048589 0.880019 0.533900 -0.519642
H6    H     H_    0.155683 0.856452 0.496566 0.257320
C49   C     C_3   0.974612 0.955954 0.527921 -0.555592
H7    H     H_    0.947494 0.951822 0.468869 0.197656
H8    H     H_    0.081448 0.005101 0.549770 0.192686
H9    H     H_    0.836147 0.969705 0.558036 0.208314
N2    N     N_2   0.738870 0.473448 0.294352 -0.519167
H10   H     H_    0.843948 0.517578 0.304385 0.261278
C50   C     C_3   0.552635 0.503505 0.281296 -0.516133
H11   H     H_    0.527330 0.561852 0.322928 0.198052
H12   H     H_    0.436823 0.460280 0.285798 0.189124
H13   H     H_    0.546558 0.513450 0.225588 0.190886
N3    N     N_2   0.998200 0.473536 0.176575 -0.500587
H14   H     H_    0.085018 0.498791 0.221581 0.237309
C51   C     C_3   0.895852 0.531159 0.148193 -0.474911
H15   H     H_    0.856769 0.584184 0.194353 0.181759
H16   H     H_    0.762236 0.504717 0.118432 0.182093
H17   H     H_    0.990427 0.551691 0.109318 0.215624
N4    N     N_2   0.010375 0.337600 0.054593 -0.482642
H18   H     H_    0.106268 0.290869 0.038848 0.250040
C52   C     C_3   0.895264 0.344841 0.992834 -0.518200
H19   H     H_    0.991330 0.351263 0.947613 0.196086
H20   H     H_    0.803033 0.398777 0.009418 0.203772
H21   H     H_    0.803120 0.290330 0.971681 0.180151
N5    N     N_2   0.513856 0.021808 0.201766 -0.510560
H22   H     H_    0.400591 0.981295 0.193974 0.253530
C53   C     C_3   0.692548 0.984521 0.212567 -0.516749
H23   H     H_    0.710312 0.927922 0.167732 0.202780
H24   H     H_    0.691134 0.969431 0.266257 0.180485
H25   H     H_    0.816392 0.025403 0.211393 0.193568
N6    N     N_3   0.494894 0.281449 0.455627 -0.667292
H26   H     H_    0.358097 0.296807 0.477898 0.262331
H27   H     H_    0.569660 0.254148 0.490211 0.229275
N7    N     N_2   0.249111 0.525810 0.704252 -0.535201
H28   H     H_    0.383846 0.501629 0.704643 0.249215
C54   C     C_3   0.098909 0.465194 0.695190 -0.496053
H29   H     H_    0.121511 0.417704 0.642590 0.206558
H30   H     H_    0.955848 0.492591 0.693577 0.190250
H31   H     H_    0.102056 0.436685 0.741301 0.174731
N8    N     N_3   0.245840 0.639755 0.971081 -0.666394
H32   H     H_    0.275573 0.579753 0.968049 0.226158
H33   H     H_    0.365909 0.673806 0.995493 0.227996
N9    N     N_3   0.062039 0.981923 0.801499 -0.653716
H34   H     H_    0.930651 0.010275 0.800052 0.228422
H35   H     H_    0.172551 0.022084 0.797431 0.223660
N10   N     N_3   0.115165 0.724287 0.540786 -0.680971
H36   H     H_    0.237186 0.736494 0.513055 0.214457
H37   H     H_    0.992396 0.724646 0.508802 0.247231
N11   N     N_3   0.287515 0.141269 0.448386 -0.683902
H38   H     H_    0.352358 0.092821 0.461760 0.230276
H39   H     H_    0.142896 0.126057 0.436112 0.230029

loop_
_geom_bond_atom_site_label_1
_geom_bond_atom_site_label_2
_ccdc_geom_bond_type
O14   C46   A    
O12   C45   A    
N11   H38   S    
C26   C27   S    
C7    C8    A    
C12   C15   A    
C2    C40   S    
C1    O6    A    
C53   H24   S    
N3    H14   S    
N10   H36   S    
C38   C39   A    
C41   C42   A    
C22   C23   S    
C34   H4    S    
O19   V4    S    
C16   C17   A    
N2    C50   S    
C6    C7    A    
N8    H33   S    
O5    C3    A    
C23   C24   T    
N1    C49   S    
N10   H37   S    
V2    O10   S    
N6    H26   S    
O16   V4    S    
C19   C20   T    
O13   V3    S    
C34   C35   A    
C31   C32   A    
O8    V2    S    
N2    H10   S    
C17   N1    S    
C32   C33   A    
N4    C52   S    
C35   C37   A    
C11   C12   A    
O17   V3    S    
O1    V2    S    
O7    V1    S    
C36   C40   A    
O18   V4    S    
C19   C48   S    
C54   H31   S    
O1    C2    A    
O9    C4    A    
O11   V4    S    
C11   C47   S    
C49   H9    S    
C5    N7    S    
C53   H23   S    
N9    H35   S    
C35   C36   A    
C39   C44   A    
O19   C48   A    
C50   H12   S    
C1    C25   S    
V4    O20   S    
C49   H8    S    
O4    C2    A    
N1    H6    S    
C49   H7    S    
C43   C44   A    
C15   N9    S    
C31   C36   A    
C51   H17   S    
C4    C14   S    
C20   C21   S    
O2    C1    A    
C28   C29   S    
C17   C18   A    
N3    C51   S    
O14   V3    S    
N4    H18   S    
C8    C9    A    
C30   C46   S    
C51   H16   S    
C5    C6    A    
N7    C54   S    
C12   C13   A    
N5    C53   S    
O3    C4    A    
O15   C47   A    
C25   C26   T    
O12   V3    S    
C16   H3    S    
C43   N11   S    
O6    V2    S    
C52   H20   S    
C9    C11   A    
O17   V4    S    
C32   N3    S    
C31   N2    S    
C27   C28   T    
O2    V1    S    
V3    O20   S    
C37   C38   A    
C54   H29   S    
C8    H2    S    
C38   C41   A    
C13   C18   A    
C39   C40   A    
C33   C34   A    
N11   H39   S    
C33   N4    S    
N7    H28   S    
C50   H11   S    
C29   C30   T    
C5    C10   A    
O18   C47   A    
C50   H13   S    
O5    V1    S    
O8    C3    A    
C42   H5    S    
C52   H21   S    
C44   N6    S    
O11   C46   A    
C3    C24   S    
O9    V2    S    
C13   C14   A    
C41   N5    S    
O4    V1    S    
O3    V1    S    
V1    O10   S    
N8    H32   S    
C42   C43   A    
C45   O16   A    
C51   H15   S    
O13   C48   A    
N6    H27   S    
O15   V3    S    
O7    V2    S    
N5    H22   S    
C18   N10   S    
C7    N8    S    
C21   C22   T    
C52   H19   S    
C10   C14   A    
C15   C16   A    
N9    H34   S    
C6    H1    S    
C9    C10   A    
C53   H25   S    
C37   C45   S    
C54   H30   S    
