data_mof_unit_52811.cif
_audit_creation_date              2012-10-26T19:59:11-0400
_audit_creation_method            fapswitch 2.2
_symmetry_space_group_name_H-M    P1
_symmetry_Int_Tables_number       1
_space_group_crystal_system       triclinic
_cell_length_a                    7.412751
_cell_length_b                    8.735805
_cell_length_c                    15.945283
_cell_angle_alpha                 94.415185
_cell_angle_beta                  75.215432
_cell_angle_gamma                 103.05684
_cell_volume                      972.356123347

loop_
_atom_site_label
_atom_site_type_symbol
_atom_type_description
_atom_site_fract_x
_atom_site_fract_y
_atom_site_fract_z
_atom_type_partial_charge
C1    C     C_R   0.544763 0.799843 0.502567 0.569897
C2    C     C_R   0.615487 0.509700 0.333679 0.573853
C3    C     C_R   0.316117 0.478225 0.761581 0.020262
C4    C     C_R   0.683883 0.521775 0.238419 0.020262
C5    C     C_R   0.071821 0.374602 0.887998 -0.108962
C6    C     C_R   0.928179 0.625398 0.112002 -0.108962
C7    C     C_R   0.124428 0.413522 0.800854 0.336671
C8    C     C_R   0.875572 0.586477 0.199146 0.336671
C9    C     C_R   0.450124 0.518552 0.813012 0.314926
C10   C     C_R   0.549876 0.481448 0.186988 0.314926
C11   C     C_R   0.395780 0.490453 0.902924 0.022193
C12   C     C_R   0.455237 0.200156 0.497433 0.569897
C13   C     C_R   0.604220 0.509547 0.097076 0.022193
C14   C     C_R   0.207319 0.405772 0.937827 -0.077418
C15   C     C_R   0.792681 0.594228 0.062172 -0.077418
C16   C     C_R   0.526256 0.531680 0.957659 0.051073
C17   C     C_R   0.473744 0.468320 0.042341 0.051073
C18   C     C_R   0.294085 0.364192 0.068549 -0.053252
C19   C     C_R   0.705915 0.635808 0.931450 -0.053252
C20   C     C_R   0.159534 0.342356 0.019875 -0.137920
C21   C     C_R   0.840466 0.657644 0.980125 -0.137920
C22   C     C_2   0.570536 0.966845 0.503726 0.345080
C23   C     C_2   0.429464 0.033155 0.496274 0.345080
C24   C     C_R   0.384512 0.490299 0.666321 0.573853
Cu1   Cu    Cu3+1 0.322120 0.483240 0.490330 1.181534
Cu2   Cu    Cu3+1 0.677880 0.516760 0.509670 1.181534
F1    F     F_    0.362835 0.432858 0.227295 -0.604864
F2    F     F_    0.637165 0.567142 0.772705 -0.604864
F3    F     F_    0.009005 0.624667 0.246188 -0.560302
F4    F     F_    0.990995 0.375333 0.753812 -0.560302
F5    F     F_    0.742940 0.053035 0.512506 -0.591441
F6    F     F_    0.257060 0.946965 0.487494 -0.591441
H1    H     H_    0.020132 0.267736 0.044710 0.124432
H2    H     H_    0.979868 0.732264 0.955290 0.124432
H3    H     H_    0.926051 0.314345 0.915810 0.160857
H4    H     H_    0.073949 0.685655 0.084189 0.160857
H5    H     H_    0.254194 0.293044 0.125200 0.210857
H6    H     H_    0.745806 0.706956 0.874800 0.210857
H7    H     H_    0.004424 0.614403 0.568684 0.279636
H8    H     H_    0.995576 0.385597 0.431316 0.279636
N1    N     N_2   0.945180 0.542040 0.524240 -0.198884
N2    N     N_2   0.054820 0.457960 0.475760 -0.198884
O1    O     O_R   0.384450 0.714270 0.493720 -0.498808
O2    O     O_R   0.615550 0.285730 0.506280 -0.498807
O3    O     O_R   0.684880 0.742590 0.510050 -0.449119
O4    O     O_R   0.315120 0.257410 0.489950 -0.449119
O5    O     O_R   0.265540 0.477900 0.617090 -0.476156
O6    O     O_R   0.734460 0.522100 0.382910 -0.476156
O7    O     O_R   0.565970 0.506210 0.633420 -0.434147
O8    O     O_R   0.434030 0.493790 0.366580 -0.434147

loop_
_geom_bond_atom_site_label_1
_geom_bond_atom_site_label_2
_ccdc_geom_bond_type
C10   F1    S    
Cu1   N2    S    
C2    C4    S    
C3    C9    A    
C19   H6    S    
Cu2   O6    S    
N1    N2    D    
Cu1   O5    S    
C3    C7    A    
C13   C17   A    
C4    C8    A    
Cu1   Cu2   S    
C23   F6    S    
Cu1   O1    S    
H8    N2    S    
C17   C18   A    
C5    C14   A    
Cu2   O2    S    
C1    C22   S    
H7    N1    S    
C7    F4    S    
C9    C11   A    
C12   C23   S    
C1    O3    A    
C3    C24   S    
C16   C19   A    
C8    F3    S    
C5    H3    S    
C19   C21   A    
C18   H5    S    
C6    H4    S    
C18   C20   A    
C13   C15   A    
C11   C14   A    
C22   F5    S    
C20   H1    S    
C4    C10   A    
C14   C20   A    
C15   C21   A    
Cu2   N1    S    
C12   O4    A    
C11   C16   A    
Cu2   O7    S    
C24   O7    A    
C5    C7    A    
C22   C23   D    
C12   O2    A    
C6    C8    A    
C21   H2    S    
C2    O8    A    
Cu2   O3    S    
C2    O6    A    
C6    C15   A    
Cu1   O8    S    
C24   O5    A    
Cu1   O4    S    
C1    O1    A    
C9    F2    S    
C16   C17   A    
C10   C13   A    
