data_mof_unit_44373.cif
_audit_creation_date              2012-12-10T17:48:55-0500
_audit_creation_method            fapswitch 2.2
_symmetry_space_group_name_H-M    P1
_symmetry_Int_Tables_number       1
_space_group_crystal_system       triclinic
_cell_length_a                    10.721485
_cell_length_b                    14.719284
_cell_length_c                    14.776365
_cell_angle_alpha                 64.780672
_cell_angle_beta                  104.08496
_cell_angle_gamma                 102.102535
_cell_volume                      2031.2278401

loop_
_atom_site_label
_atom_site_type_symbol
_atom_type_description
_atom_site_fract_x
_atom_site_fract_y
_atom_site_fract_z
_atom_type_partial_charge
C1    C     C_R   0.480196 0.119706 0.312348 0.822829
C2    C     C_R   0.518106 0.360670 0.080746 0.077813
C3    C     C_R   0.502962 0.321717 0.005447 0.162854
C4    C     C_R   0.260343 0.999669 0.501356 0.788965
C5    C     C_R   0.545700 0.466853 0.054701 0.067465
C6    C     C_R   0.542652 0.533268 0.950911 0.064051
C7    C     C_R   0.531207 0.491439 0.878458 -0.228134
C8    C     C_R   0.512728 0.387554 0.905713 -0.224099
C9    C     C_R   0.578314 0.508761 0.128991 -0.223749
C10   C     C_R   0.597862 0.612582 0.101788 -0.231058
C11   C     C_R   0.582863 0.678361 0.999923 0.165092
C12   C     C_3   0.878103 0.996972 0.503225 0.096584
C13   C     C_R   0.553076 0.639409 0.923379 0.085098
C14   C     C_R   0.596424 0.783001 0.973722 -0.206497
C15   C     C_R   0.577550 0.849656 0.872073 -0.202779
C16   C     C_R   0.523183 0.880244 0.687688 0.809526
C17   C     C_R   0.529963 0.707909 0.821687 -0.263257
C18   C     C_R   0.733397 0.285787 0.661738 -0.313697
C19   C     C_R   0.692522 0.204016 0.632652 0.046576
C20   C     C_R   0.518163 0.287803 0.512523 0.113916
C21   C     C_R   0.567601 0.378466 0.529153 -0.069088
C22   C     C_R   0.669569 0.372681 0.611386 0.156102
C23   C     C_3   0.921884 0.891377 0.575694 0.330490
C24   C     C_R   0.513582 0.472273 0.471235 0.092157
C25   C     C_R   0.539848 0.549394 0.509988 0.082295
C26   C     C_R   0.636158 0.537116 0.597415 -0.241182
C27   C     C_R   0.703504 0.452325 0.644226 -0.190823
C28   C     C_R   0.739917 0.998496 0.501525 0.796280
C29   C     C_R   0.439937 0.493254 0.373020 -0.209776
C30   C     C_R   0.372541 0.576842 0.322949 -0.193004
C31   C     C_R   0.382729 0.646276 0.366129 0.163877
C32   C     C_R   0.470142 0.636271 0.458086 -0.024269
C33   C     C_R   0.310071 0.728230 0.315509 -0.315349
C34   C     C_3   0.964139 0.078380 0.539667 -0.352823
C35   C     C_R   0.327258 0.802243 0.353726 0.071518
C36   C     C_R   0.484196 0.715065 0.492171 0.009000
C37   C     C_3   0.041792 0.018984 0.394876 -0.396731
C38   C     C_3   0.898489 0.021291 0.394483 -0.485129
C39   C     C_3   0.068180 0.894258 0.577839 -0.409281
C40   C     C_3   0.105863 0.081313 0.535843 -0.351147
C41   C     C_3   0.122234 0.998640 0.502713 0.075005
C42   C     C_3   0.862136 0.761712 0.723522 0.039285
C43   C     C_3   0.872505 0.733848 0.836486 -0.757704
C44   C     C_2   0.380595 0.276021 0.465950 0.844931
C45   C     C_R   0.480451 0.187556 0.205206 -0.058355
C46   C     C_R   0.542989 0.812214 0.795573 -0.051571
C47   C     C_R   0.478393 0.216980 0.030847 -0.195943
C48   C     C_R   0.468184 0.150163 0.130385 -0.208161
C49   C     C_R   0.502062 0.291984 0.179322 -0.235621
Cu1   Cu    Cu3+1 0.465900 0.918260 0.475680 0.927098
Cu2   Cu    Cu3+1 0.534100 0.081740 0.524320 0.961492
H1    H     H_    0.048800 0.958864 0.370143 0.178318
H2    H     H_    0.504110 0.318186 0.237411 0.180884
H3    H     H_    0.080664 0.092424 0.339185 0.166590
H4    H     H_    0.540058 0.537051 0.800208 0.141633
H5    H     H_    0.593516 0.463418 0.209435 0.142995
H6    H     H_    0.620836 0.813213 0.031969 0.134443
H7    H     H_    0.779752 0.447467 0.708998 0.138556
H8    H     H_    0.552709 0.715855 0.558607 0.110317
H9    H     H_    0.275477 0.867837 0.312583 0.121797
H10   H     H_    0.312870 0.587672 0.249284 0.145994
H11   H     H_    0.814539 0.281090 0.723222 0.142775
H12   H     H_    0.954211 0.061948 0.618603 0.202852
H13   H     H_    0.744051 0.138143 0.670276 0.138224
H14   H     H_    0.869721 0.097380 0.341938 0.180425
H15   H     H_    0.664512 0.593418 0.629444 0.113162
H16   H     H_    0.435572 0.446227 0.332582 0.154872
H17   H     H_    0.242987 0.736402 0.245302 0.137602
H18   H     H_    0.836427 0.965429 0.365237 0.176441
H19   H     H_    0.080955 0.832662 0.557354 0.141494
H20   H     H_    0.865544 0.835793 0.543047 0.056074
H21   H     H_    0.166423 0.072037 0.611347 0.189495
H22   H     H_    0.136451 0.156203 0.479163 0.215555
H23   H     H_    0.123958 0.879508 0.655877 0.180253
H24   H     H_    0.933160 0.154611 0.490420 0.177448
H25   H     H_    0.925105 0.715708 0.714575 0.136178
H26   H     H_    0.759706 0.742965 0.691431 0.139801
H27   H     H_    0.815531 0.781365 0.848466 0.261179
H28   H     H_    0.834672 0.653010 0.874234 0.202722
H29   H     H_    0.975371 0.746165 0.871292 0.240031
H30   H     H_    0.248530 0.264455 0.346645 0.304288
H31   H     H_    0.504332 0.358644 0.847875 0.154832
H32   H     H_    0.498461 0.681461 0.761249 0.152418
H33   H     H_    0.588803 0.930154 0.853486 0.156632
H34   H     H_    0.622525 0.641485 0.161073 0.147976
H35   H     H_    0.467948 0.186757 0.973765 0.135914
H36   H     H_    0.451973 0.069558 0.148875 0.154129
N1    N     N_R   0.585360 0.204570 0.560800 -0.216005
N2    N     N_R   0.414550 0.795430 0.439160 -0.177865
O1    O     O_R   0.455060 0.022100 0.338110 -0.598403
O2    O     O_2   0.298728 0.287337 0.503983 -0.632031
O3    O     O_R   0.344662 0.263155 0.374379 -0.775673
O4    O     O_R   0.512640 0.160150 0.379180 -0.541996
O5    O     O_R   0.288900 0.930980 0.479450 -0.589047
O6    O     O_R   0.346480 0.069030 0.520520 -0.567746
O7    O     O_R   0.487360 0.839850 0.620820 -0.594180
O8    O     O_R   0.544940 0.977900 0.661890 -0.588518
O9    O     O_R   0.653520 0.930970 0.479480 -0.599035
O10   O     O_R   0.711100 0.069020 0.520550 -0.594941
O11   O     O_3   0.900353 0.866500 0.675152 -0.589925

loop_
_geom_bond_atom_site_label_1
_geom_bond_atom_site_label_2
_ccdc_geom_bond_type
C36   N2    A    
Cu2   O8    S    
C10   H34   S    
C1    O1    A    
C7    H4    S    
C36   H8    S    
C1    C45   S    
C7    C8    A    
C39   C41   S    
C43   H27   S    
C12   C23   S    
C26   C27   A    
C37   C38   S    
C12   C28   S    
C34   C40   S    
C32   C36   A    
C30   C31   A    
C11   C14   A    
C49   H2    S    
C16   O8    A    
C4    C41   S    
C43   H28   S    
C40   H22   S    
C18   C19   A    
C39   H23   S    
C24   C29   A    
C29   H16   S    
H30   O3    S    
Cu1   O1    S    
C47   C48   A    
C31   C33   A    
C9    C10   A    
C44   O3    S    
C34   H24   S    
C25   C32   A    
C23   O11   S    
C38   H18   S    
C21   C22   A    
C12   C38   S    
C20   C44   S    
Cu2   O10   S    
Cu1   O9    S    
C16   O7    A    
C26   H15   S    
C47   H35   S    
C23   H20   S    
C17   C46   A    
C19   N1    A    
C16   C46   S    
C37   H1    S    
C18   H11   S    
C25   C26   A    
C35   H9    S    
C17   H32   S    
C5    C9    A    
C29   C30   A    
C2    C49   A    
C42   O11   S    
C4    O6    A    
Cu1   N2    S    
C31   C32   A    
C38   H14   S    
C45   C49   A    
C19   H13   S    
Cu1   Cu2   S    
C48   H36   S    
C9    H5    S    
C24   C25   A    
C6    C7    A    
C44   O2    D    
Cu2   O4    S    
C4    O5    A    
C37   H3    S    
C35   N2    A    
C28   O10   A    
C40   C41   S    
C3    C8    A    
C22   C27   A    
C8    H31   S    
C30   H10   S    
C2    C5    A    
C42   C43   S    
C12   C34   S    
C45   C48   A    
C28   O9    A    
C14   H6    S    
C40   H21   S    
C18   C22   A    
Cu1   O5    S    
C27   H7    S    
Cu2   N1    S    
C15   H33   S    
C42   H25   S    
C13   C17   A    
C2    C3    A    
C43   H29   S    
C6    C13   A    
C11   C13   A    
Cu1   O7    S    
C5    C6    A    
C23   C39   S    
C20   N1    A    
C3    C47   A    
C34   H12   S    
C33   C35   A    
C39   H19   S    
C37   C41   S    
C10   C11   A    
C20   C21   A    
C42   H26   S    
C1    O4    A    
C21   C24   A    
C14   C15   A    
C15   C46   A    
C33   H17   S    
Cu2   O6    S    
