data_mof_unit_55526.cif
_audit_creation_date              2012-12-10T18:05:58-0500
_audit_creation_method            fapswitch 2.2
_symmetry_space_group_name_H-M    P1
_symmetry_Int_Tables_number       1
_space_group_crystal_system       triclinic
_cell_length_a                    12.62942
_cell_length_b                    13.100462
_cell_length_c                    15.001333
_cell_angle_alpha                 91.370537
_cell_angle_beta                  102.718761
_cell_angle_gamma                 81.705443
_cell_volume                      2395.6824198

loop_
_atom_site_label
_atom_site_type_symbol
_atom_type_description
_atom_site_fract_x
_atom_site_fract_y
_atom_site_fract_z
_atom_type_partial_charge
C1    C     C_R   0.438907 0.690871 0.481791 0.875984
C2    C     C_R   0.600910 0.497621 0.833079 -0.243033
C3    C     C_R   0.501611 0.500793 0.769239 -0.068315
C4    C     C_R   0.500577 0.500785 0.673013 0.888125
C5    C     C_R   0.402889 0.501638 0.797196 -0.247988
C6    C     C_R   0.723434 0.050029 0.470744 -0.152262
C7    C     C_R   0.599147 0.196271 0.507153 -0.170759
C8    C     C_R   0.291916 0.841252 0.458023 -0.215584
C9    C     C_R   0.258662 0.946987 0.449799 0.236056
C10   C     C_R   0.335561 0.012710 0.448607 -0.242595
C11   C     C_R   0.446192 0.972277 0.449997 0.055694
C12   C     C_R   0.403672 0.492803 0.074495 0.123295
C13   C     C_R   0.473468 0.865266 0.440117 0.087983
C14   C     C_R   0.531547 0.033741 0.463378 0.097385
C15   C     C_R   0.636751 0.991563 0.450726 0.110593
C16   C     C_R   0.561882 0.307798 0.511115 0.861312
C17   C     C_R   0.654812 0.890072 0.421457 -0.227075
C18   C     C_R   0.573761 0.827502 0.415659 -0.170130
C19   C     C_R   0.516420 0.134049 0.494930 -0.243642
C20   C     C_R   0.706930 0.151776 0.501997 -0.025257
C21   C     C_R   0.400278 0.799690 0.456992 -0.169928
C22   C     C_R   0.092896 0.336766 0.380865 -0.243638
C23   C     C_R   0.705004 0.484860 0.083170 -0.022424
C24   C     C_R   0.802080 0.620306 0.617546 0.012913
C25   C     C_R   0.910527 0.631641 0.653734 -0.237697
C26   C     C_R   0.991909 0.579265 0.613885 -0.108376
C27   C     C_R   0.964531 0.520404 0.533908 0.046776
C28   C     C_R   0.499753 0.498500 0.326980 0.872013
C29   C     C_R   0.854776 0.502132 0.506561 0.214361
C30   C     C_R   0.042546 0.473171 0.484303 -0.020350
C31   C     C_R   0.014228 0.392827 0.422390 0.173332
C32   C     C_R   0.907345 0.370003 0.401976 -0.204433
C33   C     C_R   0.828078 0.426095 0.441505 -0.237034
C34   C     C_R   0.701699 0.489271 0.989514 -0.192645
C35   C     C_R   0.146880 0.503579 0.491253 0.066435
C36   C     C_R   0.198322 0.362258 0.399269 -0.006370
C37   C     C_R   0.403062 0.493122 0.166527 -0.241904
C38   C     C_R   0.500866 0.493860 0.230979 -0.059001
C39   C     C_R   0.600737 0.490858 0.204275 -0.264309
C40   C     C_R   0.604730 0.487875 0.112199 0.017149
C41   C     C_R   0.504187 0.491163 0.046978 0.065629
C42   C     C_2   0.171233 0.604952 0.527677 0.384480
C43   C     C_2   0.814199 0.474822 0.147720 0.408155
C44   C     C_2   0.803949 0.205356 0.534575 0.397530
C45   C     C_R   0.602398 0.494084 0.925627 0.066377
C46   C     C_R   0.503347 0.494195 0.954056 0.064672
C47   C     C_R   0.403025 0.498169 0.889267 0.125344
C48   C     C_R   0.304457 0.498525 0.917273 -0.212623
C49   C     C_R   0.304801 0.495789 0.009697 -0.203686
H1    H     H_    0.326040 0.495369 0.187810 0.171458
H2    H     H_    0.073281 0.273352 0.335388 0.165252
H3    H     H_    0.674451 0.492876 0.256184 0.153384
H4    H     H_    0.738141 0.658384 0.649316 0.146985
H5    H     H_    0.075650 0.582565 0.648877 0.122406
H6    H     H_    0.931718 0.678317 0.713786 0.157406
H7    H     H_    0.747767 0.404575 0.423332 0.209701
H8    H     H_    0.777164 0.487410 0.965895 0.186525
H9    H     H_    0.677194 0.496454 0.810848 0.161769
H10   H     H_    0.325724 0.504978 0.747439 0.147725
H11   H     H_    0.227256 0.501369 0.867764 0.149393
H12   H     H_    0.733127 0.857690 0.406939 0.171794
H13   H     H_    0.227755 0.496853 0.030564 0.165760
H14   H     H_    0.245325 0.611754 0.578212 0.099694
H15   H     H_    0.825768 0.446252 0.216685 0.055993
H16   H     H_    0.801426 0.269070 0.581698 0.099166
H17   H     H_    0.804755 0.014847 0.464849 0.200679
H18   H     H_    0.439383 0.165438 0.511310 0.170278
H19   H     H_    0.233379 0.792176 0.466394 0.226342
H20   H     H_    0.306236 0.094390 0.444263 0.149556
H21   H     H_    0.590761 0.749459 0.392097 0.181665
H22   H     H_    0.260942 0.317893 0.369657 0.142830
H23   H     H_    0.884393 0.309414 0.354185 0.171403
I1    I     I_    0.093860 0.007809 0.446252 -0.293910
N1    N     N_R   0.222190 0.444670 0.452360 -0.138737
N2    N     N_R   0.776970 0.554790 0.547140 -0.135331
O1    O     O_R   0.366740 0.627160 0.477250 -0.625906
O2    O     O_2   0.894488 0.496860 0.123596 -0.565214
O3    O     O_2   0.890342 0.176107 0.511912 -0.548149
O4    O     O_R   0.544830 0.662520 0.507680 -0.616589
O5    O     O_R   0.410940 0.482340 0.616930 -0.646201
O6    O     O_R   0.589030 0.517700 0.647360 -0.623255
O7    O     O_R   0.455170 0.337480 0.492320 -0.607807
O8    O     O_R   0.633260 0.372840 0.522750 -0.653592
O9    O     O_R   0.410970 0.482300 0.352640 -0.612623
O10   O     O_R   0.589060 0.517660 0.383070 -0.650923
O11   O     O_2   0.106046 0.682428 0.502525 -0.575955
Zn1   Zn    Zn3+2 0.381090 0.476390 0.479680 0.945461
Zn2   Zn    Zn3+2 0.618910 0.523610 0.520320 0.921033

loop_
_geom_bond_atom_site_label_1
_geom_bond_atom_site_label_2
_ccdc_geom_bond_type
C18   H21   S    
C35   N1    A    
C1    C21   S    
C28   O9    A    
O9    Zn1   S    
C12   C49   A    
C32   H23   S    
C45   C46   A    
C5    C47   A    
C26   C27   A    
C37   C38   A    
C30   C35   A    
C4    O5    A    
O5    Zn1   S    
C38   C39   A    
C11   C14   A    
C27   C29   A    
O7    Zn1   S    
C29   C33   A    
C23   C43   S    
C12   C37   A    
C35   C42   S    
C17   H12   S    
C6    C15   A    
C4    O6    A    
C47   C48   A    
C8    C9    A    
C34   H8    S    
C41   C46   A    
C19   H18   S    
C42   O11   D    
N1    Zn1   S    
C9    C10   A    
C36   H22   S    
C33   H7    S    
O8    Zn2   S    
C27   C30   A    
C44   H16   S    
C9    I1    S    
C26   H5    S    
O4    Zn2   S    
C20   C44   S    
C43   H15   S    
C48   H11   S    
C2    C45   A    
C22   C31   A    
C5    H10   S    
C24   C25   A    
C39   C40   A    
C24   H4    S    
C16   O8    A    
C12   C41   A    
C31   C32   A    
C28   C38   S    
C23   C34   A    
C16   O7    A    
C17   C18   A    
C13   C21   A    
C34   C45   A    
O1    Zn1   S    
C36   N1    A    
C13   C18   A    
C48   C49   A    
C8    H19   S    
C7    C19   A    
C1    O4    A    
C3    C4    S    
C22   C36   A    
O10   Zn2   S    
C15   C17   A    
C46   C47   A    
C7    C16   S    
C49   H13   S    
C1    O1    A    
C14   C19   A    
C25   H6    S    
C3    C5    A    
C8    C21   A    
C2    H9    S    
C24   N2    A    
C29   N2    A    
C43   O2    D    
C6    C20   A    
C32   C33   A    
C44   O3    D    
C2    C3    A    
C25   C26   A    
C37   H1    S    
C11   C13   A    
C30   C31   A    
C39   H3    S    
O6    Zn2   S    
C10   C11   A    
C10   H20   S    
N2    Zn2   S    
C6    H17   S    
C7    C20   A    
C28   O10   A    
C14   C15   A    
C40   C41   A    
C42   H14   S    
C23   C40   A    
C22   H2    S    
