data_mof_unit_56714.cif
_audit_creation_date              2012-12-10T18:22:21-0500
_audit_creation_method            fapswitch 2.2
_symmetry_space_group_name_H-M    P1
_symmetry_Int_Tables_number       1
_space_group_crystal_system       triclinic
_cell_length_a                    14.976714
_cell_length_b                    14.018625
_cell_length_c                    15.747116
_cell_angle_alpha                 89.923011
_cell_angle_beta                  89.978648
_cell_angle_gamma                 90.22764
_cell_volume                      3306.12394305

loop_
_atom_site_label
_atom_site_type_symbol
_atom_type_description
_atom_site_fract_x
_atom_site_fract_y
_atom_site_fract_z
_atom_type_partial_charge
C1    C     C_R   0.326541 0.500013 0.501127 0.892272
C2    C     C_R   0.906223 0.424425 0.543578 0.014873
C3    C     C_R   0.953525 0.504280 0.512650 0.064316
C4    C     C_R   0.500040 0.500079 0.338170 0.900735
C5    C     C_R   0.907712 0.583196 0.478062 0.138864
C6    C     C_R   0.951483 0.347693 0.579994 -0.194618
C7    C     C_R   0.044166 0.348575 0.585798 0.454819
C8    C     C_R   0.092692 0.425352 0.549048 -0.029344
C9    C     C_R   0.046507 0.504508 0.514572 0.017819
C10   C     C_R   0.093234 0.583347 0.480189 0.145432
C11   C     C_R   0.047337 0.662156 0.447731 -0.179313
C12   C     C_3   0.565169 0.589691 0.952064 0.571978
C13   C     C_R   0.954706 0.662180 0.446858 -0.195463
C14   C     C_R   0.185519 0.424070 0.542579 -0.200373
C15   C     C_R   0.230801 0.501170 0.506219 -0.074882
C16   C     C_R   0.673442 0.500220 0.500366 0.893980
C17   C     C_R   0.185303 0.581356 0.477092 -0.212624
C18   C     C_R   0.564415 0.799047 0.456907 -0.041834
C19   C     C_R   0.564840 0.201555 0.457516 -0.053738
C20   C     C_R   0.435918 0.796847 0.544832 0.079249
C21   C     C_R   0.433934 0.202259 0.542128 0.082465
C22   C     C_R   0.433861 0.898019 0.548368 -0.171920
C23   C     C_3   0.561184 0.587057 0.051230 -0.460432
C24   C     C_R   0.429764 0.100942 0.542651 -0.161302
C25   C     C_R   0.498662 0.949334 0.501720 0.034370
C26   C     C_R   0.498350 0.050435 0.501270 0.033936
C27   C     C_R   0.565337 0.899443 0.456683 0.065641
C28   C     C_R   0.565721 0.101115 0.457230 0.062865
C29   C     C_R   0.368595 0.948799 0.595574 0.308494
C30   C     C_R   0.360022 0.049228 0.583541 0.287469
C31   C     C_R   0.632022 0.050599 0.413383 -0.182599
C32   C     C_R   0.631587 0.950669 0.412776 -0.181879
C33   C     C_R   0.499902 0.499966 0.661790 0.905110
C34   C     C_1   0.502356 0.502056 0.825719 0.171718
C35   C     C_3   0.406414 0.513919 0.048925 -0.449512
C36   C     C_3   0.542902 0.408033 0.049538 -0.477237
C37   C     C_3   0.538929 0.406116 0.950996 0.291623
C38   C     C_3   0.406073 0.517713 0.950632 0.241968
C39   C     C_1   0.500956 0.500261 0.750508 -0.036631
C40   C     C_3   0.502978 0.502531 0.082659 0.118442
C41   C     C_3   0.503634 0.504418 0.917276 -0.045947
C42   C     C_1   0.501753 0.501260 0.174072 -0.008835
C43   C     C_1   0.500828 0.500439 0.249333 -0.170368
C44   C     C_R   0.815436 0.581269 0.474422 -0.231954
C45   C     C_R   0.769131 0.501116 0.503700 -0.060877
C46   C     C_R   0.813924 0.423021 0.538241 -0.198172
H1    H     H_    0.223575 0.363598 0.564672 0.204131
H2    H     H_    0.683310 0.913392 0.378158 0.146046
H3    H     H_    0.364486 0.453342 0.071840 0.208906
H4    H     H_    0.506920 0.346140 0.077951 0.196734
H5    H     H_    0.613605 0.401868 0.070544 0.205337
H6    H     H_    0.376374 0.580558 0.074328 0.193899
H7    H     H_    0.607053 0.393990 0.926449 0.206881
H8    H     H_    0.380298 0.587611 0.929162 0.191371
H9    H     H_    0.533650 0.654474 0.077431 0.228029
H10   H     H_    0.629140 0.581063 0.079244 0.219167
H11   H     H_    0.779704 0.641404 0.447638 0.150768
H12   H     H_    0.221526 0.641185 0.449785 0.160014
H13   H     H_    0.776869 0.361949 0.562112 0.165545
H14   H     H_    0.914665 0.287523 0.605814 0.187397
H15   H     H_    0.286236 0.468314 0.931300 0.347788
H16   H     H_    0.438544 0.314168 0.958885 0.393974
H17   H     H_    0.137538 0.297793 0.657223 0.365776
H18   H     H_    0.231941 0.925779 0.789209 0.391542
H19   H     H_    0.163476 0.006346 0.554751 0.357551
H20   H     H_    0.413102 0.798652 0.936580 0.411683
H21   H     H_    0.799935 0.667941 0.921778 0.393192
H22   H     H_    0.083094 0.723042 0.421979 0.157487
H23   H     H_    0.919880 0.723126 0.420667 0.154045
H24   H     H_    0.614857 0.759669 0.422522 0.128395
H25   H     H_    0.615901 0.241422 0.423936 0.137441
H26   H     H_    0.385390 0.754109 0.575728 0.196967
H27   H     H_    0.385974 0.244285 0.576787 0.188669
H28   H     H_    0.684029 0.088426 0.379163 0.149135
N1    N     N_R   0.500070 0.750030 0.500040 -0.125035
N2    N     N_R   0.500070 0.249970 0.500040 -0.125458
O1    O     O_R   0.367860 0.580280 0.500020 -0.634068
O2    O     O_3   0.488665 0.328285 0.919655 -0.681299
O3    O     O_3   0.083944 0.273420 0.627494 -0.658965
O4    O     O_2   0.229337 0.836812 0.637027 -0.309420
O5    O     O_2   0.365780 0.817479 0.720782 -0.270492
O6    O     O_3   0.269142 0.965109 0.750567 -0.432305
O7    O     O_2   0.266549 0.160791 0.689073 -0.218930
O8    O     O_2   0.236937 0.178435 0.537154 -0.343650
O9    O     O_3   0.170975 0.031567 0.613061 -0.412018
O10   O     O_2   0.596165 0.781965 0.936242 -0.182987
O11   O     O_2   0.511519 0.707064 0.821946 -0.255606
O12   O     O_R   0.367860 0.419720 0.500020 -0.621564
O13   O     O_3   0.432540 0.739728 0.965896 -0.623247
O14   O     O_2   0.726319 0.494826 0.960396 -0.356552
O15   O     O_2   0.687561 0.567926 0.823922 -0.292265
O16   O     O_3   0.739991 0.676403 0.947251 -0.469314
O17   O     O_R   0.500020 0.580310 0.377140 -0.619853
O18   O     O_R   0.500020 0.419690 0.377140 -0.610324
O19   O     O_R   0.632160 0.580270 0.499980 -0.620108
O20   O     O_R   0.632160 0.419730 0.499980 -0.633650
O21   O     O_R   0.500010 0.580240 0.622850 -0.577049
O22   O     O_R   0.500010 0.419760 0.622850 -0.615935
O23   O     O_3   0.347992 0.448051 0.917337 -0.722071
S1    S     S_3+6 0.306819 0.888610 0.676731 0.066742
S2    S     S_3+6 0.257468 0.108059 0.606498 0.081504
S3    S     S_3+6 0.527165 0.707255 0.916205 0.060039
S4    S     S_3+6 0.681898 0.578661 0.918729 0.038296
Zn1   Zn    Zn3+2 0.500020 0.607200 0.499990 0.990893
Zn2   Zn    Zn3+2 0.500020 0.392800 0.499990 0.978238

loop_
_geom_bond_atom_site_label_1
_geom_bond_atom_site_label_2
_ccdc_geom_bond_type
C18   H24   S    
O20   Zn2   S    
O18   Zn2   S    
C18   N1    A    
C22   C29   A    
O13   S3    S    
C1    O1    A    
C19   H25   S    
C36   H4    S    
C7    C8    A    
H17   O3    S    
C45   C46   A    
C11   H22   S    
C12   C23   S    
C33   C39   S    
O22   Zn2   S    
C19   N2    A    
C24   C26   A    
C46   H13   S    
C10   C17   A    
C23   C40   S    
C21   H27   S    
C33   O22   A    
C23   H10   S    
C21   N2    A    
O16   S4    S    
C8    C9    A    
C22   C25   A    
C35   H3    S    
C1    C15   S    
C9    C10   A    
C5    C13   A    
C17   H12   S    
C37   H7    S    
C1    O12   A    
C40   C42   S    
O4    S1    D    
O8    S2    D    
C32   H2    S    
H15   O23   S    
C34   C41   S    
O17   Zn1   S    
H20   O13   S    
C16   O20   A    
C34   C39   T    
C6    H14   S    
C36   C40   S    
C35   C38   S    
C38   C41   S    
C31   H28   S    
C25   C26   A    
C2    C46   A    
C2    C6    A    
C20   N1    A    
C12   S3    S    
C29   C30   A    
C3    C9    A    
O11   S3    D    
C31   C32   A    
C38   H8    S    
C44   H11   S    
C23   H9    S    
C19   C28   A    
H18   O6    S    
C6    C7    A    
C36   H5    S    
C12   S4    S    
C4    O18   A    
C4    C43   S    
C5    C44   A    
C20   C22   A    
N1    Zn1   S    
C42   C43   T    
O10   S3    D    
O9    S2    S    
C44   C45   A    
C12   C41   S    
C7    O3    S    
C15   C17   A    
C36   C37   S    
C16   O19   A    
C8    C14   A    
O7    S2    D    
C29   S1    S    
C27   C32   A    
O6    S1    S    
H16   O2    S    
C28   C31   A    
C18   C27   A    
O15   S4    D    
C38   O23   S    
C3    C5    A    
C16   C45   S    
H19   O9    S    
C14   H1    S    
O5    S1    D    
C25   C27   A    
C37   O2    S    
C26   C28   A    
C2    C3    A    
O19   Zn1   S    
O12   Zn2   S    
C11   C13   A    
C13   H23   S    
C30   S2    S    
H21   O16   S    
C35   C40   S    
C33   O21   A    
C37   C41   S    
C24   C30   A    
O14   S4    D    
O21   Zn1   S    
C10   C11   A    
C4    O17   A    
C21   C24   A    
C35   H6    S    
C14   C15   A    
C20   H26   S    
O1    Zn1   S    
N2    Zn2   S    
