data_mof_unit_23143.cif
_audit_creation_date              2012-12-10T19:43:27-0500
_audit_creation_method            fapswitch 2.2
_symmetry_space_group_name_H-M    P1
_symmetry_Int_Tables_number       1
_space_group_crystal_system       triclinic
_cell_length_a                    10.857069
_cell_length_b                    10.874181
_cell_length_c                    9.570906
_cell_angle_alpha                 90.015772
_cell_angle_beta                  90.954665
_cell_angle_gamma                 91.94363
_cell_volume                      1129.1505074

loop_
_atom_site_label
_atom_site_type_symbol
_atom_type_description
_atom_site_fract_x
_atom_site_fract_y
_atom_site_fract_z
_atom_type_partial_charge
C1    C     C_R   0.507348 0.262494 0.501409 0.800569
C2    C     C_R   0.208524 0.730977 0.024419 -0.116462
C3    C     C_R   0.932883 0.543951 0.387448 -0.251013
C4    C     C_R   0.871567 0.494758 0.503288 -0.076218
C5    C     C_R   0.939908 0.447361 0.616904 -0.004148
C6    C     C_R   0.067643 0.452698 0.612501 -0.246398
C7    C     C_R   0.128693 0.503071 0.497311 -0.084140
C8    C     C_R   0.060664 0.549331 0.383257 -0.001446
C9    C     C_R   0.868208 0.451063 0.862982 -0.132389
C10   C     C_R   0.827473 0.390031 0.983123 -0.142527
C11   C     C_R   0.806820 0.262526 0.981284 -0.124373
C12   C     C_R   0.262514 0.502297 0.498837 0.793859
C13   C     C_R   0.826617 0.195997 0.859144 -0.163201
C14   C     C_R   0.863481 0.257291 0.737543 -0.160404
C15   C     C_R   0.884097 0.385370 0.738811 0.135672
C16   C     C_R   0.542299 0.116638 0.767899 -0.172002
C17   C     C_R   0.518558 0.054765 0.892304 -0.168761
C18   C     C_R   0.462358 0.938682 0.888743 -0.140583
C19   C     C_R   0.439581 0.880524 0.760904 -0.163998
C20   C     C_R   0.476921 0.936405 0.633757 0.098358
C21   C     C_R   0.511604 0.062414 0.636134 0.096312
C22   C     C_R   0.513503 0.128060 0.506965 -0.118955
C23   C     C_R   0.491331 0.737242 0.500761 0.776366
C24   C     C_R   0.506479 0.063341 0.380457 -0.221462
C25   C     C_R   0.496354 0.936393 0.379740 -0.228526
C26   C     C_R   0.482715 0.871374 0.504992 -0.117882
C27   C     C_R   0.658795 0.667519 0.146760 -0.179041
C28   C     C_R   0.734481 0.750710 0.075666 -0.228062
C29   C     C_R   0.734249 0.750627 0.931831 -0.208144
C30   C     C_R   0.658780 0.666890 0.858381 -0.141738
C31   C     C_R   0.577595 0.582570 0.926457 0.209446
C32   C     C_R   0.577563 0.582684 0.076174 0.210476
C33   C     C_R   0.425887 0.421767 0.072556 -0.051670
C34   C     C_R   0.737555 0.496395 0.501349 0.777931
C35   C     C_R   0.425944 0.421775 0.924488 -0.074674
C36   C     C_R   0.224518 0.784968 0.156352 -0.134648
C37   C     C_R   0.179538 0.724207 0.274592 -0.108216
C38   C     C_R   0.118141 0.609036 0.260857 0.132857
C39   C     C_R   0.104617 0.554327 0.128384 -0.153748
C40   C     C_R   0.150086 0.615158 0.010549 -0.137985
Cu1   Cu    Cu3+1 0.499990 0.499990 0.640660 0.923391
Cu2   Cu    Cu3+1 0.500010 0.500010 0.359340 0.934620
H1    H     H_    0.239926 0.779362 0.932672 0.117003
H2    H     H_    0.776620 0.215154 0.074746 0.127517
H3    H     H_    0.812135 0.097006 0.858288 0.139037
H4    H     H_    0.879032 0.204809 0.643644 0.122988
H5    H     H_    0.510186 0.110807 0.281017 0.157861
H6    H     H_    0.589696 0.204595 0.778666 0.191154
H7    H     H_    0.541657 0.098174 0.991602 0.130969
H8    H     H_    0.439077 0.892464 0.985292 0.133814
H9    H     H_    0.390218 0.792965 0.763876 0.158788
H10   H     H_    0.498848 0.889169 0.280171 0.167356
H11   H     H_    0.365080 0.357791 0.126822 0.135184
H12   H     H_    0.269897 0.874724 0.166766 0.120631
H13   H     H_    0.669588 0.673442 0.256779 0.203389
H14   H     H_    0.794809 0.814270 0.876464 0.147872
H15   H     H_    0.670341 0.670913 0.748747 0.202569
H16   H     H_    0.365274 0.357677 0.867867 0.140377
H17   H     H_    0.190238 0.767716 0.376106 0.102733
H18   H     H_    0.058230 0.465167 0.116627 0.131303
H19   H     H_    0.138683 0.573307 0.908349 0.133268
H20   H     H_    0.881237 0.581804 0.300594 0.152435
H21   H     H_    0.119698 0.414318 0.698897 0.153556
H22   H     H_    0.889384 0.548953 0.867051 0.134404
H23   H     H_    0.814368 0.441207 0.078405 0.142617
N1    N     N_R   0.501190 0.501210 0.147910 -0.195739
N2    N     N_R   0.501230 0.501290 0.852040 -0.201916
O1    O     O_R   0.499990 0.319640 0.618810 -0.591924
O2    O     O_R   0.500000 0.319660 0.381240 -0.584000
O3    O     O_R   0.319640 0.500000 0.618780 -0.591212
O4    O     O_R   0.319650 0.500020 0.381210 -0.565594
O5    O     O_R   0.500000 0.680340 0.618760 -0.612947
O6    O     O_R   0.500010 0.680360 0.381190 -0.594391
O7    O     O_R   0.680350 0.499980 0.618790 -0.593431
O8    O     O_R   0.680360 0.500000 0.381220 -0.606795
H24   H     H_    0.795113 0.814568 0.132971 0.154082

loop_
_geom_bond_atom_site_label_1
_geom_bond_atom_site_label_2
_ccdc_geom_bond_type
C16   C21   A    
C9    H22   S    
Cu1   Cu2   S    
C19   C20   A    
C16   H6    S    
C7    C8    A    
C14   H4    S    
C31   N2    A    
Cu2   O8    S    
C37   C38   A    
C35   H16   S    
C36   C37   A    
C5    C6    A    
C27   H13   S    
C3    H20   S    
C30   H15   S    
C1    O1    A    
C18   C19   A    
C23   C26   S    
Cu1   O7    S    
C16   C17   A    
C9    C10   A    
C34   O8    A    
C1    C22   S    
C21   C22   A    
C8    C38   S    
C23   O6    A    
C33   N1    A    
Cu1   O1    S    
C33   H11   S    
C7    C12   S    
C4    C34   S    
C38   C39   A    
C24   C25   A    
Cu1   N2    S    
C3    C8    A    
C17   H7    S    
C39   C40   A    
C25   C26   A    
Cu2   O2    S    
C1    O2    A    
C40   H19   S    
C6    H21   S    
C29   C30   A    
C19   H9    S    
C31   C32   A    
C35   N2    A    
C2    H1    S    
C17   C18   A    
C11   H2    S    
C37   H17   S    
C34   O7    A    
Cu1   O5    S    
C12   O4    A    
C22   C24   A    
C3    C4    A    
C28   H24   S    
C18   H8    S    
C32   N1    A    
C10   H23   S    
C2    C36   A    
C12   O3    A    
C28   C29   A    
Cu2   O6    S    
C27   C32   A    
C24   H5    S    
C23   O5    A    
C4    C5    A    
C6    C7    A    
C29   H14   S    
C9    C15   A    
C25   H10   S    
C13   H3    S    
C11   C13   A    
C30   C31   A    
C20   C26   A    
C39   H18   S    
Cu2   O4    S    
C33   C35   A    
C5    C15   S    
C36   H12   S    
C10   C11   A    
C2    C40   A    
C20   C21   A    
C27   C28   A    
Cu2   N1    S    
C14   C15   A    
C13   C14   A    
Cu1   O3    S    
