data_mof_unit_38867.cif
_audit_creation_date              2012-12-10T17:11:04-0500
_audit_creation_method            fapswitch 2.2
_symmetry_space_group_name_H-M    P1
_symmetry_Int_Tables_number       1
_space_group_crystal_system       triclinic
_cell_length_a                    10.020334
_cell_length_b                    10.739644
_cell_length_c                    16.669294
_cell_angle_alpha                 90.211862
_cell_angle_beta                  83.626861
_cell_angle_gamma                 89.960224
_cell_volume                      1782.76383105

loop_
_atom_site_label
_atom_site_type_symbol
_atom_type_description
_atom_site_fract_x
_atom_site_fract_y
_atom_site_fract_z
_atom_type_partial_charge
C1    C     C_R   0.499907 0.737388 0.501322 0.925539
C2    C     C_R   0.538814 0.495674 0.259312 -0.085257
C3    C     C_2   0.613614 0.066814 0.496748 -0.161316
C4    C     C_R   0.479576 0.496854 0.653264 0.848661
C5    C     C_2   0.502199 0.131318 0.488384 -0.340175
C6    C     C_2   0.613518 0.932848 0.492025 -0.162374
C7    C     C_2   0.499210 0.869144 0.507386 -0.341100
C8    C     C_2   0.077803 0.402847 0.483252 -0.168145
C9    C     C_2   0.930856 0.409702 0.468574 0.247905
C10   C     C_R   0.500526 0.262684 0.497655 0.934607
C11   C     C_R   0.520497 0.501432 0.346700 0.845773
C12   C     C_R   0.371208 0.521911 0.795597 0.163660
C13   C     C_R   0.463692 0.462277 0.737694 -0.064651
C14   C     C_R   0.537971 0.359156 0.759150 -0.230251
C15   C     C_R   0.527950 0.319553 0.838438 -0.188035
C16   C     C_R   0.445402 0.384434 0.897001 0.106452
C17   C     C_R   0.363414 0.481632 0.875606 -0.220800
C18   C     C_3   0.959909 0.217724 0.383878 -0.879917
C19   C     C_3   0.374286 0.675638 0.250986 -0.376233
C20   C     C_3   0.326564 0.772932 0.193650 -0.913412
C21   C     C_3   0.680294 0.499598 0.948503 -0.408623
C22   C     C_3   0.786346 0.572958 0.988280 -0.879379
C23   C     C_R   0.484159 0.556347 0.127829 -0.198297
C24   C     C_3   0.287700 0.632942 0.776002 -0.424818
C25   C     C_3   0.142212 0.594966 0.770645 -0.823691
C26   C     C_3   0.362539 0.304884 0.037115 -0.405478
C27   C     C_3   0.413968 0.178157 0.061186 -0.857506
C28   C     C_R   0.466968 0.574689 0.211594 0.141348
C29   C     C_R   0.630606 0.407643 0.223523 -0.229666
C30   C     C_R   0.646239 0.391348 0.140701 -0.178612
C31   C     C_R   0.570030 0.463038 0.093515 0.170354
C32   C     C_2   0.468422 0.373012 0.981393 0.064241
C33   C     C_2   0.572747 0.437400 0.007439 0.083569
H1    H     H_    0.605667 0.310289 0.714440 0.160293
H2    H     H_    0.686710 0.348205 0.260113 0.147016
H3    H     H_    0.300892 0.531817 0.922279 0.132626
H4    H     H_    0.428404 0.610674 0.088342 0.145398
H5    H     H_    0.591885 0.244785 0.855210 0.140429
H6    H     H_    0.803909 0.346318 0.386731 0.266891
H7    H     H_    0.899397 0.155319 0.348853 0.244765
H8    H     H_    0.001736 0.160036 0.430257 0.245417
H9    H     H_    0.041852 0.258855 0.341872 0.249976
H10   H     H_    0.413641 0.816305 0.157087 0.265063
H11   H     H_    0.257926 0.730099 0.153482 0.254811
H12   H     H_    0.713684 0.320168 0.113633 0.137074
H13   H     H_    0.270153 0.847284 0.229404 0.255968
H14   H     H_    0.284398 0.630978 0.283808 0.225709
H15   H     H_    0.428183 0.726643 0.295800 0.201581
H16   H     H_    0.738728 0.649775 0.026060 0.265891
H17   H     H_    0.841929 0.510605 0.025941 0.261130
H18   H     H_    0.859462 0.614184 0.940803 0.246504
H19   H     H_    0.733578 0.426690 0.909812 0.213817
H20   H     H_    0.631521 0.564793 0.909082 0.216811
H21   H     H_    0.083174 0.677611 0.755760 0.238826
H22   H     H_    0.137025 0.523651 0.722655 0.273532
H23   H     H_    0.707046 0.112191 0.507229 0.192908
H24   H     H_    0.096774 0.556698 0.829230 0.248368
H25   H     H_    0.290623 0.705179 0.823727 0.195510
H26   H     H_    0.328390 0.677718 0.718555 0.202894
H27   H     H_    0.443073 0.120523 0.006547 0.254616
H28   H     H_    0.501938 0.188652 0.095493 0.260602
H29   H     H_    0.333471 0.129047 0.099912 0.248422
H30   H     H_    0.329046 0.360709 0.091800 0.209338
H31   H     H_    0.271689 0.288931 0.005725 0.207759
H32   H     H_    0.410506 0.088803 0.472593 0.148858
H33   H     H_    0.709620 0.886524 0.477261 0.172679
H34   H     H_    0.403206 0.912425 0.526718 0.148945
H35   H     H_    0.129862 0.314577 0.475754 0.184483
H36   H     H_    0.101736 0.584194 0.499146 0.157359
H37   H     H_    0.891480 0.560682 0.537390 0.139124
N1    N     N_2   0.147950 0.498670 0.499150 -0.211991
N2    N     N_2   0.852290 0.498640 0.499130 -0.232392
N3    N     N_2   0.874622 0.314809 0.422008 -0.266589
O1    O     O_R   0.386960 0.680940 0.500010 -0.622407
O2    O     O_R   0.613100 0.680900 0.499990 -0.610636
O3    O     O_R   0.373570 0.500040 0.615810 -0.594451
O4    O     O_R   0.599710 0.500000 0.615790 -0.611635
O5    O     O_R   0.386900 0.319100 0.500010 -0.618798
O6    O     O_R   0.613040 0.319060 0.499990 -0.609430
O7    O     O_R   0.400290 0.500000 0.384210 -0.610668
O8    O     O_R   0.626430 0.499960 0.384190 -0.627780
Zn1   Zn    Zn3+2 0.349000 0.500030 0.500020 0.930593
Zn2   Zn    Zn3+2 0.651000 0.499970 0.499980 0.930418

loop_
_geom_bond_atom_site_label_1
_geom_bond_atom_site_label_2
_ccdc_geom_bond_type
C21   H20   S    
C26   C32   S    
C30   H12   S    
C19   C20   S    
C9    N2    D    
C3    C6    S    
C10   O5    A    
C11   O8    A    
C26   C27   S    
C25   H24   S    
C2    C29   A    
C1    O1    A    
C27   H27   S    
C18   H9    S    
C30   C31   A    
C19   H14   S    
C21   C33   S    
O4    Zn2   S    
C15   C16   A    
C4    C13   S    
H36   N1    S    
C26   H31   S    
C18   H7    S    
C27   H28   S    
O8    Zn2   S    
C8    C9    S    
C12   C17   A    
C31   C33   S    
C17   H3    S    
C22   H17   S    
N1    Zn1   S    
C13   C14   A    
C9    N3    S    
O1    Zn1   S    
C2    C11   S    
C20   H11   S    
C1    O2    A    
C25   H21   S    
O7    Zn1   S    
C18   H8    S    
O3    Zn1   S    
C19   H15   S    
C16   C17   A    
C23   H4    S    
C23   C31   A    
C26   H30   S    
C15   H5    S    
C29   C30   A    
C27   H29   S    
C3    H23   S    
O5    Zn1   S    
C6    H33   S    
C23   C28   A    
C24   C25   S    
C19   C28   S    
C22   H16   S    
C5    H32   S    
C8    H35   S    
C18   N3    S    
C20   H10   S    
C12   C24   S    
C8    N1    D    
C1    C7    S    
C25   H22   S    
C3    C5    D    
C14   H1    S    
C2    C28   A    
C10   O6    A    
C6    C7    D    
C16   C32   S    
C29   H2    S    
C32   C33   D    
C5    C10   S    
O6    Zn2   S    
O2    Zn2   S    
C24   H26   S    
H6    N3    S    
C4    O3    A    
N2    Zn2   S    
C11   O7    A    
C7    H34   S    
C4    O4    A    
C12   C13   A    
C24   H25   S    
C14   C15   A    
H37   N2    S    
C21   C22   S    
C21   H19   S    
C20   H13   S    
C22   H18   S    
