data_mof_unit_56130.cif
_audit_creation_date              2012-12-11T14:13:27-0500
_audit_creation_method            fapswitch 2.2
_symmetry_space_group_name_H-M    P1
_symmetry_Int_Tables_number       1
_space_group_crystal_system       triclinic
_cell_length_a                    17.264449
_cell_length_b                    17.50536
_cell_length_c                    17.377125
_cell_angle_alpha                 90.002808
_cell_angle_beta                  89.569928
_cell_angle_gamma                 90.345698
_cell_volume                      5251.47804459

loop_
_atom_site_label
_atom_site_type_symbol
_atom_type_description
_atom_site_fract_x
_atom_site_fract_y
_atom_site_fract_z
_atom_type_partial_charge
C1    C     C_R   0.604563 0.304381 0.100365 -0.087178
C2    C     C_R   0.169166 0.077912 0.642341 -0.085312
C3    C     C_R   0.896812 0.192425 0.611135 -0.097536
C4    C     C_R   0.832239 0.923826 0.644319 -0.058624
C5    C     C_R   0.104886 0.193812 0.392868 -0.068498
C6    C     C_R   0.170550 0.922111 0.357867 -0.077400
C7    C     C_R   0.897096 0.808112 0.387340 -0.106911
C8    C     C_R   0.830718 0.078586 0.357517 -0.074744
C9    C     C_R   0.583414 0.674567 0.139311 -0.086653
C10   C     C_R   0.304927 0.603227 0.107957 -0.080000
C11   C     C_R   0.418559 0.329287 0.142199 -0.067562
C12   C     C_R   0.662788 0.574673 0.146398 -0.053183
C13   C     C_R   0.696100 0.393558 0.102169 -0.134290
C14   C     C_R   0.584503 0.324280 0.861793 -0.090776
C15   C     C_R   0.305318 0.396790 0.891668 -0.073552
C16   C     C_R   0.414329 0.675988 0.862244 -0.088241
C17   C     C_R   0.695243 0.605525 0.892131 -0.123454
C18   C     C_R   0.085479 0.175330 0.638362 -0.084409
C19   C     C_R   0.804584 0.103551 0.607119 -0.078055
C20   C     C_R   0.917531 0.828372 0.641469 -0.062875
C21   C     C_R   0.195275 0.896587 0.606731 -0.085805
C22   C     C_R   0.086229 0.824239 0.362124 -0.087283
C23   C     C_R   0.397217 0.692162 0.111732 -0.088487
C24   C     C_R   0.805325 0.896783 0.391462 -0.067370
C25   C     C_R   0.918066 0.173531 0.360940 -0.054891
C26   C     C_R   0.195316 0.104462 0.392388 -0.096424
C27   C     C_R   0.679127 0.318327 0.117916 0.023238
C28   C     C_R   0.635558 0.636334 0.187082 0.018794
C29   C     C_R   0.322191 0.676132 0.132451 0.021640
C30   C     C_R   0.363370 0.365330 0.187821 0.026732
C31   C     C_R   0.677615 0.678953 0.868648 0.023668
C32   C     C_R   0.637689 0.362232 0.813845 0.025237
C33   C     C_R   0.322618 0.324245 0.866439 0.026681
C34   C     C_R   0.332564 0.424010 0.144602 -0.055675
C35   C     C_R   0.358181 0.639530 0.816853 0.036800
C36   C     C_R   0.178628 0.822896 0.629157 0.023176
C37   C     C_R   0.140992 0.138569 0.683883 0.041287
C38   C     C_R   0.821373 0.176857 0.631089 0.025430
C39   C     C_R   0.862381 0.864603 0.687167 0.019622
C40   C     C_R   0.179785 0.178711 0.371059 0.036521
C41   C     C_R   0.142509 0.861232 0.316405 0.042108
C42   C     C_R   0.822313 0.823930 0.366418 0.026273
C43   C     C_R   0.861366 0.139215 0.316829 -0.002878
C44   C     C_2   0.722489 0.809091 0.841131 -0.110100
C45   C     C_R   0.602765 0.693330 0.890354 -0.085143
C46   C     C_2   0.352355 0.709583 0.694021 -0.050232
C47   C     C_2   0.200243 0.253179 0.855363 -0.052976
C48   C     C_2   0.644783 0.290262 0.691911 -0.041916
C49   C     C_2   0.738423 0.287991 0.234007 -0.052088
C50   C     C_2   0.267739 0.360454 0.291842 -0.107171
C51   C     C_2   0.200059 0.746393 0.144539 -0.056226
C52   C     C_2   0.645254 0.708576 0.308839 -0.047583
C53   C     C_2   0.224497 0.309408 0.343581 -0.099593
C54   C     C_2   0.773723 0.235804 0.286614 -0.093221
C55   C     C_2   0.698725 0.753796 0.356305 -0.063116
C56   C     C_R   0.665032 0.424167 0.854158 -0.058815
C57   C     C_2   0.148227 0.791926 0.193327 -0.046072
C58   C     C_2   0.301489 0.754277 0.644025 -0.068756
C59   C     C_2   0.766186 0.860861 0.790743 -0.122062
C60   C     C_2   0.697492 0.245248 0.643280 -0.067058
C61   C     C_2   0.147901 0.208028 0.806937 -0.046677
C62   C     C_2   0.729712 0.733296 0.832155 -0.093414
C63   C     C_2   0.321134 0.662293 0.745945 -0.189608
C64   C     C_2   0.271789 0.270388 0.829354 -0.159948
C65   C     C_2   0.674244 0.340346 0.741614 -0.198478
C66   C     C_2   0.722978 0.266882 0.162316 -0.090766
C67   C     C_R   0.397242 0.308227 0.887249 -0.102526
C68   C     C_2   0.337142 0.340610 0.263877 -0.171369
C69   C     C_2   0.271547 0.730008 0.169537 -0.158205
C70   C     C_2   0.673829 0.659323 0.257738 -0.201413
C71   C     C_2   0.235989 0.233576 0.341164 -0.154886
C72   C     C_2   0.818186 0.179196 0.261024 -0.115618
C73   C     C_2   0.770837 0.769232 0.330487 -0.157558
C74   C     C_2   0.179016 0.839891 0.244307 -0.191373
C75   C     C_2   0.228530 0.769023 0.666712 -0.158809
C76   C     C_2   0.835249 0.839789 0.762785 -0.163579
C77   C     C_2   0.770117 0.231543 0.666988 -0.159517
C78   C     C_R   0.329952 0.578353 0.858159 -0.076358
C79   C     C_2   0.178171 0.160699 0.754996 -0.192489
C80   C     C_2   0.567803 0.757481 0.137336 0.980607
C81   C     C_2   0.226460 0.577783 0.087906 0.999191
C82   C     C_2   0.443684 0.249640 0.151358 0.963521
C83   C     C_2   0.776324 0.424509 0.094845 1.034300
C84   C     C_2   0.568960 0.241130 0.865770 0.970409
C85   C     C_2   0.226687 0.421474 0.912106 0.988695
C86   C     C_2   0.431102 0.758849 0.865171 0.979390
C87   C     C_2   0.775347 0.576895 0.902952 1.010560
C88   C     C_2   0.068629 0.258005 0.636323 0.971539
C89   C     C_R   0.103977 0.806935 0.608659 -0.080090
C90   C     C_2   0.726452 0.077776 0.586322 0.998670
C91   C     C_2   0.941024 0.747979 0.648892 0.948228
C92   C     C_2   0.273809 0.922693 0.586542 1.015413
C93   C     C_2   0.069433 0.741325 0.365272 0.965356
C94   C     C_2   0.726761 0.922292 0.410910 0.981084
C95   C     C_2   0.941848 0.254389 0.356232 0.957558
C96   C     C_2   0.273682 0.079079 0.411759 0.995238
H1    H     H_    0.579197 0.248407 0.094772 0.169081
H2    H     H_    0.214657 0.040248 0.659844 0.141877
H3    H     H_    0.922377 0.248604 0.610676 0.153525
H4    H     H_    0.787977 0.962822 0.662309 0.127434
H5    H     H_    0.080715 0.249803 0.398666 0.148473
H6    H     H_    0.216769 0.960074 0.340564 0.129604
H7    H     H_    0.922131 0.752025 0.386887 0.150962
H8    H     H_    0.780864 0.044971 0.342035 0.147086
H9    H     H_    0.677734 0.832978 0.877931 0.148135
H10   H     H_    0.413990 0.721806 0.693280 0.170863
H11   H     H_    0.177587 0.278122 0.907963 0.142448
H12   H     H_    0.701460 0.532835 0.169537 0.121220
H13   H     H_    0.583706 0.275443 0.692987 0.170179
H14   H     H_    0.721570 0.343846 0.255736 0.116904
H15   H     H_    0.235464 0.407321 0.267261 0.159405
H16   H     H_    0.177042 0.720490 0.092786 0.140020
H17   H     H_    0.583996 0.721716 0.310723 0.173045
H18   H     H_    0.174894 0.333261 0.373436 0.144350
H19   H     H_    0.768446 0.247884 0.347882 0.136331
H20   H     H_    0.676246 0.780415 0.408110 0.138071
H21   H     H_    0.086752 0.778821 0.193704 0.168437
H22   H     H_    0.326278 0.781043 0.593181 0.140355
H23   H     H_    0.422660 0.748418 0.111194 0.154939
H24   H     H_    0.735021 0.909083 0.767446 0.162303
H25   H     H_    0.674079 0.217325 0.592826 0.140333
H26   H     H_    0.086419 0.220241 0.808353 0.173775
H27   H     H_    0.771486 0.709383 0.792055 0.168969
H28   H     H_    0.262828 0.640193 0.737790 0.147183
H29   H     H_    0.294815 0.247373 0.776036 0.147616
H30   H     H_    0.731890 0.363792 0.731598 0.141499
H31   H     H_    0.729166 0.208722 0.141687 0.128102
H32   H     H_    0.370603 0.297246 0.292734 0.190790
H33   H     H_    0.294849 0.754015 0.222068 0.146300
H34   H     H_    0.288157 0.462836 0.162636 0.124421
H35   H     H_    0.732027 0.637300 0.265248 0.141886
H36   H     H_    0.283821 0.209147 0.309057 0.177475
H37   H     H_    0.830330 0.167926 0.200809 0.151442
H38   H     H_    0.793807 0.743940 0.278221 0.145257
H39   H     H_    0.237349 0.862006 0.235146 0.147082
H40   H     H_    0.203141 0.744142 0.718179 0.151774
H41   H     H_    0.866857 0.794663 0.791088 0.208078
H42   H     H_    0.793892 0.258287 0.717943 0.148194
H43   H     H_    0.236578 0.139260 0.762752 0.151728
H44   H     H_    0.546290 0.849477 0.071019 0.334452
H45   H     H_    0.575921 0.748502 0.891287 0.144614
H46   H     H_    0.146381 0.568808 0.004599 0.330817
H47   H     H_    0.484002 0.167291 0.221306 0.341937
H48   H     H_    0.847183 0.513825 0.072377 0.342950
H49   H     H_    0.540276 0.151473 0.933536 0.341979
H50   H     H_    0.146773 0.432273 0.996387 0.335887
H51   H     H_    0.455713 0.849732 0.932336 0.334983
H52   H     H_    0.890376 0.597945 0.896662 0.339250
H53   H     H_    0.042921 0.349052 0.570158 0.335077
H54   H     H_    0.646467 0.070640 0.502727 0.331334
H55   H     H_    0.975244 0.661982 0.717686 0.337864
H56   H     H_    0.705242 0.465228 0.830956 0.121199
H57   H     H_    0.355370 0.932632 0.503535 0.341080
H58   H     H_    0.039498 0.651430 0.432187 0.340096
H59   H     H_    0.646169 0.934447 0.494334 0.331748
H60   H     H_    0.964326 0.352128 0.413517 0.329557
H61   H     H_    0.381414 0.054138 0.374482 0.337099
H62   H     H_    0.422248 0.252136 0.886558 0.151893
H63   H     H_    0.283706 0.540819 0.840995 0.134786
H64   H     H_    0.080347 0.750095 0.604860 0.163871
N1    N     N_R   0.574080 0.369570 0.076720 -0.062260
N2    N     N_R   0.130430 0.074080 0.576720 -0.050993
N3    N     N_R   0.925920 0.130430 0.576720 -0.053600
N4    N     N_R   0.869570 0.925920 0.576720 -0.050551
N5    N     N_R   0.074080 0.130430 0.423280 -0.060514
N6    N     N_R   0.130430 0.925920 0.423280 -0.048948
N7    N     N_R   0.925920 0.869570 0.423280 -0.053824
N8    N     N_R   0.869570 0.074080 0.423280 -0.049695
N9    N     N_R   0.574050 0.630410 0.076720 -0.061075
N10   N     N_R   0.369590 0.574050 0.076720 -0.081159
N11   N     N_R   0.425950 0.369590 0.076720 -0.063335
N12   N     N_R   0.630430 0.574080 0.076720 -0.038020
N13   N     N_R   0.630410 0.425950 0.076720 -0.069505
N14   N     N_R   0.574050 0.369590 0.923280 -0.063129
N15   N     N_R   0.369590 0.425950 0.923280 -0.079365
N16   N     N_R   0.425950 0.630410 0.923280 -0.057431
N17   N     N_R   0.630410 0.574050 0.923280 -0.068188
N18   N     N_R   0.074050 0.130410 0.576720 -0.059180
N19   N     N_R   0.869590 0.074050 0.576720 -0.080708
N20   N     N_R   0.925950 0.869590 0.576720 -0.062019
N21   N     N_R   0.130410 0.925950 0.576720 -0.079781
N22   N     N_R   0.074050 0.869590 0.423280 -0.059192
N23   N     N_R   0.425920 0.630430 0.076720 -0.054022
N24   N     N_R   0.869590 0.925950 0.423280 -0.079090
N25   N     N_R   0.925950 0.130410 0.423280 -0.062072
N26   N     N_R   0.130410 0.074050 0.423280 -0.078052
N27   N     N_R   0.369570 0.425920 0.076720 -0.049523
N28   N     N_R   0.574080 0.630430 0.923280 -0.055779
N29   N     N_R   0.630430 0.425920 0.923280 -0.042326
N30   N     N_R   0.425920 0.369570 0.923280 -0.054797
N31   N     N_R   0.369570 0.574080 0.923280 -0.047933
N32   N     N_R   0.074080 0.869570 0.576720 -0.058649
Ni1   Ni    Ni4+2 0.500000 0.370760 0.000000 0.271264
Ni2   Ni    Ni4+2 0.629240 0.500000 0.000000 0.282097
Ni3   Ni    Ni4+2 0.500000 0.629240 0.000000 0.273703
Ni4   Ni    Ni4+2 0.370760 0.500000 0.000000 0.267757
Ni5   Ni    Ni4+2 0.000000 0.870760 0.500000 0.277828
Ni6   Ni    Ni4+2 0.129240 0.000000 0.500000 0.271715
Ni7   Ni    Ni4+2 0.000000 0.129240 0.500000 0.271528
Ni8   Ni    Ni4+2 0.870760 0.000000 0.500000 0.267168
O1    O     O_2   0.566331 0.795680 0.196034 -0.639264
O2    O     O_R   0.548812 0.208731 0.936768 -0.794566
O3    O     O_2   0.179904 0.435211 0.861572 -0.622648
O4    O     O_R   0.204145 0.422177 0.989414 -0.790592
O5    O     O_2   0.430625 0.798141 0.807196 -0.634969
O6    O     O_R   0.445476 0.792785 0.936509 -0.782827
O7    O     O_2   0.786229 0.512408 0.926777 -0.631043
O8    O     O_R   0.839104 0.623981 0.886737 -0.800206
O9    O     O_2   0.070282 0.296946 0.694519 -0.635815
O10   O     O_R   0.052973 0.292234 0.565466 -0.791425
O11   O     O_2   0.680100 0.059168 0.636527 -0.621113
O12   O     O_R   0.556081 0.792625 0.066173 -0.785605
O13   O     O_R   0.703670 0.081864 0.509508 -0.800207
O14   O     O_2   0.943236 0.707537 0.591542 -0.619218
O15   O     O_R   0.960289 0.717827 0.720634 -0.812474
O16   O     O_2   0.318806 0.941633 0.637153 -0.613758
O17   O     O_R   0.298688 0.918380 0.510035 -0.792193
O18   O     O_2   0.075965 0.700903 0.308422 -0.634472
O19   O     O_R   0.048851 0.708534 0.435975 -0.786639
O20   O     O_2   0.680526 0.935744 0.359801 -0.622763
O21   O     O_R   0.703550 0.924031 0.488003 -0.794874
O22   O     O_2   0.953541 0.284274 0.293586 -0.607422
O23   O     O_2   0.179946 0.561122 0.138651 -0.623001
O24   O     O_R   0.948407 0.297209 0.423795 -0.791645
O25   O     O_2   0.290638 0.069210 0.479074 -0.627542
O26   O     O_R   0.329395 0.070594 0.353713 -0.807242
O27   O     O_R   0.203676 0.579804 0.011018 -0.795911
O28   O     O_2   0.442124 0.206658 0.095907 -0.614936
O29   O     O_R   0.468472 0.223034 0.222806 -0.815564
O30   O     O_2   0.831465 0.383090 0.108011 -0.602993
O31   O     O_R   0.790031 0.500073 0.073262 -0.789718
O32   O     O_2   0.576012 0.200238 0.809332 -0.629218

loop_
_geom_bond_atom_site_label_1
_geom_bond_atom_site_label_2
_ccdc_geom_bond_type
C36   C89   A    
C79   H43   S    
N18   Ni7   S    
C6    N6    A    
C11   N11   A    
C59   H24   S    
C40   C71   S    
N10   N23   A    
C24   N24   A    
C10   C81   S    
C24   C42   A    
H48   O31   S    
N12   Ni2   S    
C34   N27   A    
N6    N22   A    
C8    C43   A    
C14   C84   S    
N11   Ni1   S    
C2    N2    A    
N15   N30   A    
C63   H28   S    
C67   N30   A    
H46   O27   S    
C20   N20   A    
C21   C36   A    
C76   H41   S    
C2    H2    S    
C21   N21   A    
C37   C79   S    
H44   O12   S    
C43   C72   S    
N17   N28   A    
C12   C28   A    
C23   C29   A    
C12   N12   A    
C19   C38   A    
C18   C37   A    
C91   O14   D    
C49   H14   S    
N5    Ni7   S    
C16   C35   A    
C23   H23   S    
C90   O11   D    
N27   Ni4   S    
N21   N32   A    
C7    C42   A    
C22   C41   A    
C55   H20   S    
C44   C59   S    
C17   N17   A    
C49   C54   S    
C58   H22   S    
C66   H31   S    
N32   Ni5   S    
H54   O13   S    
C38   C77   S    
N31   Ni4   S    
C70   H35   S    
C91   O15   S    
N20   Ni5   S    
C8    N8    A    
N30   Ni1   S    
C41   C74   S    
C9    N9    A    
N29   Ni2   S    
C80   O1    D    
N28   Ni3   S    
C3    C38   A    
N24   Ni8   S    
C6    C41   A    
C94   O21   S    
N23   Ni3   S    
C4    N4    A    
C51   C57   S    
C5    N5    A    
C48   C65   D    
C56   H56   S    
C81   O27   S    
C68   H32   S    
H57   O17   S    
C85   O4    S    
C52   C55   S    
C3    N3    A    
C80   O12   S    
C95   O24   S    
C1    C27   A    
C16   N16   A    
C48   H13   S    
C71   H36   S    
C69   H33   S    
N3    Ni7   S    
C59   C76   D    
C88   O10   S    
C46   C58   S    
C16   C86   S    
C31   C62   S    
C86   O6    S    
C92   O17   S    
N22   Ni5   S    
N21   Ni6   S    
C86   O5    D    
C62   H27   S    
C58   C75   D    
C48   C60   S    
C29   C69   S    
C11   C82   S    
C26   C96   S    
C81   O23   D    
C20   C91   S    
C5    H5    S    
C60   C77   D    
C50   C53   S    
N17   Ni2   S    
C30   C34   A    
C95   O22   D    
C77   H42   S    
C11   C30   A    
N9    Ni3   S    
C49   C66   D    
C1    H1    S    
C47   C64   D    
C12   H12   S    
C20   C39   A    
C85   O3    D    
C75   H40   S    
N16   N31   A    
C44   C62   D    
C44   H9    S    
C82   O28   D    
C54   H19   S    
H47   O29   S    
C93   O18   D    
C9    C80   S    
C96   O26   S    
C57   C74   D    
H51   O6    S    
C13   N13   A    
N6    Ni6   S    
C23   N23   A    
C36   C75   S    
C24   C94   S    
N1    N13   A    
C61   H26   S    
N7    N24   A    
C4    C39   A    
C74   H39   S    
C94   O20   D    
N7    Ni5   S    
N1    Ni1   S    
C39   C76   S    
N25   Ni7   S    
C8    H8    S    
C87   O7    D    
H55   O15   S    
C25   N25   A    
H61   O26   S    
C45   H45   S    
C10   C29   A    
C25   C43   A    
C83   O30   D    
C82   O29   S    
C25   C95   S    
C47   H11   S    
C88   O9    D    
C4    H4    S    
N3    N19   A    
C17   C31   A    
N9    N12   A    
H59   O21   S    
C93   O19   S    
C31   C45   A    
C53   C71   D    
C19   N19   A    
N15   Ni4   S    
C53   H18   S    
C33   C67   A    
C89   H64   S    
C57   H21   S    
C84   O2    S    
C7    N7    A    
C56   N29   A    
C42   C73   S    
N8    N25   A    
N8    Ni8   S    
C17   C87   S    
N2    Ni6   S    
C13   C27   A    
C78   N31   A    
N5    N26   A    
C14   C32   A    
N4    N20   A    
C47   C61   S    
C35   C63   S    
C45   N28   A    
C18   N18   A    
C15   N15   A    
C10   N10   A    
C13   C83   S    
C35   C78   A    
H53   O10   S    
C15   C85   S    
C46   C63   D    
H60   O24   S    
C65   H30   S    
C14   N14   A    
C19   C90   S    
C96   O25   D    
N10   Ni4   S    
C26   N26   A    
C2    C37   A    
C26   C40   A    
C72   H37   S    
H49   O2    S    
C83   O31   S    
C61   C79   D    
C33   C64   S    
C52   H17   S    
C46   H10   S    
C50   H15   S    
C22   C93   S    
C89   N32   A    
C15   C33   A    
C92   O16   D    
C67   H62   S    
C6    H6    S    
N16   Ni3   S    
C60   H25   S    
C84   O32   D    
C18   C88   S    
C87   O8    S    
N2    N18   A    
C52   C70   D    
C51   H16   S    
H52   O8    S    
N14   N29   A    
C1    N1    A    
C28   C70   S    
C55   C73   D    
C3    H3    S    
C78   H63   S    
C54   C72   D    
C73   H38   S    
C34   H34   S    
N14   Ni1   S    
C22   N22   A    
C64   H29   S    
N19   Ni8   S    
C5    C40   A    
H50   O4    S    
N13   Ni2   S    
C27   C66   S    
N26   Ni6   S    
C7    H7    S    
C51   C69   D    
H58   O19   S    
C50   C68   D    
N11   N27   A    
C32   C56   A    
C90   O13   S    
C30   C68   S    
N4    Ni8   S    
C9    C28   A    
C32   C65   S    
C21   C92   S    
