data_mof_unit_57997.cif
_audit_creation_date              2012-12-10T18:36:55-0500
_audit_creation_method            fapswitch 2.2
_symmetry_space_group_name_H-M    P1
_symmetry_Int_Tables_number       1
_space_group_crystal_system       triclinic
_cell_length_a                    13.890624
_cell_length_b                    13.864999
_cell_length_c                    15.151298
_cell_angle_alpha                 90.460615
_cell_angle_beta                  89.180179
_cell_angle_gamma                 83.664128
_cell_volume                      2899.78539709

loop_
_atom_site_label
_atom_site_type_symbol
_atom_type_description
_atom_site_fract_x
_atom_site_fract_y
_atom_site_fract_z
_atom_type_partial_charge
C1    C     C_R   0.500467 0.500901 0.329780 0.852040
C2    C     C_R   0.499276 0.500378 0.670065 0.839316
C3    C     C_R   0.421636 0.555995 0.097037 -0.214340
C4    C     C_R   0.559566 0.559331 0.903683 -0.214632
C5    C     C_R   0.499967 0.510921 0.048002 0.023998
C6    C     C_R   0.493874 0.510272 0.951388 0.020702
C7    C     C_R   0.100993 0.554335 0.562642 -0.334200
C8    C     C_R   0.901956 0.425224 0.460882 -0.336705
C9    C     C_R   0.202517 0.554238 0.561225 0.390454
C10   C     C_R   0.800431 0.426342 0.459690 0.379589
C11   C     C_R   0.216212 0.447472 0.438141 0.047351
C12   C     C_R   0.781489 0.574224 0.539938 0.038294
C13   C     C_R   0.114961 0.448047 0.435990 -0.302619
C14   C     C_R   0.882509 0.577128 0.539519 -0.302413
C15   C     C_R   0.054731 0.501380 0.499388 0.125462
C16   C     C_R   0.945425 0.501528 0.499928 0.130301
C17   C     C_R   0.516544 0.316862 0.500399 0.816890
C18   C     C_R   0.483449 0.683182 0.499686 0.825242
C19   C     C_1   0.471906 0.786544 0.497230 -0.169576
C20   C     C_1   0.528061 0.213593 0.503137 -0.171866
C21   C     C_2   0.459924 0.977824 0.491335 -0.031996
C22   C     C_2   0.539797 0.022455 0.509738 -0.032476
C23   C     C_1   0.535444 0.126634 0.506132 -0.047012
C24   C     C_1   0.464416 0.873566 0.494543 -0.045873
C25   C     C_R   0.582444 0.465998 0.090838 -0.031698
C26   C     C_R   0.425129 0.459993 0.907402 -0.019276
C27   C     C_R   0.582049 0.461381 0.183664 0.057304
C28   C     C_R   0.428922 0.453418 0.814114 0.063748
C29   C     C_R   0.501203 0.504896 0.232806 -0.054162
C30   C     C_R   0.497011 0.502892 0.766855 -0.064126
C31   C     C_R   0.421441 0.553569 0.188779 0.098830
C32   C     C_R   0.561427 0.556661 0.812095 0.113406
Cu1   Cu    Cu3+1 0.596430 0.500000 0.499990 0.975659
Cu2   Cu    Cu3+1 0.403570 0.500000 0.500010 0.978055
H1    H     H_    0.359859 0.593046 0.063662 0.147135
H2    H     H_    0.609877 0.600282 0.938067 0.145645
H3    H     H_    0.059665 0.595469 0.614023 0.125284
H4    H     H_    0.945658 0.363680 0.431333 0.123321
H5    H     H_    0.260829 0.405437 0.389367 0.138029
H6    H     H_    0.735296 0.632439 0.571956 0.154475
H7    H     H_    0.084929 0.407623 0.383792 0.130741
H8    H     H_    0.910155 0.639270 0.569430 0.129379
N1    N     N_R   0.258690 0.500000 0.500020 -0.161846
N2    N     N_R   0.741310 0.500000 0.499980 -0.163599
O1    O     O_R   0.581430 0.500010 0.371450 -0.545816
O2    O     O_R   0.418570 0.499990 0.628550 -0.540231
O3    O     O_R   0.418560 0.500010 0.371460 -0.573078
O4    O     O_R   0.581440 0.499990 0.628540 -0.565097
O5    O     O_R   0.592950 0.362150 0.500010 -0.550520
O6    O     O_R   0.407050 0.637850 0.499990 -0.553614
O7    O     O_R   0.430080 0.362150 0.500020 -0.585911
O8    O     O_R   0.569920 0.637850 0.499980 -0.592331
C33   C     C_R   0.634083 0.968044 0.533464 0.142335
C34   C     C_R   0.678405 0.989094 0.613073 -0.147612
C35   C     C_R   0.766864 0.938050 0.636034 -0.141288
C36   C     C_R   0.812086 0.866208 0.579514 -0.121659
C37   C     C_R   0.769241 0.845673 0.499646 -0.146493
C38   C     C_R   0.680902 0.896660 0.476331 -0.129787
H9    H     H_    0.643978 0.044297 0.657702 0.120096
H10   H     H_    0.800318 0.954140 0.697729 0.122552
H11   H     H_    0.880509 0.826767 0.597448 0.116080
H12   H     H_    0.804590 0.790379 0.455695 0.133031
H13   H     H_    0.649143 0.880672 0.413753 0.124892
C39   C     C_R   0.365772 0.032628 0.467530 0.140836
C40   C     C_R   0.321731 0.012402 0.387569 -0.144551
C41   C     C_R   0.234439 0.065223 0.363789 -0.145638
C42   C     C_R   0.190138 0.138101 0.419797 -0.121301
C43   C     C_R   0.232547 0.157667 0.500107 -0.130152
C44   C     C_R   0.319596 0.104781 0.524314 -0.131700
H14   H     H_    0.355689 0.956758 0.343130 0.122610
H15   H     H_    0.201333 0.049913 0.301726 0.123505
H16   H     H_    0.122834 0.179224 0.401099 0.117001
H17   H     H_    0.197962 0.213831 0.543619 0.135515
H18   H     H_    0.351161 0.120295 0.587103 0.123772
C45   C     C_R   0.669349 0.424756 0.039360 0.121779
C46   C     C_R   0.668264 0.339070 0.989541 -0.137299
C47   C     C_R   0.749667 0.302543 0.939395 -0.135408
C48   C     C_R   0.832617 0.351162 0.938724 -0.108043
C49   C     C_R   0.834272 0.436453 0.988168 -0.142972
C50   C     C_R   0.752942 0.473296 0.038241 -0.179607
H19   H     H_    0.604777 0.300629 0.989335 0.108580
H20   H     H_    0.748415 0.236544 0.900993 0.120563
H21   H     H_    0.895556 0.322805 0.899853 0.121074
H22   H     H_    0.898455 0.474194 0.987457 0.118229
H23   H     H_    0.754674 0.540028 0.075555 0.120360
C51   C     C_R   0.347700 0.418533 0.958618 0.108993
C52   C     C_R   0.369495 0.338688 0.014120 -0.135147
C53   C     C_R   0.296178 0.302753 0.064115 -0.136009
C54   C     C_R   0.200688 0.345973 0.058852 -0.114729
C55   C     C_R   0.178333 0.425213 0.003542 -0.145997
C56   C     C_R   0.251489 0.461542 0.953648 -0.167588
H24   H     H_    0.442900 0.304596 0.019107 0.111679
H25   H     H_    0.313423 0.241447 0.107052 0.123822
H26   H     H_    0.144042 0.318091 0.097639 0.117993
H27   H     H_    0.104369 0.458689 0.999556 0.119392
H28   H     H_    0.233471 0.523516 0.911570 0.129400
N3    N     N_3   0.661454 0.408740 0.228325 -0.572681
H29   H     H_    0.724193 0.441828 0.215716 0.220701
H30   H     H_    0.671372 0.337715 0.203457 0.216911
N4    N     N_3   0.367688 0.394316 0.766088 -0.570479
H31   H     H_    0.412762 0.338067 0.735455 0.200110
H32   H     H_    0.321101 0.360443 0.807103 0.224446
N5    N     N_3   0.340416 0.602097 0.237028 -0.572636
H33   H     H_    0.278072 0.572160 0.217578 0.224257
H34   H     H_    0.332824 0.675231 0.219260 0.206887
N6    N     N_3   0.628079 0.610160 0.765067 -0.582163
H35   H     H_    0.698244 0.585075 0.784616 0.223460
H36   H     H_    0.614315 0.683194 0.783775 0.208592
N7    N     N_3   0.246838 0.612203 0.623955 -0.526840
H37   H     H_    0.217464 0.684368 0.616567 0.185127
H38   H     H_    0.228321 0.590176 0.687235 0.199675
N8    N     N_3   0.759677 0.349438 0.415448 -0.518411
H39   H     H_    0.783596 0.284614 0.447081 0.192448
H40   H     H_    0.787782 0.344320 0.351041 0.193850

loop_
_geom_bond_atom_site_label_1
_geom_bond_atom_site_label_2
_ccdc_geom_bond_type
C52   C53   A    
C4    H2    S    
C36   H11   S    
C27   C29   A    
Cu1   O1    S    
C35   C36   A    
C17   O7    A    
C13   H7    S    
N3    H29   S    
C55   C56   A    
C18   O8    A    
C37   H12   S    
C6    C26   A    
C47   C48   A    
C2    O2    A    
Cu1   O8    S    
Cu2   O7    S    
C21   C22   D    
C18   C19   S    
C51   C56   A    
N7    H38   S    
C49   H22   S    
N6    H35   S    
Cu1   O5    S    
C15   C16   S    
C17   C20   S    
C36   C37   A    
C42   H16   S    
C54   H26   S    
C21   C39   S    
C56   H28   S    
C34   C35   A    
C48   H21   S    
C43   C44   A    
C10   N8    S    
Cu2   O2    S    
C45   C50   A    
C14   H8    S    
C28   N4    S    
C7    C15   A    
C41   C42   A    
C8    C16   A    
C32   N6    S    
C35   H10   S    
C8    H4    S    
N8    H40   S    
N8    H39   S    
N3    H30   S    
C22   C33   S    
C34   H9    S    
C9    N7    S    
C11   N1    A    
C9    N1    A    
Cu2   O6    S    
C10   N2    A    
C42   C43   A    
C55   H27   S    
C46   C47   A    
C4    C6    A    
C17   O5    A    
C51   C52   A    
C1    O3    A    
C2    O4    A    
C43   H17   S    
C33   C34   A    
C25   C45   S    
C31   N5    S    
C12   H6    S    
C3    C31   A    
C45   C46   A    
C50   H23   S    
C41   H15   S    
C20   C23   T    
C3    H1    S    
C26   C51   S    
C1    C29   S    
Cu1   Cu2   S    
C7    H3    S    
C44   H18   S    
N5    H34   S    
C39   C44   A    
C11   H5    S    
C4    C32   A    
C5    C25   A    
C12   C14   A    
C13   C15   A    
C14   C16   A    
C18   O6    A    
N4    H32   S    
C38   H13   S    
C7    C9    A    
C53   H25   S    
C27   N3    S    
C48   C49   A    
Cu1   N2    S    
Cu2   N1    S    
C3    C5    A    
C46   H19   S    
C33   C38   A    
C25   C27   A    
C26   C28   A    
C2    C30   S    
C39   C40   A    
C28   C30   A    
C19   C24   T    
C29   C31   A    
N7    H37   S    
C30   C32   A    
C11   C13   A    
C1    O1    A    
C37   C38   A    
C5    C6    S    
N6    H36   S    
C47   H20   S    
N4    H31   S    
C49   C50   A    
C53   C54   A    
C8    C10   A    
C40   C41   A    
C21   C24   S    
N5    H33   S    
Cu1   O4    S    
C22   C23   S    
C12   N2    A    
Cu2   O3    S    
C54   C55   A    
C52   H24   S    
C40   H14   S    
