data_mof_unit_35376.cif
_audit_creation_date              2012-12-11T21:12:13-0500
_audit_creation_method            fapswitch 2.2
_symmetry_space_group_name_H-M    P1
_symmetry_Int_Tables_number       1
_space_group_crystal_system       triclinic
_cell_length_a                    8.261572
_cell_length_b                    18.881392
_cell_length_c                    27.04226
_cell_angle_alpha                 99.282904
_cell_angle_beta                  92.414431
_cell_angle_gamma                 88.251769
_cell_volume                      4158.17933461

loop_
_atom_site_label
_atom_site_type_symbol
_atom_type_description
_atom_site_fract_x
_atom_site_fract_y
_atom_site_fract_z
_atom_type_partial_charge
Ba1   Ba    Ba6+2 0.160810 0.465630 0.521640 1.683790
Ba2   Ba    Ba6+2 0.649380 0.534380 0.478400 1.714006
C1    C     C_3   0.429024 0.302747 0.704074 0.138582
C2    C     C_3   0.395692 0.316730 0.649624 0.251760
C3    C     C_3   0.491649 0.310813 0.385783 0.699208
C4    C     C_3   0.557351 0.240792 0.355175 0.413765
C5    C     C_3   0.906642 0.714357 0.329286 0.410526
C6    C     C_3   0.856250 0.763344 0.290479 -0.072506
C7    C     C_3   0.375148 0.720060 0.349999 0.862177
C8    C     C_3   0.363863 0.775728 0.314384 0.199286
C9    C     C_R   0.985732 0.045706 0.466621 -0.040378
C10   C     C_R   0.070550 0.098031 0.445469 0.357596
C11   C     C_R   0.169564 0.941035 0.436061 -0.101320
C12   C     C_3   0.949693 0.277074 0.622896 0.431355
C13   C     C_R   0.040268 0.972050 0.465115 0.068789
C14   C     C_R   0.234942 0.873887 0.441025 -0.110070
C15   C     C_R   0.158510 0.828721 0.468486 0.057832
C16   C     C_R   0.018563 0.854709 0.494778 -0.040490
C17   C     C_R   0.962013 0.926968 0.493778 -0.007044
C18   C     C_R   0.212726 0.756982 0.467841 0.031880
C19   C     C_R   0.117713 0.709923 0.488459 -0.227127
C20   C     C_R   0.982876 0.733993 0.516713 0.109921
C21   C     C_R   0.937050 0.809097 0.522595 -0.090698
C22   C     C_R   0.836392 0.068300 0.489816 -0.044314
C23   C     C_3   0.002025 0.203546 0.635815 -0.381923
C24   C     C_R   0.773238 0.140183 0.490985 -0.032034
C25   C     C_R   0.864361 0.190783 0.470879 -0.098091
C26   C     C_R   0.005035 0.166791 0.445690 -0.001005
C27   C     C_R   0.819499 0.841620 0.556490 0.417078
C28   C     C_R   0.775691 0.914843 0.558436 0.335390
C29   C     C_R   0.826455 0.953540 0.521175 -0.107083
C30   C     C_R   0.750118 0.019327 0.512486 -0.050905
C31   C     C_R   0.587695 0.036998 0.525192 0.351722
C32   C     C_R   0.621748 0.161758 0.513412 -0.044222
C33   C     C_R   0.530339 0.108224 0.530512 0.109481
C34   C     C_3   0.822092 0.632611 0.634101 0.346967
C35   C     C_R   0.569578 0.235603 0.517122 0.124874
C36   C     C_R   0.668651 0.284804 0.499820 -0.248273
C37   C     C_R   0.815018 0.264378 0.477375 0.027848
C38   C     C_R   0.300356 0.452074 0.172936 0.590758
C39   C     C_R   0.226062 0.576704 0.178470 0.597324
C40   C     C_2   0.051694 0.540986 0.268704 -0.112883
C41   C     C_3   0.014216 0.536805 0.322422 -0.115253
C42   C     C_1   0.287895 0.496525 0.336494 0.048062
C43   C     C_2   0.323325 0.492906 0.288744 -0.066541
C44   C     C_2   0.199585 0.516911 0.252002 0.218206
C45   C     C_3   0.796347 0.662675 0.689237 0.221795
C46   C     C_R   0.336554 0.512692 0.101018 -0.122539
C47   C     C_R   0.357707 0.450607 0.123986 -0.105870
C48   C     C_R   0.433177 0.388823 0.096806 0.417253
C49   C     C_R   0.270572 0.575936 0.128658 -0.016967
C50   C     C_2   0.164754 0.536180 0.355669 -0.264495
C51   C     C_2   0.647499 0.476346 0.640775 -0.336056
C52   C     C_R   0.478208 0.445164 0.970804 0.034095
C53   C     C_R   0.412382 0.574587 0.978178 0.019787
C54   C     C_R   0.466020 0.509133 0.949317 0.056722
C55   C     C_R   0.525237 0.380768 0.939765 -0.099702
C56   C     C_3   0.979248 0.376614 0.367871 0.380206
C57   C     C_R   0.565572 0.379860 0.890305 -0.048756
C58   C     C_R   0.558721 0.442830 0.869148 -0.032171
C59   C     C_R   0.508262 0.507605 0.898423 -0.083607
C60   C     C_R   0.501948 0.570938 0.876977 -0.036336
C61   C     C_R   0.543702 0.568370 0.826536 0.583999
C62   C     C_R   0.599539 0.441944 0.818975 0.583968
C63   C     C_2   0.764904 0.479492 0.727527 -0.103705
C64   C     C_3   0.800271 0.480895 0.673473 -0.055111
C65   C     C_1   0.518443 0.513043 0.658698 0.074778
C66   C     C_2   0.485050 0.518403 0.707237 0.080828
C67   C     C_3   0.988039 0.355561 0.310916 -0.076866
C68   C     C_2   0.616448 0.500458 0.744539 0.184941
C69   C     C_R   0.442245 0.447304 0.022179 -0.051402
C70   C     C_R   0.381016 0.511729 0.050341 0.046114
C71   C     C_R   0.363280 0.575204 0.028264 0.036341
C72   C     C_R   0.469620 0.387294 0.046840 -0.081698
C73   C     C_R   0.250733 0.637532 0.106147 -0.053528
C74   C     C_R   0.410799 0.637453 0.955762 -0.101220
C75   C     C_R   0.454634 0.635532 0.906404 -0.056330
C76   C     C_R   0.295478 0.637262 0.057174 -0.100112
C77   C     C_3   0.334591 0.686678 0.592498 0.377251
C78   C     C_3   0.313742 0.766613 0.612930 0.132209
H1    H     H_    0.273521 0.340222 0.646842 0.094855
H2    H     H_    0.740642 0.621948 0.707742 0.040387
H3    H     H_    0.915137 0.676070 0.709074 0.036069
H4    H     H_    0.100458 0.390986 0.384248 0.018114
H5    H     H_    0.894992 0.423579 0.376184 -0.005400
H6    H     H_    0.045074 0.398609 0.295080 0.037661
H7    H     H_    0.863698 0.348918 0.293710 0.109349
H8    H     H_    0.216837 0.665160 0.577002 -0.057619
H9    H     H_    0.424262 0.679080 0.562670 0.082216
H10   H     H_    0.417868 0.355673 0.728687 0.113919
H11   H     H_    0.198452 0.775785 0.633148 0.063214
H12   H     H_    0.416045 0.784011 0.639808 0.125882
H13   H     H_    0.485143 0.355953 0.642405 -0.023517
H14   H     H_    0.599311 0.340952 0.402926 -0.073511
H15   H     H_    0.633321 0.212536 0.381194 0.041419
H16   H     H_    0.956376 0.160017 0.606295 0.099247
H17   H     H_    0.013252 0.681391 0.314795 0.043887
H18   H     H_    0.760120 0.802216 0.305600 0.088208
H19   H     H_    0.960921 0.795282 0.283387 0.121654
H20   H     H_    0.251264 0.712095 0.362224 -0.231152
H21   H     H_    0.486323 0.784015 0.301323 0.063769
H22   H     H_    0.033133 0.287575 0.594122 0.116806
H23   H     H_    0.316503 0.827706 0.334448 -0.030303
H24   H     H_    0.156743 0.654255 0.485656 0.032762
H25   H     H_    0.341124 0.856588 0.420373 0.064030
H26   H     H_    0.072874 0.202235 0.427319 0.158835
H27   H     H_    0.632585 0.340995 0.504927 0.045084
H28   H     H_    0.220405 0.965883 0.407390 0.129337
H29   H     H_    0.443050 0.474837 0.276321 0.099872
H30   H     H_    0.862404 0.467739 0.753403 0.110096
H31   H     H_    0.601044 0.328944 0.868403 0.136504
H32   H     H_    0.529032 0.329296 0.952101 0.078193
H33   H     H_    0.527817 0.338535 0.029079 0.106141
H34   H     H_    0.957484 0.556747 0.243190 0.083036
H35   H     H_    0.199202 0.686709 0.126396 0.125639
H36   H     H_    0.378778 0.689774 0.975572 0.074866
H37   H     H_    0.135314 0.197830 0.636740 0.123442
H38   H     H_    0.450512 0.685317 0.891236 0.128738
H39   H     H_    0.271984 0.686685 0.042836 0.071903
H40   H     H_    0.182141 0.576912 0.388497 0.068947
H41   H     H_    0.648668 0.449726 0.602071 0.080657
H42   H     H_    0.954541 0.196114 0.672411 0.135658
H43   H     H_    0.703520 0.618119 0.615372 0.001805
H44   H     H_    0.904018 0.584666 0.631288 -0.048908
N1    N     N_R   0.240710 0.515173 0.200044 -0.427728
N2    N     N_R   0.585038 0.503669 0.797459 -0.429332
O1    O     O_2   0.106080 0.324280 0.466820 -0.443046
O2    O     O_3   0.389145 0.652225 0.632258 -0.638502
O3    O     O_3   0.958229 0.330584 0.666086 -0.622635
O4    O     O_2   0.704230 0.675760 0.533200 -0.434648
O5    O     O_3   0.951180 0.586390 0.529420 -0.504610
O6    O     O_3   0.434080 0.629720 0.443130 -0.459181
O7    O     O_3   0.895352 0.684999 0.612591 -0.603420
O8    O     O_3   0.351080 0.462080 0.440130 -0.489400
O9    O     O_3   0.839200 0.593040 0.416790 -0.460130
O10   O     O_2   0.687730 0.544862 0.331242 -0.437733
O11   O     O_3   0.774313 0.672478 0.335961 -0.529611
O12   O     O_3   0.859130 0.413620 0.470620 -0.493938
O13   O     O_3   0.459240 0.537930 0.559910 -0.505552
O14   O     O_2   0.583120 0.462390 0.379940 -0.462557
O15   O     O_3   0.396388 0.349498 0.354296 -0.648617
O16   O     O_2   0.543672 0.756135 0.485683 -0.449945
O17   O     O_3   0.482265 0.745545 0.390356 -0.621438
O18   O     O_2   0.298904 0.396852 0.191022 -0.575363
O19   O     O_2   0.648667 0.386064 0.794439 -0.587032
O20   O     O_2   0.175137 0.632426 0.202817 -0.577928
O21   O     O_2   0.545161 0.623819 0.808695 -0.584410
O22   O     O_3   0.376230 0.370290 0.556910 -0.502981
O23   O     O_2   0.231387 0.245897 0.529125 -0.468730
O24   O     O_3   0.923127 0.318201 0.387321 -0.618542
O25   O     O_3   0.403760 0.253975 0.614052 -0.633717
O26   O     O_2   0.227190 0.537650 0.620070 -0.441791
O27   O     O_3   0.971110 0.406970 0.583250 -0.490188
O28   O     O_2   0.127530 0.445896 0.669893 -0.488458
P1    P     P_3+3 0.929380 0.335110 0.452880 0.996845
P2    P     P_3+3 0.398530 0.559060 0.613740 1.009305
P3    P     P_3+3 0.962598 0.416497 0.648391 0.938577
P4    P     P_3+3 0.880940 0.664900 0.547160 1.058637
P5    P     P_3+3 0.836884 0.588981 0.351370 1.023821
P6    P     P_3+3 0.393082 0.276730 0.553032 0.965833
P7    P     P_3+3 0.399949 0.442155 0.376803 0.959729
P8    P     P_3+3 0.415451 0.722730 0.446298 1.006955
O29   O     O_3   0.692070 0.723187 0.693484 -0.682739
H45   H     H_    0.759470 0.764844 0.690576 0.337568
N3    N     N_3   0.083789 0.289378 0.298035 -0.447442
H46   H     H_    0.014219 0.246185 0.303621 0.238425
H47   H     H_    0.103646 0.282443 0.259598 0.201574
O30   O     O_3   0.311907 0.806993 0.573900 -0.760237
H48   H     H_    0.294611 0.857783 0.589536 0.330052
N4    N     N_3   0.592507 0.273794 0.711840 -0.415341
H49   H     H_    0.676316 0.307983 0.700857 0.210793
H50   H     H_    0.604947 0.222987 0.690165 0.188537
O31   O     O_3   0.395616 0.292894 0.423092 -0.740815
H51   H     H_    0.396570 0.334607 0.450433 0.301144
O32   O     O_3   0.656902 0.254653 0.317082 -0.753344
H52   H     H_    0.588992 0.278585 0.293184 0.310740
N5    N     N_3   0.425411 0.193562 0.334329 -0.439295
H53   H     H_    0.476806 0.144435 0.318095 0.186720
H54   H     H_    0.364073 0.215151 0.305404 0.204244
N6    N     N_3   0.311484 0.255710 0.720128 -0.462177
H55   H     H_    0.320697 0.204775 0.698474 0.200168
H56   H     H_    0.194870 0.277127 0.715556 0.199731
N7    N     N_3   0.951470 0.757988 0.377244 -0.522496
H57   H     H_    0.032428 0.796630 0.370768 0.128740
H58   H     H_    0.848350 0.785733 0.392099 0.195267
N8    N     N_3   0.797981 0.722352 0.242853 -0.482951
H59   H     H_    0.692577 0.695986 0.248627 0.223139
H60   H     H_    0.885414 0.683298 0.230091 0.222541
O33   O     O_3   0.437490 0.654864 0.325045 -0.676439
H61   H     H_    0.355269 0.636251 0.298873 0.302858
O34   O     O_3   0.260524 0.752470 0.273037 -0.728093
H62   H     H_    0.261825 0.789910 0.251182 0.315898
O35   O     O_3   0.758340 0.803613 0.590658 -0.692396
H63   H     H_    0.661430 0.828681 0.606029 0.352297
N9    N     N_3   0.378501 0.124377 0.554050 -0.435844
H64   H     H_    0.287993 0.092461 0.534728 0.197205
H65   H     H_    0.389998 0.111562 0.590272 0.209417
O36   O     O_3   0.223225 0.087314 0.426854 -0.728212
H66   H     H_    0.292206 0.066660 0.451950 0.300265
O37   O     O_3   0.692853 0.948364 0.599503 -0.701061
H67   H     H_    0.721094 0.999768 0.606080 0.311220
N10   N     N_3   0.785484 0.273000 0.601127 -0.527080
H68   H     H_    0.714471 0.242600 0.620244 0.172135
H69   H     H_    0.731709 0.324022 0.603671 0.134397
O38   O     O_3   0.478635 0.985417 0.531646 -0.707886
H70   H     H_    0.509291 0.939849 0.510047 0.316877
O39   O     O_3   0.477605 0.329055 0.117905 -0.681539
H71   H     H_    0.532001 0.346068 0.150865 0.326506
N11   N     N_3   0.329097 0.545372 0.724013 -0.446282
H72   H     H_    0.297136 0.520292 0.753807 0.174943
H73   H     H_    0.337561 0.600393 0.736811 0.218104

loop_
_geom_bond_atom_site_label_1
_geom_bond_atom_site_label_2
_ccdc_geom_bond_type
O12   P1    S    
C28   O37   S    
C77   O2    S    
O15   P7    S    
N3    H46   S    
C62   O19   D    
O5    P4    S    
C32   C35   A    
Ba1   Ba2   S    
C60   C75   A    
O29   H45   S    
C1    N6    S    
C17   C29   A    
C34   O7    S    
C12   O3    S    
O3    P3    S    
C3    H14   S    
C7    O17   S    
C5    C6    S    
O38   H70   S    
C42   C43   D    
C13   C17   A    
O35   H63   S    
C31   O38   S    
C24   C25   A    
Ba2   O8    S    
N10   H69   S    
C10   C26   A    
C1    H10   S    
Ba2   O13   S    
C21   C27   A    
C35   P6    S    
C8    H23   S    
C34   H44   S    
C6    H19   S    
C22   C24   A    
O7    P4    S    
C41   P5    S    
N7    H58   S    
C40   C44   D    
C3    C4    S    
C31   C33   A    
C43   H29   S    
C41   C50   S    
C55   C57   A    
C55   H32   S    
C4    O32   S    
C38   C47   A    
C9    C22   A    
C15   C18   A    
Ba1   O26   S    
C15   C16   A    
C32   C33   A    
O22   P6    S    
C45   H2    S    
C36   H27   S    
Ba1   P1    S    
C6    H18   S    
C44   N1    S    
Ba2   O4    S    
C19   H24   S    
C9    C13   A    
C40   H34   S    
C46   C49   A    
C52   C69   A    
O26   P2    D    
C40   C41   S    
C26   H26   S    
C14   C15   A    
N5    H54   S    
O37   H67   S    
C57   H31   S    
C71   C76   A    
O36   H66   S    
C45   H3    S    
C7    C8    S    
O17   P8    S    
C67   H7    S    
C77   C78   S    
C33   N9    S    
C45   O29   S    
C48   O39   S    
C42   C50   D    
C57   C58   A    
N3    H47   S    
C19   C20   A    
C8    O34   S    
O10   P5    D    
C59   C60   A    
C35   C36   A    
C46   C70   A    
C11   H28   S    
C7    O33   S    
C66   N11   S    
C61   O21   D    
C77   H8    S    
O23   P6    D    
N6    H56   S    
N11   H72   S    
C67   N3    S    
C52   C54   A    
O9    P5    S    
N10   H68   S    
C2    H1    S    
O39   H71   S    
Ba2   O12   S    
C39   N1    Am   
C34   H43   S    
C74   C75   A    
O28   P3    D    
C75   H38   S    
C25   C37   A    
C5    O11   S    
O11   P5    S    
C16   C17   A    
N9    H64   S    
C20   P4    S    
C6    N8    S    
O14   P7    D    
O31   H51   S    
C72   H33   S    
C16   C21   A    
C37   P1    S    
C58   C59   A    
C78   H12   S    
Ba1   P2    S    
N7    H57   S    
C22   C30   A    
C27   C28   A    
C60   C61   A    
C56   H4    S    
Ba2   O6    S    
C29   C30   A    
C28   C29   A    
Ba2   P4    S    
C18   P8    S    
C53   C54   A    
Ba2   O5    S    
C56   C67   S    
Ba1   O27   S    
C51   C64   S    
C48   C72   A    
C14   H25   S    
C53   C74   A    
C50   H40   S    
C65   C66   D    
C4    H15   S    
C7    H20   S    
C62   N2    Am   
O24   P1    S    
C38   O18   D    
C4    N5    S    
C47   C48   A    
C34   C45   S    
O30   H48   S    
C73   H35   S    
C42   P7    S    
O1    P1    D    
C1    C2    S    
C56   H5    S    
Ba1   O8    S    
N6    H55   S    
Ba1   O13   S    
C23   H42   S    
O4    P4    D    
O34   H62   S    
C2    O25   S    
C46   C47   A    
C10   O36   S    
C5    H17   S    
C24   C32   A    
C54   C59   A    
C3    O31   S    
C8    H21   S    
C3    O15   S    
Ba1   O1    S    
C49   C73   A    
C70   C71   A    
Ba1   O5    S    
C23   H37   S    
O16   P8    D    
C69   C72   A    
C9    C10   A    
C1    N4    S    
Ba2   O9    S    
C67   H6    S    
O8    P7    S    
C5    N7    S    
C58   C62   A    
Ba2   O14   S    
O25   P6    S    
C78   H11   S    
C11   C13   A    
C76   H39   S    
C69   C70   A    
O32   H52   S    
C51   H41   S    
C30   C31   A    
C68   N2    S    
C36   C37   A    
N4    H50   S    
O13   P2    S    
C27   O35   S    
C38   N1    Am   
C12   N10   S    
C74   H36   S    
C78   O30   S    
C56   O24   S    
C63   C64   S    
C12   C23   S    
O27   P3    S    
O33   H61   S    
C51   C65   D    
C73   C76   A    
O6    P8    S    
C63   H30   S    
C77   H9    S    
C61   N2    Am   
C12   H22   S    
O2    P2    S    
C2    H13   S    
C53   C71   A    
C43   C44   S    
C18   C19   A    
C23   H16   S    
C66   C68   S    
N5    H53   S    
N4    H49   S    
C11   C14   A    
C25   C26   A    
N11   H73   S    
C20   C21   A    
C65   P2    S    
Ba1   O22   S    
N8    H59   S    
N8    H60   S    
C39   C49   A    
C64   P3    S    
Ba1   O12   S    
C63   C68   D    
C39   O20   D    
N9    H65   S    
C52   C55   A    
