data_mof_unit_29795.cif
_audit_creation_date              2012-12-10T18:23:11-0500
_audit_creation_method            fapswitch 2.2
_symmetry_space_group_name_H-M    P1
_symmetry_Int_Tables_number       1
_space_group_crystal_system       triclinic
_cell_length_a                    14.973821
_cell_length_b                    14.023365
_cell_length_c                    10.505749
_cell_angle_alpha                 90.388234
_cell_angle_beta                  89.742815
_cell_angle_gamma                 90.599279
_cell_volume                      2205.83960841

loop_
_atom_site_label
_atom_site_type_symbol
_atom_type_description
_atom_site_fract_x
_atom_site_fract_y
_atom_site_fract_z
_atom_type_partial_charge
C1    C     C_R   0.326841 0.499417 0.502879 0.887740
C2    C     C_R   0.959385 0.619580 0.329939 -0.195536
C3    C     C_R   0.548373 0.798282 0.410053 -0.063582
C4    C     C_R   0.451627 0.201718 0.589947 -0.063592
C5    C     C_R   0.451582 0.798106 0.589909 -0.058249
C6    C     C_R   0.548418 0.201894 0.410091 -0.058247
C7    C     C_R   0.450455 0.898744 0.592118 0.014439
C8    C     C_R   0.549545 0.101256 0.407882 0.014439
C9    C     C_R   0.549536 0.898913 0.407884 0.017103
C10   C     C_R   0.450463 0.101087 0.592115 0.017104
C11   C     C_R   0.500002 0.949403 0.500005 0.084857
C12   C     C_R   0.673158 0.500582 0.497121 0.887746
C13   C     C_R   0.499998 0.050597 0.499995 0.084858
C14   C     C_R   0.401206 0.949712 0.683764 -0.206233
C15   C     C_R   0.598794 0.050288 0.316236 -0.206232
C16   C     C_R   0.598789 0.950035 0.316237 -0.206505
C17   C     C_R   0.401210 0.049965 0.683763 -0.206506
C18   C     C_R   0.500404 0.499658 0.257111 0.858793
C19   C     C_R   0.499596 0.500342 0.742889 0.858793
C20   C     C_3   0.424375 0.539637 0.043729 -0.175327
C21   C     C_3   0.575624 0.460363 0.956271 -0.175329
C22   C     C_3   0.495072 0.590858 0.960721 -0.136758
C23   C     C_R   0.953403 0.500454 0.498300 0.023801
C24   C     C_3   0.504926 0.409142 0.039279 -0.136759
C25   C     C_3   0.428834 0.449881 0.958124 -0.183417
C26   C     C_3   0.571164 0.550120 0.041876 -0.183422
C27   C     C_3   0.499547 0.501005 0.877812 0.030081
C28   C     C_3   0.500452 0.498996 0.122188 0.030080
C29   C     C_R   0.816114 0.561578 0.410036 0.029422
C30   C     C_R   0.183885 0.438412 0.589958 0.029408
C31   C     C_R   0.768693 0.501896 0.494568 -0.102911
C32   C     C_R   0.231305 0.498104 0.505437 -0.102921
C33   C     C_R   0.812300 0.441676 0.578139 -0.286140
C34   C     C_R   0.046595 0.499556 0.501721 0.023806
C35   C     C_R   0.187698 0.558337 0.421884 -0.286135
C36   C     C_R   0.904434 0.440761 0.581204 0.125150
C37   C     C_R   0.095563 0.559252 0.418821 0.125148
C38   C     C_R   0.909298 0.560901 0.411964 0.123734
C39   C     C_R   0.090701 0.439102 0.588047 0.123735
C40   C     C_R   0.948065 0.381280 0.666463 -0.229409
C41   C     C_R   0.051933 0.618733 0.333562 -0.229412
C42   C     C_R   0.040613 0.380426 0.670076 -0.195541
H1    H     H_    0.371036 0.408842 0.919906 0.128971
H2    H     H_    0.089431 0.664599 0.269619 0.147521
H3    H     H_    0.072483 0.333436 0.737028 0.172624
H4    H     H_    0.927517 0.666566 0.262982 0.172623
H5    H     H_    0.585939 0.758219 0.339950 0.126192
H6    H     H_    0.414060 0.241781 0.660050 0.126197
H7    H     H_    0.413842 0.757879 0.659823 0.131778
H8    H     H_    0.586158 0.242121 0.340177 0.131777
H9    H     H_    0.362688 0.912064 0.755444 0.140671
H10   H     H_    0.637312 0.087936 0.244556 0.140671
H11   H     H_    0.637311 0.912503 0.244572 0.141094
H12   H     H_    0.628962 0.591160 0.080092 0.128976
H13   H     H_    0.362688 0.087497 0.755428 0.141096
H14   H     H_    0.725229 0.578167 0.268829 0.171691
H15   H     H_    0.736612 0.673814 0.368813 0.207972
H16   H     H_    0.263370 0.326150 0.631100 0.207986
H17   H     H_    0.274786 0.421768 0.731128 0.171703
H18   H     H_    0.362907 0.571722 0.084211 0.131309
H19   H     H_    0.637091 0.428279 0.915789 0.131308
H20   H     H_    0.490975 0.664929 0.924666 0.140390
H21   H     H_    0.509024 0.335071 0.075334 0.140390
H22   H     H_    0.774041 0.396470 0.642315 0.155625
H23   H     H_    0.225957 0.603551 0.357716 0.155631
H24   H     H_    0.910568 0.335417 0.730410 0.147522
N1    N     N_R   0.500000 0.750030 0.500000 -0.101909
N2    N     N_R   0.500000 0.249970 0.500000 -0.101908
N3    N     N_3   0.770808 0.620335 0.319767 -0.482913
N4    N     N_3   0.229191 0.379622 0.680186 -0.482910
O1    O     O_R   0.367850 0.580280 0.500030 -0.617879
O2    O     O_R   0.632150 0.419720 0.499970 -0.617880
O3    O     O_R   0.632150 0.580280 0.499970 -0.625136
O4    O     O_R   0.367850 0.419720 0.500030 -0.625143
O5    O     O_R   0.499970 0.580260 0.313950 -0.628596
O6    O     O_R   0.500030 0.419740 0.686050 -0.628596
O7    O     O_R   0.500030 0.580260 0.686050 -0.628670
O8    O     O_R   0.499970 0.419740 0.313950 -0.628671
Zn1   Zn    Zn3+2 0.500000 0.607200 0.500000 0.938210
Zn2   Zn    Zn3+2 0.500000 0.392800 0.500000 0.938207

loop_
_geom_bond_atom_site_label_1
_geom_bond_atom_site_label_2
_ccdc_geom_bond_type
N2    Zn2   S    
C21   C26   S    
C18   O5    A    
C34   C37   A    
C5    N1    A    
C25   H1    S    
O1    Zn1   S    
C2    H4    S    
C7    C11   A    
C8    C13   A    
C1    O4    A    
C19   O6    A    
C35   C37   A    
C9    C16   A    
O8    Zn2   S    
C20   C25   S    
C35   H23   S    
C2    C41   A    
C15   C16   A    
C33   C36   A    
C19   O7    A    
C16   H11   S    
C7    C14   A    
C29   C38   A    
C31   C33   A    
C20   H18   S    
C19   C27   S    
C17   H13   S    
C21   H19   S    
C40   C42   A    
C12   O2    A    
O4    Zn2   S    
C12   O3    A    
C14   C17   A    
C5    H7    S    
C26   H12   S    
C30   N4    S    
C39   C42   A    
C29   N3    S    
O7    Zn1   S    
C34   C39   A    
C32   C35   A    
C24   C28   S    
C36   C40   A    
C18   C28   S    
C24   C25   S    
C5    C7    A    
H16   N4    S    
C6    C8    A    
C8    C15   A    
C20   C28   S    
C1    C32   S    
C42   H3    S    
C3    C9    A    
C22   H20   S    
C2    C38   A    
C14   H9    S    
C18   O8    A    
C23   C34   A    
C6    N2    A    
O3    Zn1   S    
N1    Zn1   S    
C1    O1    A    
C15   H10   S    
C6    H8    S    
C9    C11   A    
C20   C22   S    
H14   N3    S    
C24   H21   S    
C22   C27   S    
C12   C31   S    
C21   C27   S    
C41   H2    S    
C4    C10   A    
C4    N2    A    
C4    H6    S    
C3    N1    A    
O6    Zn2   S    
C10   C13   A    
C25   C27   S    
C23   C38   A    
C26   C28   S    
C29   C31   A    
C30   C32   A    
C11   C13   A    
C33   H22   S    
C3    H5    S    
C30   C39   A    
C37   C41   A    
H17   N4    S    
O2    Zn2   S    
C23   C36   A    
C22   C26   S    
C21   C24   S    
C40   H24   S    
C10   C17   A    
H15   N3    S    
O5    Zn1   S    
