data_mof_unit_65658.cif
_audit_creation_date              2012-12-10T17:27:56-0500
_audit_creation_method            fapswitch 2.2
_symmetry_space_group_name_H-M    P1
_symmetry_Int_Tables_number       1
_space_group_crystal_system       triclinic
_cell_length_a                    29.408907
_cell_length_b                    29.408905
_cell_length_c                    38.891957
_cell_angle_alpha                 90.0
_cell_angle_beta                  89.999989
_cell_angle_gamma                 90.000015
_cell_volume                      33637.0216973

loop_
_atom_site_label
_atom_site_type_symbol
_atom_type_description
_atom_site_fract_x
_atom_site_fract_y
_atom_site_fract_z
_atom_type_partial_charge
C1    C     C_R   0.500000 0.914395 0.000000 0.828264
C2    C     C_R   0.085605 0.500000 0.000000 0.828263
C3    C     C_R   0.500000 0.085605 0.000000 0.828264
C4    C     C_R   0.914395 0.500000 0.000000 0.828264
C5    C     C_R   1.000000 0.414395 0.500000 0.828265
C6    C     C_R   0.585605 0.000000 0.500000 0.828264
C7    C     C_R   0.000000 0.585605 0.500000 0.828264
C8    C     C_R   0.414395 0.000000 0.500000 0.828265
C9    C     C_1   0.500000 0.770739 0.000000 0.029012
C10   C     C_1   0.229261 0.500000 0.000000 0.029012
C11   C     C_1   0.500000 0.229261 0.000000 0.029012
C12   C     C_1   0.770739 0.500000 0.000000 0.029012
C13   C     C_1   1.000000 0.270739 0.500000 0.029012
C14   C     C_1   0.729261 0.000000 0.500000 0.029012
C15   C     C_1   0.000000 0.729261 0.500000 0.029012
C16   C     C_1   0.270739 1.000000 0.500000 0.029012
C17   C     C_1   0.500000 0.728384 0.000000 0.026851
C18   C     C_1   0.271616 0.500000 0.000000 0.026851
C19   C     C_1   0.500000 0.271616 0.000000 0.026851
C20   C     C_1   0.728384 0.500000 0.000000 0.026851
C21   C     C_1   1.000000 0.228384 0.500000 0.026851
C22   C     C_1   0.771616 0.000000 0.500000 0.026851
C23   C     C_1   0.000000 0.771616 0.500000 0.026851
C24   C     C_1   0.228384 1.000000 0.500000 0.026851
C25   C     C_1   0.500000 0.678174 0.000000 0.023327
C26   C     C_1   0.321826 0.500000 0.000000 0.023327
C27   C     C_1   0.500000 0.321826 0.000000 0.023327
C28   C     C_1   0.678174 0.500000 0.000000 0.023327
C29   C     C_1   0.000000 0.178174 0.500000 0.023327
C30   C     C_1   0.821826 0.000000 0.500000 0.023327
C31   C     C_1   0.000000 0.821826 0.500000 0.023327
C32   C     C_1   0.178174 0.000000 0.500000 0.023327
C33   C     C_1   0.500000 0.635819 0.000000 -0.168914
C34   C     C_1   0.364181 0.500000 0.000000 -0.168913
C35   C     C_1   0.500000 0.364181 0.000000 -0.168913
C36   C     C_1   0.635819 0.500000 0.000000 -0.168914
C37   C     C_1   1.000000 0.135819 0.500000 -0.168914
C38   C     C_1   0.864181 0.000000 0.500000 -0.168914
C39   C     C_1   0.000000 0.864181 0.500000 -0.168914
C40   C     C_1   0.135819 0.000000 0.500000 -0.168914
C41   C     C_R   0.415274 0.500000 0.000000 0.796871
C42   C     C_R   0.500000 0.415274 0.000000 0.796871
C43   C     C_R   0.584726 0.500000 0.000000 0.796870
C44   C     C_R   0.500000 0.584726 0.000000 0.796870
C45   C     C_R   0.915274 0.000000 0.500000 0.796871
C46   C     C_R   0.000000 0.915274 0.500000 0.796871
C47   C     C_R   0.084726 0.000000 0.500000 0.796870
C48   C     C_R   0.000000 0.084726 0.500000 0.796870
C49   C     C_R   0.500000 0.000000 0.067023 0.851952
C50   C     C_R   0.000000 0.500000 0.067023 0.851951
C51   C     C_R   0.500000 0.000000 0.932977 0.851951
C52   C     C_R   0.000000 0.500000 0.932977 0.851953
C53   C     C_R   0.000000 0.500000 0.567023 0.851951
C54   C     C_R   0.500000 0.000000 0.567023 0.851950
C55   C     C_R   0.000000 0.500000 0.432977 0.851952
C56   C     C_R   0.500000 0.000000 0.432977 0.851952
C57   C     C_R   0.459173 0.994997 0.123079 -0.193576
C58   C     C_R   0.005006 0.459174 0.123079 -0.193575
C59   C     C_R   0.540827 0.005003 0.123079 -0.193576
C60   C     C_R   0.994994 0.540826 0.123079 -0.193576
C61   C     C_R   0.540827 0.994997 0.876920 -0.193576
C62   C     C_R   0.994995 0.459173 0.876920 -0.193576
C63   C     C_R   0.459173 0.005002 0.876920 -0.193576
C64   C     C_R   0.005005 0.540826 0.876920 -0.193576
C65   C     C_R   0.959172 0.495005 0.623080 -0.193576
C66   C     C_R   0.504999 0.959173 0.623080 -0.193576
C67   C     C_R   0.040828 0.504995 0.623080 -0.193575
C68   C     C_R   0.495001 0.040827 0.623080 -0.193576
C69   C     C_R   0.040828 0.495006 0.376920 -0.193576
C70   C     C_R   0.495004 0.959172 0.376920 -0.193575
C71   C     C_R   0.959172 0.504994 0.376920 -0.193575
C72   C     C_R   0.504996 0.040828 0.376920 -0.193576
C73   C     C_R   0.458903 0.994789 0.158983 0.260823
C74   C     C_R   0.005215 0.458904 0.158983 0.260822
C75   C     C_R   0.541096 0.005211 0.158983 0.260823
C76   C     C_R   0.994785 0.541096 0.158983 0.260822
C77   C     C_R   0.541096 0.994789 0.841016 0.260821
C78   C     C_R   0.994786 0.458904 0.841016 0.260822
C79   C     C_R   0.458904 0.005211 0.841016 0.260821
C80   C     C_R   0.005214 0.541096 0.841016 0.260821
C81   C     C_R   0.958903 0.494797 0.658984 0.260821
C82   C     C_R   0.505207 0.958903 0.658984 0.260821
C83   C     C_R   0.041097 0.505203 0.658984 0.260821
C84   C     C_R   0.494793 0.041097 0.658984 0.260821
C85   C     C_R   0.041097 0.494798 0.341016 0.260820
C86   C     C_R   0.494796 0.958903 0.341016 0.260820
C87   C     C_R   0.958903 0.505202 0.341016 0.260820
C88   C     C_R   0.505204 0.041097 0.341016 0.260820
C89   C     C_R   0.500000 0.000000 0.177332 -0.082674
C90   C     C_R   1.000000 0.500000 0.177332 -0.082672
C91   C     C_R   0.500000 0.000000 0.822667 -0.082671
C92   C     C_R   0.000000 0.500000 0.822668 -0.082672
C93   C     C_R   0.000000 0.500000 0.677332 -0.082670
C94   C     C_R   0.500000 0.000000 0.677332 -0.082671
C95   C     C_R   0.000000 0.500000 0.322667 -0.082670
C96   C     C_R   0.500000 0.000000 0.322668 -0.082670
C97   C     C_R   0.500000 0.000000 0.104890 -0.153659
C98   C     C_R   1.000000 0.500000 0.104890 -0.153659
C99   C     C_R   0.500000 0.000000 0.895110 -0.153660
C100  C     C_R   0.000000 0.500000 0.895110 -0.153659
C101  C     C_R   0.000000 0.500000 0.604890 -0.153662
C102  C     C_R   0.500000 0.000000 0.604890 -0.153660
C103  C     C_R   0.000000 0.500000 0.395110 -0.153662
C104  C     C_R   0.500000 0.000000 0.395110 -0.153661
C105  C     C_R   0.500000 0.000000 0.284829 0.480106
C106  C     C_R   0.000000 0.500000 0.284829 0.480107
C107  C     C_R   0.500000 0.000000 0.715171 0.480105
C108  C     C_R   0.000000 0.500000 0.715171 0.480106
C109  C     C_R   0.000000 0.500000 0.784829 0.480104
C110  C     C_R   0.500000 0.000000 0.784829 0.480105
C111  C     C_R   1.000000 0.500000 0.215171 0.480106
C112  C     C_R   0.500000 0.000000 0.215171 0.480103
C113  C     C_1   0.500000 0.863304 0.000000 -0.178691
C114  C     C_1   0.136696 0.500000 0.000000 -0.178691
C115  C     C_1   0.500000 0.136696 0.000000 -0.178691
C116  C     C_1   0.863304 0.500000 0.000000 -0.178691
C117  C     C_1   1.000000 0.363304 0.500000 -0.178691
C118  C     C_1   0.636696 0.000000 0.500000 -0.178691
C119  C     C_1   0.000000 0.636696 0.500000 -0.178691
C120  C     C_1   0.363304 1.000000 0.500000 -0.178691
C121  C     C_1   0.500000 0.820949 0.000000 0.027237
C122  C     C_1   0.179051 0.500000 0.000000 0.027237
C123  C     C_1   0.500000 0.179051 0.000000 0.027237
C124  C     C_1   0.820949 0.500000 0.000000 0.027237
C125  C     C_1   1.000000 0.320949 0.500000 0.027237
C126  C     C_1   0.679051 0.000000 0.500000 0.027237
C127  C     C_1   0.000000 0.679051 0.500000 0.027237
C128  C     C_1   0.320949 1.000000 0.500000 0.027237
Cu1   Cu    Cu3+1 0.542440 0.000000 0.000000 1.005391
Cu2   Cu    Cu3+1 0.000000 0.542440 0.000000 1.005391
Cu3   Cu    Cu3+1 0.457560 0.000000 0.000000 1.005391
Cu4   Cu    Cu3+1 0.000000 0.457560 0.000000 1.005391
Cu5   Cu    Cu3+1 0.042440 0.500000 0.500000 1.005391
Cu6   Cu    Cu3+1 0.500000 0.042440 0.500000 1.005391
Cu7   Cu    Cu3+1 0.957560 0.500000 0.500000 1.005391
Cu8   Cu    Cu3+1 0.500000 0.957560 0.500000 1.005391
Cu9   Cu    Cu3+1 0.500000 0.500000 0.034270 1.007173
Cu10  Cu    Cu3+1 0.500000 0.500000 0.965730 1.007173
Cu11  Cu    Cu3+1 0.000000 0.000000 0.534270 1.007172
Cu12  Cu    Cu3+1 0.000000 0.000000 0.465730 1.007173
H1    H     H_    0.427379 0.990713 0.109396 0.191294
H2    H     H_    0.009294 0.427380 0.109396 0.191293
H3    H     H_    0.572621 0.009287 0.109396 0.191294
H4    H     H_    0.990706 0.572620 0.109396 0.191293
H5    H     H_    0.572621 0.990713 0.890604 0.191294
H6    H     H_    0.990708 0.427380 0.890604 0.191293
H7    H     H_    0.427379 0.009287 0.890604 0.191294
H8    H     H_    0.009292 0.572620 0.890604 0.191294
H9    H     H_    0.927378 0.490727 0.609396 0.191296
H10   H     H_    0.509280 0.927378 0.609396 0.191295
H11   H     H_    0.072622 0.509273 0.609396 0.191295
H12   H     H_    0.490720 0.072622 0.609396 0.191294
H13   H     H_    0.072623 0.490728 0.390604 0.191295
H14   H     H_    0.490725 0.927377 0.390604 0.191295
H15   H     H_    0.927377 0.509272 0.390604 0.191296
H16   H     H_    0.509275 0.072623 0.390604 0.191295
N1    N     N_R   0.528081 0.971875 0.232890 -0.156216
N2    N     N_R   0.971876 0.471918 0.232889 -0.156216
N3    N     N_R   0.471919 0.028125 0.232890 -0.156216
N4    N     N_R   0.028124 0.528082 0.232889 -0.156216
N5    N     N_R   0.471922 0.971872 0.767110 -0.156216
N6    N     N_R   0.028126 0.471920 0.767110 -0.156216
N7    N     N_R   0.528078 0.028129 0.767110 -0.156216
N8    N     N_R   0.971874 0.528080 0.767110 -0.156216
N9    N     N_R   0.028072 0.471866 0.732889 -0.156216
N10   N     N_R   0.471868 0.971925 0.732889 -0.156216
N11   N     N_R   0.971928 0.528134 0.732889 -0.156216
N12   N     N_R   0.528132 0.028075 0.732889 -0.156216
N13   N     N_R   0.971930 0.471864 0.267110 -0.156217
N14   N     N_R   0.528135 0.971929 0.267110 -0.156218
N15   N     N_R   0.028070 0.528136 0.267110 -0.156217
N16   N     N_R   0.471865 0.028071 0.267111 -0.156217
O1    O     O_R   0.535830 0.937970 0.000040 -0.559447
O2    O     O_R   0.062030 0.535830 0.000040 -0.559447
O3    O     O_R   0.464170 0.062030 0.000040 -0.559446
O4    O     O_R   0.937970 0.464170 0.000040 -0.559446
O5    O     O_R   0.464170 0.937970 0.999960 -0.559446
O6    O     O_R   0.937970 0.535830 0.999960 -0.559447
O7    O     O_R   0.535830 0.062030 0.999960 -0.559447
O8    O     O_R   0.062030 0.464170 0.999960 -0.559446
O9    O     O_R   0.035830 0.437970 0.500040 -0.559446
O10   O     O_R   0.562030 0.035830 0.500040 -0.559446
O11   O     O_R   0.964170 0.562030 0.500040 -0.559446
O12   O     O_R   0.437970 0.964170 0.500040 -0.559446
O13   O     O_R   0.964170 0.437970 0.499960 -0.559446
O14   O     O_R   0.437970 0.035830 0.499960 -0.559447
O15   O     O_R   0.035830 0.562030 0.499960 -0.559447
O16   O     O_R   0.562030 0.964170 0.499960 -0.559446
O17   O     O_R   0.535830 0.999940 0.049970 -0.577959
O18   O     O_R   0.000060 0.535830 0.049970 -0.577958
O19   O     O_R   0.464170 0.000060 0.049970 -0.577958
O20   O     O_R   0.999940 0.464170 0.049970 -0.577958
O21   O     O_R   0.464170 0.999940 0.950030 -0.577957
O22   O     O_R   0.999940 0.535830 0.950030 -0.577958
O23   O     O_R   0.535830 0.000060 0.950030 -0.577958
O24   O     O_R   0.000060 0.464170 0.950030 -0.577958
O25   O     O_R   0.035830 0.499940 0.549970 -0.577959
O26   O     O_R   0.500060 0.035830 0.549970 -0.577958
O27   O     O_R   0.964170 0.500060 0.549970 -0.577958
O28   O     O_R   0.499940 0.964170 0.549970 -0.577958
O29   O     O_R   0.964170 0.499940 0.450030 -0.577958
O30   O     O_R   0.499940 0.035830 0.450030 -0.577958
O31   O     O_R   0.035830 0.500060 0.450030 -0.577958
O32   O     O_R   0.500060 0.964170 0.450030 -0.577958
O33   O     O_R   0.437960 0.499970 0.028950 -0.552983
O34   O     O_R   0.500030 0.437960 0.028950 -0.552983
O35   O     O_R   0.562040 0.500030 0.028950 -0.552983
O36   O     O_R   0.499970 0.562040 0.028950 -0.552983
O37   O     O_R   0.562040 0.499970 0.971050 -0.552983
O38   O     O_R   0.499970 0.437960 0.971050 -0.552983
O39   O     O_R   0.437960 0.500030 0.971050 -0.552983
O40   O     O_R   0.500030 0.562040 0.971050 -0.552983
O41   O     O_R   0.937960 0.999970 0.528950 -0.552983
O42   O     O_R   0.000030 0.937960 0.528950 -0.552983
O43   O     O_R   0.062040 0.000030 0.528950 -0.552983
O44   O     O_R   0.999970 0.062040 0.528950 -0.552983
O45   O     O_R   0.062040 0.999970 0.471050 -0.552983
O46   O     O_R   0.999970 0.937960 0.471050 -0.552983
O47   O     O_R   0.937960 0.000030 0.471050 -0.552983
O48   O     O_R   0.000030 0.062040 0.471050 -0.552983
Br1   Br    Br    0.401614 0.984815 0.181492 -0.406264
Br2   Br    Br    0.015194 0.401616 0.181492 -0.406265
Br3   Br    Br    0.598386 0.015185 0.181492 -0.406264
Br4   Br    Br    0.984806 0.598384 0.181492 -0.406265
Br5   Br    Br    0.598386 0.984816 0.818508 -0.406266
Br6   Br    Br    0.984809 0.401615 0.818508 -0.406265
Br7   Br    Br    0.401614 0.015184 0.818508 -0.406266
Br8   Br    Br    0.015191 0.598385 0.818508 -0.406265
Br9   Br    Br    0.901612 0.484835 0.681492 -0.406266
Br10  Br    Br    0.515174 0.901613 0.681492 -0.406266
Br11  Br    Br    0.098388 0.515165 0.681492 -0.406267
Br12  Br    Br    0.484826 0.098387 0.681492 -0.406266
Br13  Br    Br    0.098389 0.484837 0.318507 -0.406267
Br14  Br    Br    0.484833 0.901611 0.318507 -0.406267
Br15  Br    Br    0.901611 0.515163 0.318507 -0.406266
Br16  Br    Br    0.515167 0.098389 0.318507 -0.406266

loop_
_geom_bond_atom_site_label_1
_geom_bond_atom_site_label_2
_ccdc_geom_bond_type
C76   C90   A    
C78   Br6   S    
C40   C47   S    
C108  N9    A    
C48   O44   A    
C67   C101  A    
C67   C83   A    
C46   O46   A    
C112  N3    A    
C6    O16   A    
C85   C95   A    
C106  N15   A    
Cu6   O14   S    
C58   C98   A    
C65   C101  A    
C96   C105  S    
C88   C96   A    
Cu3   O5    S    
C87   Br15  S    
Cu7   O29   S    
C63   C79   A    
Cu2   O2    S    
C77   Br5   S    
Cu1   O7    S    
C89   C112  S    
C11   C19   T    
C86   Br14  S    
C1    C113  S    
C12   C20   T    
C6    O10   A    
C59   H3    S    
C85   Br13  S    
C17   C25   S    
Cu9   O33   S    
C91   C110  S    
C7    O15   A    
C105  N16   A    
C111  N2    A    
C68   C102  A    
C81   C93   A    
C66   H10   S    
C60   C98   A    
C109  N6    A    
C93   C108  S    
C48   O48   A    
C70   C104  A    
C92   C109  S    
C49   O17   A    
Cu11  O42   S    
C55   O29   A    
C55   C103  S    
Cu10  O39   S    
C44   O36   A    
C54   O28   A    
C30   C38   T    
Cu4   O4    S    
C57   C73   A    
Cu12  O46   S    
C35   C42   S    
C66   C102  A    
C38   C45   S    
C61   H5    S    
Cu2   O6    S    
C72   C88   A    
C1    O5    A    
Cu5   O31   S    
C26   C34   T    
C116  C124  T    
C57   C97   A    
C61   C77   A    
C46   O42   A    
C47   O43   A    
C45   O41   A    
Cu7   O11   S    
C19   C27   S    
Cu4   O20   S    
C79   C91   A    
N5    N10   A    
C42   O38   A    
C13   C125  S    
C8    O12   A    
C15   C23   T    
C82   Br10  S    
C107  N10   A    
C75   Br3   S    
C72   H16   S    
C16   C24   T    
C15   C127  S    
Cu8   O16   S    
C65   H9    S    
C64   C80   A    
Cu1   O1    S    
C61   C99   A    
C34   C41   S    
C2    O8    A    
C90   C111  S    
Cu6   O10   S    
C84   Br12  S    
C41   O39   A    
C63   H7    S    
Cu1   O23   S    
C110  N5    A    
Cu12  O48   S    
Cu6   O30   S    
Cu9   O34   S    
C69   C103  A    
C51   C99   S    
C62   C78   A    
C88   Br16  S    
C94   C107  S    
C50   C98   S    
C115  C123  T    
C112  N1    A    
C10   C18   T    
C43   O35   A    
C53   O27   A    
Cu7   O13   S    
C7    C119  S    
C71   H15   S    
C52   O22   A    
C56   C104  S    
C2    O2    A    
C105  N14   A    
C43   O37   A    
Cu11  O43   S    
C57   H1    S    
C4    C116  S    
Cu6   Cu8   S    
C72   C104  A    
C8    O14   A    
C21   C29   S    
Cu10  O38   S    
C76   Br4   S    
C3    O7    A    
Cu1   O17   S    
C44   O40   A    
C68   C84   A    
C80   C92   A    
Cu2   Cu4   S    
C111  N4    A    
C24   C32   S    
C68   H12   S    
C95   C106  S    
N1    N14   A    
C66   C82   A    
N6    N9    A    
C47   O45   A    
C78   C92   A    
C58   H2    S    
Cu12  O47   S    
C9    C121  S    
C83   C93   A    
C5    O9    A    
C64   C100  A    
Cu11  O44   S    
C110  N7    A    
C1    O1    A    
C18   C26   S    
Cu8   O12   S    
C4    O4    A    
C13   C21   T    
C84   C94   A    
C80   Br8   S    
C37   C48   S    
C16   C128  S    
C86   C96   A    
Cu4   O8    S    
C39   C46   S    
C71   C87   A    
C3    O3    A    
C108  N11   A    
C60   C76   A    
C113  C121  T    
C51   O21   A    
C45   O47   A    
C106  N13   A    
C62   C100  A    
C82   C94   A    
C70   C86   A    
C59   C75   A    
Cu8   O32   S    
C69   C85   A    
C58   C74   A    
Cu5   Cu7   S    
C5    C117  S    
Cu9   O35   S    
C9    C17   T    
Cu6   O26   S    
C8    C120  S    
C71   C103  A    
C107  N12   A    
C77   C91   A    
Cu5   O25   S    
N3    N16   A    
C22   C30   S    
C70   H14   S    
C33   C44   S    
C54   C102  S    
N8    N11   A    
C11   C123  S    
C55   O31   A    
C4    O6    A    
C52   O24   A    
Cu2   O22   S    
C109  N8    A    
C14   C126  S    
C87   C95   A    
Cu11  Cu12  S    
C120  C128  T    
N2    N13   A    
C49   O19   A    
Cu3   O19   S    
C63   C99   A    
C20   C28   S    
Cu9   Cu10  S    
C74   Br2   S    
Cu10  O37   S    
C53   C101  S    
C54   O26   A    
C73   Br1   S    
C5    O13   A    
Cu3   O21   S    
C27   C35   T    
C31   C39   T    
C14   C22   T    
N7    N12   A    
C73   C89   A    
C81   Br9   S    
C3    C115  S    
C60   H4    S    
Cu7   O27   S    
C50   O20   A    
C2    C114  S    
C74   C90   A    
C83   Br11  S    
Cu11  O41   S    
C67   H11   S    
C59   C97   A    
Cu9   O36   S    
Cu10  O40   S    
Cu3   O3    S    
N4    N15   A    
C52   C100  S    
C42   O34   A    
Cu5   O9    S    
C7    O11   A    
C32   C40   T    
C41   O33   A    
C50   O18   A    
C69   H13   S    
Cu8   O28   S    
C25   C33   T    
C56   O32   A    
Cu5   O15   S    
C49   C97   S    
C114  C122  T    
C10   C122  S    
Cu12  O45   S    
C56   O30   A    
C28   C36   T    
C62   H6    S    
C75   C89   A    
C29   C37   T    
C79   Br7   S    
C65   C81   A    
C36   C43   S    
C51   O23   A    
C118  C126  T    
Cu4   O24   S    
C117  C125  T    
C12   C124  S    
C6    C118  S    
C64   H8    S    
Cu2   O18   S    
C23   C31   S    
Cu1   Cu3   S    
C53   O25   A    
C119  C127  T    
