data_mof_unit_8457.cif
_audit_creation_date              2012-12-11T17:01:34-0500
_audit_creation_method            fapswitch 2.2
_symmetry_space_group_name_H-M    P1
_symmetry_Int_Tables_number       1
_space_group_crystal_system       triclinic
_cell_length_a                    15.075103
_cell_length_b                    15.053802
_cell_length_c                    15.213829
_cell_angle_alpha                 110.554733
_cell_angle_beta                  109.228213
_cell_angle_gamma                 109.417167
_cell_volume                      2631.38325614

loop_
_atom_site_label
_atom_site_type_symbol
_atom_type_description
_atom_site_fract_x
_atom_site_fract_y
_atom_site_fract_z
_atom_type_partial_charge
C1    C     C_R   0.929435 0.742281 0.021748 0.491174
C2    C     C_R   0.675720 0.222870 0.675571 0.015621
C3    C     C_R   0.012367 0.499931 0.681882 0.142613
C4    C     C_R   0.710629 0.494068 0.086638 0.019938
C5    C     C_R   0.008938 0.594526 0.303783 0.794501
C6    C     C_R   0.223728 0.409426 0.971514 -0.036100
C7    C     C_R   0.296935 0.805132 0.208371 0.008544
C8    C     C_R   0.908730 0.199228 0.998566 0.699074
C9    C     C_R   0.998937 0.196172 0.908408 0.676065
C10   C     C_R   0.210943 0.803261 0.302314 -0.042284
C11   C     C_R   0.917738 0.410621 0.214433 -0.159661
C12   C     C_R   0.778054 0.252233 0.687863 -0.092895
C13   C     C_R   0.315126 0.593862 0.058211 0.537142
C14   C     C_R   0.957058 0.505462 0.309679 -0.123042
C15   C     C_R   0.328311 0.502095 0.040712 0.205994
C16   C     C_R   0.302546 0.866707 0.303579 0.027980
C17   C     C_R   0.939842 0.135929 0.940570 -0.365800
C18   C     C_3   0.514725 0.375721 0.038654 1.069185
C19   C     C_3   0.406960 0.376043 0.013058 1.086884
C20   C     C_3   0.629651 0.577829 0.188894 1.265782
C21   C     C_3   0.564145 0.521541 0.988734 1.082609
C22   C     C_3   0.607759 0.492203 0.077183 -0.848262
C23   C     C_R   0.066885 0.592042 0.782810 -0.069407
C24   C     C_3   0.429427 0.497183 0.056770 -0.662322
C25   C     C_3   0.520520 0.567694 0.179677 -0.012845
C26   C     C_3   0.470824 0.541437 0.990106 0.847908
C27   C     C_R   0.576882 0.115348 0.474468 0.065114
C28   C     C_R   0.575897 0.164201 0.571148 0.107184
C29   C     C_R   0.474483 0.137476 0.565162 -0.122638
C30   C     C_R   0.379284 0.045536 0.470916 -0.115559
C31   C     C_R   0.386152 0.981345 0.383140 0.048909
C32   C     C_R   0.483159 0.024621 0.381908 -0.067021
C33   C     C_3   0.545643 0.971434 0.351374 0.935531
C34   C     C_R   0.710368 0.405789 0.016436 0.526250
C35   C     C_3   0.648053 0.071505 0.451614 -0.660439
C36   C     C_R   0.039526 0.603008 0.503578 -0.035270
C37   C     C_R   0.951251 0.514699 0.402800 0.105494
C38   C     C_R   0.867981 0.430141 0.395477 -0.238862
C39   C     C_R   0.883898 0.424436 0.488805 0.526629
C40   C     C_R   0.984958 0.503544 0.585541 0.019811
C41   C     C_R   0.056111 0.596614 0.593732 -0.321135
C42   C     C_3   0.177860 0.653635 0.644296 0.171618
C43   C     C_3   0.159839 0.660705 0.543373 1.251066
C44   C     C_R   0.899840 0.915840 0.000248 0.015424
C45   C     C_R   0.977445 0.408006 0.689651 -0.042801
C46   C     C_R   0.915947 0.846152 0.926482 0.057694
C47   C     C_R   0.913780 0.857727 0.838260 -0.175922
C48   C     C_R   0.911166 0.948569 0.834585 -0.035535
C49   C     C_R   0.910931 0.026332 0.919432 0.026240
C50   C     C_R   0.895548 0.003232 0.995941 0.160402
C51   C     C_3   0.958365 0.075301 0.117708 0.699305
C52   C     C_3   0.963506 0.978688 0.122189 -0.579808
C53   C     C_R   0.800225 0.586368 0.111888 0.663145
C54   C     C_R   0.685673 0.249337 0.776971 -0.020980
C55   C     C_R   0.028692 0.754199 0.940549 -0.190476
C56   C     C_R   0.949801 0.775682 0.953276 -0.058653
H1    H     H_    0.200205 0.324059 0.937811 0.255677
H2    H     H_    0.341062 0.837337 0.173384 0.180182
H3    H     H_    0.181862 0.831407 0.356418 0.182689
H4    H     H_    0.864887 0.326611 0.189128 0.229082
H5    H     H_    0.798896 0.245168 0.626256 0.147214
H6    H     H_    0.536137 0.652101 0.216804 0.203198
H7    H     H_    0.469595 0.178210 0.636355 0.179452
H8    H     H_    0.114604 0.676568 0.806751 0.113986
H9    H     H_    0.303912 0.018570 0.472215 0.160648
H10   H     H_    0.687783 0.052287 0.512487 0.221437
H11   H     H_    0.703919 0.121813 0.433442 0.225185
H12   H     H_    0.795972 0.365407 0.317345 0.163118
H13   H     H_    0.220806 0.734697 0.720245 0.148671
H14   H     H_    0.923413 0.802821 0.778350 0.160635
H15   H     H_    0.917841 0.961796 0.771093 0.212308
H16   H     H_    0.038958 0.146992 0.150918 -0.003391
H17   H     H_    0.047536 0.992095 0.155408 0.165576
H18   H     H_    0.917023 0.946567 0.158085 0.294102
H19   H     H_    0.946524 0.324558 0.628297 0.140835
H20   H     H_    0.622190 0.238547 0.797417 0.182379
H21   H     H_    0.067979 0.777623 0.898351 0.142104
N1    N     N_R   0.995640 0.706130 0.053910 -0.102473
N2    N     N_R   0.153680 0.443190 0.946090 -0.102587
N3    N     N_R   0.208920 0.706140 0.152110 -0.068468
N4    N     N_R   0.947120 0.293870 0.002870 -0.145337
N5    N     N_R   0.004360 0.293870 0.946090 -0.160735
N6    N     N_R   0.151690 0.706140 0.208890 -0.070972
N7    N     N_R   0.945990 0.443210 0.152110 -0.089119
N8    N     N_R   0.210060 0.556810 0.002870 -0.097963
N9    N     N_R   0.848310 0.293860 0.791110 -0.061716
N10   N     N_R   0.054010 0.556790 0.847890 -0.056570
N11   N     N_R   0.789940 0.443190 0.997130 -0.139731
N12   N     N_R   0.997630 0.443170 0.791110 -0.062706
N13   N     N_R   0.846320 0.556810 0.053910 -0.170171
N14   N     N_R   0.791080 0.293860 0.847890 -0.047253
N15   N     N_R   0.052880 0.706130 0.997130 -0.076099
N16   N     N_R   0.002370 0.556830 0.208890 -0.148688
Ni1   Ni    Ni4+2 0.999010 0.630300 0.130220 0.248674
Ni2   Ni    Ni4+2 0.000990 0.369700 0.869780 0.281412
Ni3   Ni    Ni4+2 0.130280 0.630280 0.000000 0.258980
Ni4   Ni    Ni4+2 0.869720 0.369720 0.000000 0.301125
O1    O     O_3   0.850484 0.739491 0.048483 -0.705922
H22   H     H_    0.793830 0.739160 0.991908 0.380276
F1    F     F_    0.824989 0.161054 0.015945 -0.620621
F2    F     F_    0.023329 0.155685 0.830630 -0.668925
O2    O     O_3   0.390219 0.701288 0.101294 -0.664894
H23   H     H_    0.455554 0.722723 0.165077 0.368015
F3    F     F_    0.543162 0.349731 0.118751 -0.658601
F4    F     F_    0.495283 0.292602 0.944490 -0.564624
F5    F     F_    0.337105 0.312812 0.900933 -0.588776
F6    F     F_    0.357051 0.326525 0.058417 -0.638350
F7    F     F_    0.683904 0.563478 0.271500 -0.618755
O3    O     O_3   0.489315 0.527963 0.242208 -0.621380
H24   H     H_    0.506081 0.469050 0.238647 0.418594
F8    F     F_    0.644431 0.615563 0.006554 -0.601483
F9    F     F_    0.528552 0.436840 0.886687 -0.636293
O4    O     O_3   0.384862 0.489681 0.883018 -0.647916
H25   H     H_    0.410510 0.531594 0.850082 0.386162
F10   F     F_    0.511450 0.654046 0.038907 -0.605977
F11   F     F_    0.694780 0.684301 0.216415 -0.577492
O5    O     O_3   0.521793 0.876022 0.357342 -0.730614
H26   H     H_    0.579345 0.858995 0.354481 0.346905
O6    O     O_3   0.542239 0.956250 0.253239 -0.694955
H27   H     H_    0.549749 0.022993 0.250049 0.315697
O7    O     O_3   0.805498 0.341621 0.486196 -0.780334
H28   H     H_    0.740434 0.294622 0.412097 0.331721
O8    O     O_3   0.222092 0.586618 0.655969 -0.655554
H29   H     H_    0.174879 0.512382 0.589040 0.357304
F12   F     F_    0.201017 0.767862 0.565540 -0.638835
O9    O     O_3   0.676968 0.305747 0.010371 -0.652266
H30   H     H_    0.669998 0.314126 0.074865 0.376153
F13   F     F_    0.189998 0.600628 0.479249 -0.691544
F14   F     F_    0.894993 0.101718 0.158141 -0.596890
O10   O     O_3   0.855085 0.686252 0.206744 -0.568742
H31   H     H_    0.926524 0.730847 0.216082 0.341902
F15   F     F_    0.036447 0.699417 0.368310 -0.660791

loop_
_geom_bond_atom_site_label_1
_geom_bond_atom_site_label_2
_ccdc_geom_bond_type
C21   C26   S    
C29   H7    S    
C33   O5    S    
N16   Ni1   S    
C4    C53   A    
C2    C28   S    
C41   C42   S    
C3    C23   A    
C55   C56   A    
C2    C12   A    
C43   F12   S    
N4    N5    A    
C51   F14   S    
O8    H29   S    
C16   C31   S    
C28   C29   A    
O9    H30   S    
N7    Ni4   S    
C27   C28   A    
C36   C37   A    
C37   C38   A    
C24   C26   S    
C52   H18   S    
N9    N14   A    
C38   C39   A    
C55   H21   S    
N8    Ni3   S    
C20   C25   S    
C10   N6    A    
N15   Ni3   S    
C18   C19   S    
C49   C50   A    
C26   F10   S    
C33   C35   S    
C6    C15   A    
C5    F15   S    
C47   C48   A    
N3    Ni3   S    
C45   N12   A    
C7    H2    S    
N11   Ni4   S    
C25   O3    S    
C9    N5    A    
N7    N16   A    
C44   C52   S    
C23   N10   A    
C21   C22   S    
C1    N1    A    
C6    H1    S    
C36   C41   A    
N3    N6    A    
C21   F8    S    
C44   C46   A    
C42   O8    S    
N13   Ni1   S    
C4    C34   A    
C8    N4    A    
C24   C25   S    
C52   H17   S    
C2    C54   A    
C17   C49   S    
C39   C40   A    
C20   F11   S    
C18   F3    S    
C35   H10   S    
N1    N15   A    
N6    Ni1   S    
C3    C45   A    
C42   H13   S    
C51   C52   S    
N12   Ni2   S    
C47   H14   S    
N2    Ni2   S    
C29   C30   A    
C4    C22   S    
C31   C32   A    
C35   H11   S    
C34   O9    S    
N10   Ni3   S    
C50   C51   S    
C5    C14   A    
C34   N11   A    
N14   Ni4   S    
O7    H28   S    
C54   H20   S    
C9    C17   A    
C15   C24   S    
C55   N15   A    
N11   N13   A    
C3    C40   S    
C33   O6    S    
C13   C15   A    
C42   C43   S    
C20   C22   S    
C48   H15   S    
C13   N8    A    
C11   H4    S    
N2    N8    A    
C21   F9    S    
O4    H25   S    
C44   C50   A    
C46   C47   A    
C23   H8    S    
N5    Ni2   S    
C27   C32   A    
C18   C22   S    
C1    C56   A    
C7    C16   A    
C38   H12   S    
C1    O1    S    
C5    N16   A    
O6    H27   S    
C11   N7    A    
C8    C17   A    
C39   O7    S    
C12   N9    A    
C45   H19   S    
C27   C35   S    
C32   C33   S    
N10   N12   A    
O10   H31   S    
C8    F1    S    
C18   F4    S    
C54   N14   A    
C10   C16   A    
O5    H26   S    
C14   C37   S    
C12   H5    S    
C6    N2    A    
C30   C31   A    
C43   F13   S    
N4    Ni4   S    
N1    Ni1   S    
C48   C49   A    
C11   C14   A    
C19   C24   S    
C25   H6    S    
O2    H23   S    
C26   O4    S    
C30   H9    S    
N9    Ni2   S    
C19   F5    S    
C9    F2    S    
O1    H22   S    
C51   H16   S    
C46   C56   S    
C53   N13   A    
C36   C43   S    
C40   C41   A    
C53   O10   S    
C13   O2    S    
O3    H24   S    
C10   H3    S    
C7    N3    A    
C20   F7    S    
C19   F6    S    
