data_mof_unit_47957.cif
_audit_creation_date              2012-12-10T18:42:37-0500
_audit_creation_method            fapswitch 2.2
_symmetry_space_group_name_H-M    P1
_symmetry_Int_Tables_number       1
_space_group_crystal_system       triclinic
_cell_length_a                    10.869454
_cell_length_b                    15.094812
_cell_length_c                    13.941722
_cell_angle_alpha                 91.479938
_cell_angle_beta                  91.631141
_cell_angle_gamma                 91.940653
_cell_volume                      2284.39108096

loop_
_atom_site_label
_atom_site_type_symbol
_atom_type_description
_atom_site_fract_x
_atom_site_fract_y
_atom_site_fract_z
_atom_type_partial_charge
C1    C     C_R   0.498836 0.330409 0.498758 0.800577
C2    C     C_R   0.498290 0.670349 0.500688 0.807721
C3    C     C_R   0.871813 0.497242 0.502698 -0.082507
C4    C     C_R   0.128560 0.501031 0.496585 -0.071278
C5    C     C_R   0.942122 0.466226 0.581046 0.000320
C6    C     C_R   0.059204 0.535865 0.420179 0.035103
C7    C     C_R   0.401196 0.095076 0.534432 -0.185778
C8    C     C_R   0.482045 0.902187 0.411116 -0.205391
C9    C     C_R   0.403671 0.186957 0.539473 -0.190029
C10   C     C_R   0.487454 0.810726 0.412771 -0.221412
C11   C     C_R   0.496996 0.234636 0.495069 -0.024462
C12   C     C_R   0.494920 0.767564 0.500405 -0.066308
C13   C     C_R   0.586823 0.190975 0.444310 -0.211558
C14   C     C_R   0.497645 0.817840 0.586271 -0.193198
C15   C     C_R   0.588764 0.098300 0.441499 0.101885
C16   C     C_R   0.504087 0.910675 0.585923 0.096094
C17   C     C_R   0.495680 0.050004 0.489760 0.080841
C18   C     C_R   0.495218 0.953102 0.496295 0.079348
C19   C     C_R   0.596375 0.550513 0.113851 0.041461
C20   C     C_R   0.470897 0.418336 0.888149 0.027378
C21   C     C_R   0.586992 0.550402 0.215400 0.052401
C22   C     C_R   0.463174 0.424798 0.786519 0.008727
C23   C     C_R   0.262420 0.501203 0.498671 0.791166
C24   C     C_R   0.737769 0.498352 0.501301 0.798013
C25   C     C_R   0.414934 0.450930 0.203731 0.354510
C26   C     C_R   0.540209 0.572218 0.796864 0.348769
C27   C     C_R   0.410267 0.457716 0.104111 -0.308242
C28   C     C_R   0.524618 0.574491 0.895807 -0.307895
C29   C     C_R   0.503977 0.501966 0.055545 0.072602
C30   C     C_R   0.499693 0.497107 0.945843 0.091615
C31   C     C_R   0.228712 0.710426 0.276531 -0.184406
C32   C     C_R   0.869216 0.339641 0.805002 -0.194572
C33   C     C_R   0.171126 0.670294 0.354211 0.095585
C34   C     C_R   0.882821 0.355052 0.706565 0.093251
C35   C     C_R   0.115954 0.584143 0.340526 0.096420
C36   C     C_R   0.892765 0.443701 0.675443 0.105505
C37   C     C_R   0.112884 0.543405 0.248877 -0.176497
C38   C     C_R   0.888796 0.513675 0.743230 -0.141761
C39   C     C_R   0.171708 0.583829 0.173046 -0.162931
C40   C     C_R   0.877838 0.497185 0.840423 -0.161990
C41   C     C_R   0.231166 0.666656 0.187137 0.187575
C42   C     C_R   0.870659 0.410355 0.871778 0.178527
C43   C     C_R   0.931516 0.529778 0.422220 -0.246009
C44   C     C_R   0.069243 0.466892 0.575648 -0.229164
Cu1   Cu    Cu3+1 0.500000 0.499990 0.596430 0.967484
Cu2   Cu    Cu3+1 0.500000 0.500010 0.403570 0.975436
H1    H     H_    0.650360 0.589204 0.261558 0.127956
H2    H     H_    0.433193 0.367232 0.743447 0.133038
H3    H     H_    0.331593 0.428189 0.065208 0.162415
H4    H     H_    0.539403 0.637182 0.933329 0.180971
H5    H     H_    0.270573 0.776331 0.284892 0.149474
H6    H     H_    0.864801 0.272424 0.830395 0.152680
H7    H     H_    0.066744 0.479220 0.236636 0.186929
H8    H     H_    0.903943 0.581416 0.721334 0.168515
H9    H     H_    0.170439 0.550889 0.103143 0.176592
H10   H     H_    0.881813 0.552207 0.891470 0.160270
H11   H     H_    0.878816 0.556262 0.362917 0.146323
H12   H     H_    0.122708 0.443342 0.636156 0.158031
H13   H     H_    0.326605 0.058659 0.567230 0.127166
H14   H     H_    0.469019 0.933473 0.342699 0.148546
H15   H     H_    0.332008 0.220922 0.576631 0.132924
H16   H     H_    0.483183 0.773780 0.345098 0.175407
H17   H     H_    0.657654 0.229718 0.409457 0.136000
H18   H     H_    0.495630 0.784956 0.653847 0.181466
N1    N     N_R   0.500000 0.500020 0.258690 -0.202821
N2    N     N_R   0.500000 0.499980 0.741310 -0.188381
O1    O     O_R   0.500010 0.371450 0.581430 -0.605030
O2    O     O_R   0.499990 0.628550 0.418570 -0.592646
O3    O     O_R   0.500010 0.371460 0.418560 -0.548882
O4    O     O_R   0.499990 0.628540 0.581440 -0.557936
O5    O     O_R   0.319640 0.500000 0.581430 -0.592271
O6    O     O_R   0.680360 0.500000 0.418570 -0.598230
O7    O     O_R   0.319640 0.500010 0.418560 -0.548812
O8    O     O_R   0.680360 0.499990 0.581440 -0.553131
I1    I     I_    0.320680 0.727136 0.072398 -0.465510
I2    I     I_    0.880573 0.386629 0.020321 -0.510112
C45   C     C_3   0.692634 0.055016 0.389088 -0.401105
C46   C     C_3   0.787050 0.017107 0.459031 -0.368359
C47   C     C_3   0.902123 0.989279 0.407527 -0.837807
H19   H     H_    0.878514 0.934908 0.354286 0.256240
H20   H     H_    0.944518 0.046389 0.370355 0.260861
H21   H     H_    0.970616 0.965739 0.460682 0.249674
H22   H     H_    0.813778 0.068468 0.514631 0.219057
H23   H     H_    0.746747 0.958546 0.494842 0.232411
H24   H     H_    0.656865 0.002865 0.337396 0.199420
H25   H     H_    0.740839 0.104944 0.344867 0.204783
C48   C     C_3   0.521153 0.960967 0.681727 -0.401701
C49   C     C_3   0.647781 0.009050 0.692248 -0.348687
C50   C     C_3   0.664380 0.057120 0.789636 -0.832260
H26   H     H_    0.593558 0.107946 0.797680 0.251656
H27   H     H_    0.656742 0.009317 0.848596 0.265067
H28   H     H_    0.756810 0.090881 0.795052 0.240063
H29   H     H_    0.721520 0.960317 0.684402 0.226553
H30   H     H_    0.658222 0.059145 0.636178 0.221509
H31   H     H_    0.446868 0.008482 0.691557 0.193861
H32   H     H_    0.512861 0.914320 0.741874 0.212162
C51   C     C_3   0.700150 0.605131 0.070062 -0.409913
C52   C     C_3   0.814389 0.626371 0.135525 -0.382653
C53   C     C_3   0.915822 0.673464 0.080559 -0.771149
H33   H     H_    0.960771 0.625778 0.032146 0.260893
H34   H     H_    0.878009 0.727920 0.037802 0.258118
H35   H     H_    0.986065 0.703066 0.132151 0.254828
H36   H     H_    0.790107 0.672155 0.195172 0.206200
H37   H     H_    0.850079 0.564575 0.165874 0.245642
H38   H     H_    0.730867 0.569319 0.005140 0.234651
H39   H     H_    0.663647 0.669988 0.049874 0.213881
C54   C     C_3   0.452285 0.325949 0.928066 -0.439490
C55   C     C_3   0.568599 0.294228 0.979313 -0.300322
C56   C     C_3   0.546688 0.202947 0.021478 -0.812085
H40   H     H_    0.474579 0.205772 0.076275 0.268541
H41   H     H_    0.517405 0.153640 0.964132 0.247566
H42   H     H_    0.633261 0.181136 0.056320 0.255304
H43   H     H_    0.643561 0.290302 0.926993 0.235885
H44   H     H_    0.598512 0.341135 0.038559 0.255564
H45   H     H_    0.372312 0.321527 0.974795 0.213018
H46   H     H_    0.428702 0.277078 0.868728 0.183700
I3    I     I_    0.292166 0.354330 0.259648 -0.370664
I4    I     I_    0.660972 0.674633 0.750969 -0.457730
C57   C     C_3   0.167797 0.721170 0.449200 -0.417277
C58   C     C_3   0.040293 0.758231 0.465782 -0.348700
C59   C     C_3   0.036206 0.805807 0.563504 -0.822965
H47   H     H_    0.055472 0.758946 0.621783 0.264055
H48   H     H_    0.105234 0.861856 0.568410 0.248628
H49   H     H_    0.943180 0.832285 0.573418 0.247148
H50   H     H_    0.018160 0.805529 0.408546 0.220177
H51   H     H_    0.968473 0.704306 0.462728 0.229919
H52   H     H_    0.195225 0.678306 0.509015 0.192311
H53   H     H_    0.235698 0.777876 0.450518 0.207410
C60   C     C_3   0.897068 0.276172 0.639166 -0.417211
C61   C     C_3   0.024945 0.237229 0.653658 -0.340536
C62   C     C_3   0.035974 0.150403 0.596987 -0.854105
H54   H     H_    0.972702 0.098867 0.625540 0.250142
H55   H     H_    0.014629 0.159836 0.519616 0.270716
H56   H     H_    0.131327 0.127193 0.604903 0.236551
H57   H     H_    0.096821 0.285169 0.629966 0.216344
H58   H     H_    0.043294 0.224397 0.730822 0.222708
H59   H     H_    0.824005 0.225166 0.653370 0.198321
H60   H     H_    0.884076 0.294955 0.563093 0.199311

loop_
_geom_bond_atom_site_label_1
_geom_bond_atom_site_label_2
_ccdc_geom_bond_type
C22   H2    S    
C48   C49   S    
C27   C29   A    
C61   H57   S    
C1    C11   S    
C62   H56   S    
C2    C12   S    
C51   C52   S    
C19   C51   S    
C39   C41   A    
C20   C30   A    
C45   C46   S    
C6    C35   S    
C3    C43   A    
C9    H15   S    
C35   C37   A    
C2    O2    A    
C56   H41   S    
C58   H51   S    
Cu1   O5    S    
C52   H36   S    
C5    C36   S    
C55   C56   S    
C15   C17   A    
C55   H44   S    
C22   N2    A    
Cu2   O3    S    
C1    O1    A    
C28   H4    S    
C46   H22   S    
C39   H9    S    
C60   H60   S    
C34   C60   S    
C44   H12   S    
C40   H10   S    
C13   H17   S    
Cu1   O1    S    
C16   C48   S    
C54   C55   S    
C31   C33   A    
C50   H27   S    
Cu2   O6    S    
C20   C54   S    
C37   H7    S    
C57   H53   S    
C40   C42   A    
C45   H24   S    
C3    C24   S    
C10   H16   S    
C23   O7    A    
C7    H13   S    
C49   H30   S    
C26   N2    A    
C23   O5    A    
C25   N1    A    
Cu2   N1    S    
C4    C6    A    
C56   H42   S    
C31   H5    S    
C47   H20   S    
C4    C23   S    
C46   C47   S    
C4    C44   A    
C7    C17   A    
Cu1   Cu2   S    
C8    C18   A    
C48   H31   S    
Cu1   O8    S    
C32   C34   A    
C55   H43   S    
Cu2   O2    S    
C29   C30   S    
C41   I1    S    
C53   H33   S    
C38   H8    S    
C14   H18   S    
C48   H32   S    
C17   C18   S    
C32   H6    S    
C50   H28   S    
C9    C11   A    
C54   H45   S    
C59   H47   S    
C10   C12   A    
C51   H39   S    
C16   C18   A    
C53   H34   S    
C5    C44   A    
C12   C14   A    
C45   H25   S    
C33   C57   S    
C6    C43   A    
C13   C15   A    
C14   C16   A    
C62   H54   S    
C19   C29   A    
C3    C5    A    
C58   C59   S    
C24   O6    A    
C60   C61   S    
C7    C9    A    
C49   H29   S    
C31   C41   A    
C19   C21   A    
Cu1   O4    S    
C58   H50   S    
C42   I2    S    
C61   H58   S    
C26   I4    S    
C20   C22   A    
C62   H55   S    
C25   I3    S    
C47   H21   S    
C57   C58   S    
C25   C27   A    
C26   C28   A    
C21   N1    A    
C28   C30   A    
C61   C62   S    
C51   H38   S    
C37   C39   A    
C56   H40   S    
C8    H14   S    
C38   C40   A    
C11   C13   A    
C24   O8    A    
C15   C45   S    
C52   H37   S    
C36   C38   A    
C33   C35   A    
C34   C36   A    
C1    O3    A    
C54   H46   S    
C59   H48   S    
C43   H11   S    
C47   H19   S    
C46   H23   S    
C53   H35   S    
C60   H59   S    
C49   C50   S    
C8    C10   A    
C52   C53   S    
Cu1   N2    S    
C59   H49   S    
C32   C42   A    
C50   H26   S    
C2    O4    A    
Cu2   O7    S    
C27   H3    S    
C21   H1    S    
C57   H52   S    
