data_mof_unit_50112.cif
_audit_creation_date              2012-12-10T16:52:09-0500
_audit_creation_method            fapswitch 2.2
_symmetry_space_group_name_H-M    P1
_symmetry_Int_Tables_number       1
_space_group_crystal_system       triclinic
_cell_length_a                    7.795912
_cell_length_b                    8.561186
_cell_length_c                    14.947183
_cell_angle_alpha                 91.820942
_cell_angle_beta                  85.003338
_cell_angle_gamma                 93.58674
_cell_volume                      991.523074163

loop_
_atom_site_label
_atom_site_type_symbol
_atom_type_description
_atom_site_fract_x
_atom_site_fract_y
_atom_site_fract_z
_atom_type_partial_charge
C1    C     C_R   0.545618 0.794621 0.497723 0.951913
C2    C     C_R   0.653132 0.543887 0.808422 -0.250910
C3    C     C_R   0.498204 0.502431 0.231212 -0.064160
C4    C     C_R   0.501795 0.497569 0.768788 -0.064160
C5    C     C_R   0.649726 0.549193 0.179634 -0.262968
C6    C     C_R   0.350274 0.450807 0.820366 -0.262968
C7    C     C_R   0.651372 0.549418 0.087127 0.113719
C8    C     C_R   0.348628 0.450581 0.912873 0.113719
C9    C     C_R   0.499488 0.500878 0.046534 0.066810
C10   C     C_R   0.500512 0.499122 0.953466 0.066810
C11   C     C_R   0.346627 0.453990 0.099032 0.109137
C12   C     C_R   0.454381 0.205379 0.502277 0.951913
C13   C     C_R   0.653372 0.546010 0.900968 0.109137
C14   C     C_R   0.802072 0.596979 0.034758 -0.220289
C15   C     C_R   0.197927 0.403021 0.965241 -0.220289
C16   C     C_R   0.803151 0.595093 0.941756 -0.224007
C17   C     C_R   0.196848 0.404907 0.058243 -0.224007
C18   C     C_2   0.569703 0.958077 0.496321 -0.371627
C19   C     C_2   0.430297 0.041923 0.503679 -0.371626
C20   C     C_R   0.500793 0.499517 0.673117 0.875158
C21   C     C_R   0.499207 0.500483 0.326883 0.875158
C22   C     C_R   0.346868 0.456113 0.191578 -0.250910
H1    H     H_    0.230594 0.419197 0.232619 0.179682
H2    H     H_    0.298527 0.991129 0.510779 0.190679
H3    H     H_    0.936875 0.301364 0.387493 0.329641
H4    H     H_    0.063124 0.698636 0.612507 0.329641
H5    H     H_    0.769406 0.580802 0.767381 0.179682
H6    H     H_    0.765863 0.586302 0.211536 0.163544
H7    H     H_    0.234137 0.413698 0.788464 0.163544
H8    H     H_    0.918685 0.635326 0.065701 0.160249
H9    H     H_    0.081315 0.364674 0.934299 0.160249
H10   H     H_    0.920668 0.631773 0.901812 0.155738
H11   H     H_    0.079332 0.368227 0.098188 0.155738
H12   H     H_    0.701473 0.008871 0.489221 0.190679
N1    N     N_2   0.950330 0.457950 0.475660 0.177949
N2    N     N_2   0.049670 0.542050 0.524340 0.177949
O1    O     O_R   0.389250 0.738570 0.505970 -0.633678
O2    O     O_3   0.969525 0.643573 0.580920 -0.671452
O3    O     O_R   0.610750 0.261430 0.494030 -0.633678
O4    O     O_R   0.678390 0.711620 0.490370 -0.580108
O5    O     O_R   0.321610 0.288380 0.509630 -0.580108
O6    O     O_R   0.355420 0.513510 0.639950 -0.646268
O7    O     O_R   0.644580 0.486490 0.360050 -0.646267
O8    O     O_R   0.644560 0.486560 0.624350 -0.581575
O9    O     O_R   0.355440 0.513440 0.375650 -0.581575
O10   O     O_3   0.030475 0.356427 0.419080 -0.671452
Zn1   Zn    Zn3+2 0.306940 0.517990 0.510420 1.032822
Zn2   Zn    Zn3+2 0.693060 0.482010 0.489580 1.032823

loop_
_geom_bond_atom_site_label_1
_geom_bond_atom_site_label_2
_ccdc_geom_bond_type
C2    C4    A    
C15   H9    S    
C2    H5    S    
C16   H10   S    
C5    H6    S    
C9    C11   A    
C9    C10   A    
C11   C22   A    
C20   O6    A    
N1    N2    D    
C1    O1    A    
C12   O3    A    
N2    O2    S    
C19   H2    S    
O5    Zn1   S    
C21   O7    A    
C18   H12   S    
C1    C18   S    
C12   O5    A    
C17   H11   S    
C14   H8    S    
N1    Zn2   S    
C12   C19   S    
C4    C6    A    
C20   O8    A    
C8    C15   A    
C21   O9    A    
O6    Zn1   S    
O9    Zn1   S    
C14   C16   A    
C3    C21   S    
O1    Zn1   S    
C4    C20   S    
C7    C9    A    
C6    H7    S    
N2    Zn1   S    
C8    C10   A    
C18   C19   D    
O7    Zn2   S    
C13   C16   A    
C5    C7    A    
C2    C13   A    
O4    Zn2   S    
C22   H1    S    
C11   C17   A    
C3    C22   A    
C6    C8    A    
C1    O4    A    
C15   C17   A    
N1    O10   S    
H3    O10   S    
C7    C14   A    
H4    O2    S    
O8    Zn2   S    
O3    Zn2   S    
C3    C5    A    
C10   C13   A    
