data_mof_unit_22965.cif
_audit_creation_date              2012-10-26T20:32:26-0400
_audit_creation_method            fapswitch 2.2
_symmetry_space_group_name_H-M    P1
_symmetry_Int_Tables_number       1
_space_group_crystal_system       triclinic
_cell_length_a                    19.348929
_cell_length_b                    10.807261
_cell_length_c                    9.528745
_cell_angle_alpha                 90.303724
_cell_angle_beta                  89.9203
_cell_angle_gamma                 90.314718
_cell_volume                      1992.48572874

loop_
_atom_site_label
_atom_site_type_symbol
_atom_type_description
_atom_site_fract_x
_atom_site_fract_y
_atom_site_fract_z
_atom_type_partial_charge
C1    C     C_R   0.499175 0.262155 0.499550 0.545746
C2    C     C_R   0.853521 0.482224 0.503305 -0.010842
C3    C     C_R   0.483810 0.064950 0.623762 -0.017660
C4    C     C_R   0.367382 0.499103 0.500302 0.547907
C5    C     C_R   0.491600 0.128998 0.498276 -0.006025
C6    C     C_R   0.486446 0.063256 0.371290 -0.162387
C7    C     C_R   0.484295 0.934457 0.372624 -0.155695
C8    C     C_R   0.485913 0.870619 0.501115 -0.028175
C9    C     C_R   0.477124 0.938072 0.626567 0.005328
C10   C     C_3   0.515108 0.931013 0.765303 0.146278
C11   C     C_3   0.526334 0.070134 0.753758 -0.200244
C12   C     C_R   0.291364 0.495155 0.502246 -0.032492
C13   C     C_R   0.534143 0.590741 0.074222 0.159662
C14   C     C_R   0.460802 0.417986 0.074111 -0.027428
C15   C     C_R   0.460698 0.418124 0.925088 -0.026322
C16   C     C_R   0.496469 0.737722 0.500600 0.537112
C17   C     C_R   0.534546 0.590136 0.926706 0.164632
C18   C     C_3   0.610202 0.616412 0.921886 -0.273419
C19   C     C_3   0.609499 0.619175 0.080880 -0.267276
C20   C     C_R   0.632483 0.498241 0.499727 0.555294
C21   C     C_R   0.256183 0.481838 0.630165 -0.122177
C22   C     C_R   0.183841 0.477329 0.634762 0.272853
C23   C     C_R   0.929643 0.479873 0.505044 0.342457
C24   C     C_R   0.146032 0.482952 0.508413 0.043784
C25   C     C_R   0.181544 0.495306 0.380580 -0.172363
C26   C     C_R   0.253466 0.501749 0.377362 -0.156172
C27   C     C_3   0.418566 0.827879 0.871652 0.025181
C28   C     C_3   0.351893 0.903054 0.865910 -0.265080
C29   C     C_3   0.288961 0.818613 0.850431 -0.489982
C30   C     C_3   0.156107 0.558492 0.851596 0.006572
C31   C     C_3   0.195195 0.523139 0.983908 -0.390615
C32   C     C_3   0.692577 0.257727 0.306356 0.001481
C33   C     C_3   0.648353 0.205094 0.188131 -0.357999
C34   C     C_R   0.069822 0.479457 0.508143 0.366128
C35   C     C_R   0.817158 0.537749 0.614300 -0.134917
C36   C     C_R   0.745362 0.542752 0.611945 -0.183616
C37   C     C_R   0.708297 0.491555 0.499358 0.011845
C38   C     C_R   0.744338 0.432631 0.388828 0.243826
C39   C     C_R   0.816605 0.430407 0.390437 -0.097749
Cu1   Cu    Cu3+1 0.500000 0.499980 0.640670 0.912381
Cu2   Cu    Cu3+1 0.500000 0.500020 0.359330 0.939178
H1    H     H_    0.284820 0.472814 0.726911 0.131772
H2    H     H_    0.640156 0.543307 0.127385 0.205985
H3    H     H_    0.619856 0.712634 0.125642 0.129574
H4    H     H_    0.153432 0.501431 0.282884 0.135151
H5    H     H_    0.279312 0.511694 0.277119 0.135581
H6    H     H_    0.844144 0.579187 0.702395 0.150302
H7    H     H_    0.718894 0.589007 0.697189 0.122552
H8    H     H_    0.843517 0.386982 0.303621 0.150007
H9    H     H_    0.488221 0.110274 0.271220 0.136459
H10   H     H_    0.416120 0.766542 0.964744 0.144555
H11   H     H_    0.422159 0.766215 0.779313 0.172625
H12   H     H_    0.485769 0.885537 0.273137 0.156525
H13   H     H_    0.346733 0.958643 0.963820 0.172413
H14   H     H_    0.353688 0.967607 0.775662 0.174147
H15   H     H_    0.292638 0.763659 0.751822 0.149336
H16   H     H_    0.241307 0.875254 0.846800 0.156216
H17   H     H_    0.285362 0.754779 0.941127 0.144146
H18   H     H_    0.103098 0.586471 0.882799 0.178777
H19   H     H_    0.180796 0.641783 0.803759 0.107906
H20   H     H_    0.249678 0.500476 0.958884 0.131265
H21   H     H_    0.194728 0.601847 0.059257 0.095305
H22   H     H_    0.170235 0.441559 0.033494 0.177118
H23   H     H_    0.563829 0.877258 0.760741 0.118871
H24   H     H_    0.662319 0.250581 0.405691 0.127238
H25   H     H_    0.740221 0.200933 0.315169 0.127768
H26   H     H_    0.633682 0.107947 0.211949 0.096702
H27   H     H_    0.600611 0.260688 0.176426 0.180136
H28   H     H_    0.677645 0.207060 0.087845 0.152690
H29   H     H_    0.500933 0.125378 0.837896 0.162887
H30   H     H_    0.581019 0.096198 0.732314 0.089675
H31   H     H_    0.430231 0.349993 0.129802 0.116979
H32   H     H_    0.429951 0.350362 0.868782 0.117868
H33   H     H_    0.640209 0.537343 0.879197 0.153261
H34   H     H_    0.622273 0.707687 0.874590 0.119793
N1    N     N_R   0.034664 0.443243 0.391625 -0.237248
N2    N     N_R   0.965897 0.443147 0.390220 -0.231116
N3    N     N_R   0.964847 0.516269 0.621290 -0.231654
N4    N     N_R   0.033522 0.516089 0.622733 -0.183678
N5    N     N_R   0.500440 0.500930 0.147930 -0.235954
N6    N     N_R   0.500440 0.500890 0.852020 -0.237898
O1    O     O_R   0.500000 0.319640 0.618810 -0.502132
O2    O     O_3   0.150456 0.454669 0.760806 -0.537592
O3    O     O_3   0.709692 0.381781 0.275459 -0.565223
O4    O     O_R   0.500010 0.319680 0.381230 -0.516631
O5    O     O_R   0.400140 0.499970 0.618830 -0.515340
O6    O     O_R   0.400150 0.500010 0.381250 -0.499999
O7    O     O_R   0.499990 0.680320 0.618770 -0.518102
O8    O     O_R   0.500000 0.680360 0.381190 -0.499804
O9    O     O_R   0.599850 0.499990 0.618750 -0.512776
O10   O     O_R   0.599860 0.500030 0.381170 -0.460784
O11   O     O_3   0.475890 0.908084 0.889382 -0.584661

loop_
_geom_bond_atom_site_label_1
_geom_bond_atom_site_label_2
_ccdc_geom_bond_type
C2    C35   A    
Cu2   O8    S    
C18   H34   S    
C31   H20   S    
C35   C36   A    
C35   H6    S    
Cu2   N5    S    
C11   H29   S    
C7    C8    A    
C15   N6    A    
C4    O6    A    
C27   H11   S    
C1    C5    S    
C5    C6    A    
C36   C37   A    
C38   C39   A    
C11   H30   S    
C4    O5    A    
C18   C19   S    
Cu1   O5    S    
C30   O2    S    
C2    C39   A    
C15   H32   S    
C27   H10   S    
C8    C9    A    
C30   H19   S    
C14   N5    A    
C4    C12   S    
C9    C10   S    
C33   H28   S    
C38   O3    S    
C13   N5    A    
C10   O11   S    
C16   O8    A    
C18   H33   S    
C21   C22   A    
C31   H21   S    
Cu2   O6    S    
C28   H14   S    
C19   H2    S    
N1    N2    A    
C1    O4    A    
C32   O3    S    
C20   O10   A    
C13   C19   S    
Cu1   O1    S    
C24   C25   A    
C28   H13   S    
N3    N4    A    
C25   C26   A    
C20   O9    A    
C12   C21   A    
C6    H9    S    
C12   C26   A    
C37   C38   A    
C3    C9    A    
C31   H22   S    
C34   N4    A    
C30   H18   S    
C17   C18   S    
C27   O11   S    
C23   N2    A    
Cu1   Cu2   S    
C39   H8    S    
C29   H16   S    
C22   C24   A    
C7    H12   S    
C25   H4    S    
C2    C23   S    
C19   H3    S    
C33   H26   S    
C32   H25   S    
C28   C29   S    
Cu2   O10   S    
C14   H31   S    
Cu1   N6    S    
C10   H23   S    
C3    C5    A    
C6    C7    A    
C29   H15   S    
Cu2   O4    S    
C13   C17   A    
C22   O2    S    
Cu1   O7    S    
C1    O1    A    
C32   C33   S    
C20   C37   S    
C30   C31   S    
C36   H7    S    
C17   N6    A    
C23   N3    A    
C24   C34   S    
C3    C11   S    
C10   C11   S    
C26   H5    S    
C21   H1    S    
C29   H17   S    
C8    C16   S    
C27   C28   S    
C16   O7    A    
C14   C15   A    
Cu1   O9    S    
C33   H27   S    
C34   N1    A    
C32   H24   S    
