data_mof_unit_67276.cif
_audit_creation_date              2013-03-05T16:01:58-0500
_audit_creation_method            fapswitch 2.2
_symmetry_space_group_name_H-M    P1
_symmetry_Int_Tables_number       1
_space_group_crystal_system       triclinic
_cell_length_a                    8.357631
_cell_length_b                    14.277978
_cell_length_c                    15.014262
_cell_angle_alpha                 95.575875
_cell_angle_beta                  97.830142
_cell_angle_gamma                 91.419953
_cell_volume                      1765.23613141

loop_
_atom_site_label
_atom_site_type_symbol
_atom_site_description
_atom_site_fract_x
_atom_site_fract_y
_atom_site_fract_z
_atom_type_partial_charge
P1    P     P_3+3 0.018620 0.416870 0.295980 0.507955
O1    O     O_2   0.841250 0.444240 0.280450 -0.378862
O2    O     O_3   0.112870 0.447390 0.393710 -0.324263
O3    O     O_3   0.597960 0.615760 0.327700 -0.358350
O4    O     O_2   0.687713 0.551824 0.172306 -0.425094
O5    O     O_3   0.979712 0.294564 0.284046 -0.551217
O6    O     O_3   0.587611 0.724474 0.180789 -0.511156
C1    C     C_3   0.355892 0.802828 0.115178 -0.965049
H1    H     H_    0.428807 0.834413 0.068440 0.273617
H2    H     H_    0.295267 0.737151 0.081231 0.239277
P2    P     P_3+3 0.635650 0.716500 0.560900 0.505891
P3    P     P_3+3 0.039514 0.784991 0.365827 0.489074
O7    O     O_2   0.802240 0.729720 0.532850 -0.403475
O8    O     O_3   0.017190 0.664840 0.371090 -0.395650
O9    O     O_2   0.912595 0.831276 0.420079 -0.350638
O10   O     O_3   0.672130 0.752276 0.677207 -0.575161
O11   O     O_3   0.979456 0.808085 0.253424 -0.472838
C2    C     C_3   0.995973 0.726129 0.195135 0.408368
H3    H     H_    0.928702 0.665125 0.214443 0.168153
H4    H     H_    0.124902 0.708454 0.199547 -0.006468
C3    C     C_3   0.928897 0.736597 0.095732 -0.765767
H5    H     H_    0.810760 0.697328 0.077024 0.222736
C4    C     C_3   0.210539 0.754427 0.654625 0.996884
H6    H     H_    0.183141 0.710874 0.588612 0.054415
C5    C     C_3   0.105231 0.839880 0.651598 -1.049757
H7    H     H_    0.146513 0.893397 0.709490 0.280014
H8    H     H_    0.109802 0.872168 0.587635 0.239827
H9    H     H_    0.979864 0.818229 0.656798 0.239183
Ba1   Ba    Ba6+2 0.833410 0.543320 0.453520 1.584481
C6    C     C_3   0.122313 0.245138 0.283160 0.235607
H10   H     H_    0.115909 0.186134 0.325747 0.106897
H11   H     H_    0.229452 0.288288 0.314759 0.151062
C7    C     C_3   0.138732 0.204349 0.187081 -0.813256
H12   H     H_    0.249627 0.163117 0.188565 0.261593
H13   H     H_    0.150666 0.262777 0.144299 0.235648
C8    C     C_3   0.759053 0.687160 0.726178 0.849449
H14   H     H_    0.855428 0.656922 0.689419 -0.012628
C9    C     C_3   0.839385 0.738908 0.816045 -0.683182
H15   H     H_    0.929888 0.792230 0.802887 0.180373
H16   H     H_    0.904335 0.688706 0.858692 0.143000
P4    P     P_3+3 0.171070 0.583210 0.704020 0.491434
O12   O     O_2   0.348460 0.555790 0.719610 -0.323082
O13   O     O_3   0.076820 0.552690 0.606290 -0.370343
O14   O     O_3   0.591740 0.384320 0.672310 -0.426036
O15   O     O_3   0.181407 0.706276 0.728306 -0.630065
P5    P     P_3+3 0.154312 0.209831 0.629589 0.482088
O16   O     O_3   0.629090 0.386360 0.459240 -0.393905
O17   O     O_3   0.172500 0.335240 0.628910 -0.344212
O18   O     O_2   0.277590 0.167205 0.570896 -0.417988
O19   O     O_3   0.217652 0.168348 0.735633 -0.546620
Ba2   Ba    Ba6+2 0.356410 0.456750 0.546480 1.602618
P6    P     P_3+3 0.553579 0.609836 0.210230 0.436199
C10   C     C_3   0.462911 0.784563 0.202375 0.438729
H17   H     H_    0.387015 0.755654 0.249376 -0.037136
H18   H     H_    0.259998 0.851761 0.130542 0.269915
O20   O     O_3   0.560600 0.613720 0.540760 -0.390470
C11   C     C_3   0.525949 0.317209 0.263343 0.336937
H19   H     H_    0.406287 0.345055 0.242007 0.007147
H20   H     H_    0.598850 0.376309 0.301957 0.106245
C12   C     C_3   0.599805 0.287147 0.178077 0.075752
H21   H     H_    0.623729 0.350308 0.143241 0.090914
H22   H     H_    0.715095 0.252769 0.196975 0.173221
P7    P     P_3+3 0.555956 0.268853 0.430013 0.419013
O21   O     O_2   0.387470 0.270310 0.467210 -0.346461
O22   O     O_3   0.510378 0.238787 0.312420 -0.575299
H23   H     H_    0.011163 0.702674 0.051151 0.153447
C13   C     C_3   0.217039 0.238103 0.809182 0.240490
H24   H     H_    0.271670 0.305472 0.794451 0.117591
C14   C     C_3   0.319040 0.207258 0.894637 -0.745017
H25   H     H_    0.308736 0.259251 0.953581 0.209036
H26   H     H_    0.447576 0.208561 0.887889 0.201210
P8    P     P_3+3 0.637149 0.390005 0.789042 0.467299
C15   C     C_3   0.612477 0.210818 0.736015 0.414357
H27   H     H_    0.694836 0.225255 0.686598 0.098952
O23   O     O_2   0.491574 0.432444 0.829996 -0.394481
O24   O     O_3   0.643616 0.273058 0.815901 -0.567048
H28   H     H_    0.488087 0.218710 0.703607 0.106796
C16   C     C_3   0.632112 0.108700 0.756799 0.010387
H29   H     H_    0.583001 0.061433 0.695368 0.095381
H30   H     H_    0.563118 0.092742 0.811766 0.175718
C17   C     C_R   0.351743 0.552125 0.167213 0.172409
H31   H     H_    0.319214 0.524453 0.301834 0.168639
H32   H     H_    0.487482 0.608520 0.026662 0.202918
C18   C     C_R   0.116539 0.469947 0.206771 0.237210
C19   C     C_R   0.920975 0.489595 0.770217 -0.415791
C20   C     C_R   0.830596 0.455008 0.832067 0.400048
C21   C     C_R   0.895649 0.458929 0.923110 -0.324610
C22   C     C_R   0.054201 0.496512 0.954066 0.053861
C23   C     C_R   0.143566 0.533934 0.889084 -0.056827
C24   C     C_R   0.125477 0.499530 0.047634 0.086004
C25   C     C_R   0.283180 0.542293 0.074583 -0.014590
C26   C     C_R   0.367349 0.576595 0.008991 -0.205576
C27   C     C_R   0.297097 0.575525 0.919569 -0.063329
C28   C     C_R   0.046326 0.461283 0.115488 -0.287098
C29   C     C_R   0.266121 0.517286 0.231524 -0.488930
C30   C     C_R   0.076030 0.528870 0.795422 0.198110
H33   H     H_    0.931033 0.423745 0.099810 0.156252
H34   H     H_    0.867187 0.489722 0.701396 0.153202
H35   H     H_    0.820390 0.430345 0.967436 0.151058
H36   H     H_    0.366193 0.608298 0.874868 0.223430
C31   C     C_R   0.699378 0.937106 0.548186 -0.134713
C32   C     C_R   0.507868 0.800338 0.498185 0.360602
C33   C     C_R   0.356360 0.766952 0.452389 -0.482037
C34   C     C_R   0.244495 0.828802 0.415087 0.187963
C35   C     C_R   0.287019 0.923983 0.417857 -0.235703
C36   C     C_R   0.440919 0.958519 0.458614 0.058800
C37   C     C_R   0.550694 0.897943 0.502409 -0.030810
H37   H     H_    0.322008 0.693060 0.449716 0.167001
C38   C     C_R   0.638738 0.090271 0.495360 -0.004562
C39   C     C_R   0.746184 0.031301 0.543367 0.038962
C40   C     C_R   0.688881 0.184288 0.488496 0.131255
C41   C     C_R   0.847753 0.214553 0.524749 -0.606751
C42   C     C_R   0.951215 0.158882 0.576155 0.291304
C43   C     C_R   0.900013 0.066930 0.585521 -0.215619
C44   C     C_R   0.485937 0.052987 0.454710 -0.066016
H38   H     H_    0.200537 0.970850 0.387167 0.148907
H39   H     H_    0.980652 0.023219 0.624448 0.166399
H40   H     H_    0.781462 0.895054 0.586887 0.164548
H41   H     H_    0.401582 0.095889 0.417305 0.166837
C45   C     C_2   0.534764 0.878011 0.248003 1.045679
O25   O     O_2   0.449013 0.945786 0.255181 -0.680510
O26   O     O_R   0.698486 0.887905 0.281863 -0.668994
H42   H     H_    0.731312 0.954026 0.310643 0.338878
C46   C     C_2   0.996082 0.139921 0.147270 1.252649
O27   O     O_2   0.905142 0.161251 0.082289 -0.584257
O28   O     O_R   0.966483 0.055383 0.182979 -0.746627
H43   H     H_    0.053140 0.041817 0.233637 0.285147
O29   O     O_3   0.652968 0.616842 0.744908 -0.716152
H44   H     H_    0.636047 0.570111 0.691127 0.341315
C47   C     C_2   0.716221 0.786697 0.867019 1.199453
O30   O     O_2   0.708561 0.872424 0.872726 -0.649675
O31   O     O_R   0.609975 0.732577 0.907024 -0.800343
H45   H     H_    0.529747 0.772237 0.937040 0.312635
O32   O     O_3   0.494194 0.223914 0.119840 -0.696187
H46   H     H_    0.552151 0.204178 0.068077 0.352184
C48   C     C_2   0.048287 0.254938 0.828139 1.020943
O33   O     O_2   0.951680 0.282113 0.769157 -0.687760
O34   O     O_R   0.003032 0.241614 0.912665 -0.761242
H47   H     H_    0.887357 0.257040 0.918161 0.375253
C49   C     C_2   0.274248 0.109939 0.916248 1.264615
O35   O     O_2   0.281303 0.041601 0.861320 -0.633896
O36   O     O_R   0.231360 0.097883 0.001144 -0.755905
H48   H     H_    0.215667 0.029169 0.010553 0.329201
O37   O     O_3   0.795551 0.091916 0.781897 -0.684855
H49   H     H_    0.802080 0.023156 0.786014 0.364300
C50   C     C_2   0.916397 0.302866 0.504370 1.209885
O38   O     O_2   0.018720 0.299888 0.454668 -0.559972
O39   O     O_R   0.895652 0.386051 0.556334 -0.694029
H50   H     H_    0.825671 0.373602 0.603512 0.282824
C51   C     C_2   0.906167 0.836453 0.074630 1.262563
O40   O     O_2   0.797867 0.881208 0.103277 -0.536227
O41   O     O_R   0.003075 0.876098 0.018233 -0.828477
H51   H     H_    0.970643 0.942007 0.005735 0.351795
O42   O     O_3   0.371650 0.786374 0.667236 -0.753221
H52   H     H_    0.397310 0.817577 0.729889 0.352842

loop_
_geom_bond_atom_site_label_1
_geom_bond_atom_site_label_2
_geom_bond_distance
_ccdc_geom_bond_type
C31   C37   1.409746 A    
C6    H11   1.098434 S    
C21   C22   1.417177 A    
P7    O22   1.762949 S    
O28   H43   1.012937 S    
C4    O15   1.403086 S    
C3    H23   1.110969 S    
C2    C3    1.543881 S    
P4    O12   1.535600 D    
C22   C24   1.445433 A    
C35   H38   1.084280 S    
C40   C41   1.405337 A    
P8    O24   1.755863 S    
O29   H44   0.988293 S    
C11   H19   1.103649 S    
C10   C45   1.510209 S    
C10   H17   1.111889 S    
C5    H9    1.100192 S    
H32   C26   1.080494 S    
P5    O18   1.543624 D    
O3    P6    1.745477 S    
O1    Ba1   2.845081 S    
C31   H40   1.071628 S    
C9    C47   1.502952 S    
O7    Ba1   2.841227 S    
C8    H14   1.109886 S    
C49   O36   1.395308 S    
O6    P6    1.762726 S    
C2    H3    1.108152 S    
C38   C40   1.413847 A    
O16   P7    1.764667 S    
C6    H10   1.110485 S    
C17   C29   1.398506 A    
C19   C30   1.387856 A    
C16   H30   1.106889 S    
C11   H20   1.096635 S    
P4    C30   1.894616 S    
C36   C37   1.416907 A    
O2    Ba1   2.937448 S    
P1    O1    1.535191 D    
C15   H27   1.108429 S    
C14   H26   1.092551 S    
C34   C35   1.391383 A    
C19   H34   1.069413 S    
C32   C33   1.404480 A    
O17   Ba2   2.776257 S    
C41   C50   1.449021 S    
O31   H45   1.012373 S    
P3    O11   1.759079 S    
C7    C46   1.506482 S    
C4    H6    1.110319 S    
O4    P6    1.547677 D    
C33   H37   1.082009 S    
O19   C13   1.414041 S    
C39   C43   1.412646 A    
C21   H35   1.076670 S    
O3    Ba1   2.824602 S    
P5    C42   1.873062 S    
O12   Ba2   2.845778 S    
C14   C49   1.507024 S    
C3    H5    1.111079 S    
Ba1   O13   2.841313 S    
C23   C27   1.399289 A    
P4    O13   1.583435 S    
C8    O29   1.397097 S    
P8    O23   1.547087 D    
C1    H18   1.109261 S    
C41   C42   1.395219 A    
C45   O26   1.391996 S    
C24   C28   1.430926 A    
C50   O39   1.384347 S    
P5    O17   1.794402 S    
C50   O38   1.208108 D    
C13   H24   1.108920 S    
C49   O35   1.222871 D    
C48   O34   1.401429 S    
C11   O22   1.411690 S    
C25   C26   1.403562 A    
O2    Ba2   2.841977 S    
C20   C21   1.395834 A    
C1    H1    1.109760 S    
C11   C12   1.525071 S    
O16   Ba2   2.930950 S    
C28   H33   1.076676 S    
C5    H7    1.111113 S    
C19   C20   1.392316 A    
P1    O5    1.755712 S    
C12   H21   1.112674 S    
P1    O2    1.583435 S    
C18   C29   1.393044 A    
C47   O31   1.395667 S    
C16   O37   1.399574 S    
P2    O10   1.754189 S    
C47   O30   1.222554 D    
P6    C17   1.863459 S    
P3    O9    1.546278 D    
C15   C16   1.528570 S    
P1    Ba1   3.399531 S    
O11   C2    1.412849 S    
C32   C37   1.423445 A    
C18   C28   1.407955 A    
C3    C51   1.501350 S    
O39   H50   1.003802 S    
C27   H36   1.075235 S    
O42   H52   0.994092 S    
O14   Ba2   2.824013 S    
O5    C6    1.400994 S    
Ba1   O16   2.798834 S    
C44   H41   1.080754 S    
C15   O24   1.411538 S    
C51   O41   1.396659 S    
P1    C18   1.871696 S    
O6    C10   1.417607 S    
O8    Ba1   2.775699 S    
C12   O32   1.398413 S    
C45   O25   1.223444 D    
C46   O28   1.397387 S    
C42   C43   1.396781 A    
Ba1   Ba2   4.579943 S    
P4    O15   1.757076 S    
H31   C29   1.082078 S    
C6    C7    1.527620 S    
C16   H29   1.112115 S    
Ba2   O21   2.841273 S    
Ba2   O20   2.798302 S    
P3    O8    1.731636 S    
O37   H49   0.992061 S    
C1    C10   1.529991 S    
P8    C20   1.848554 S    
P3    C34   1.839820 S    
O32   H46   0.992387 S    
Ba1   O20   2.931916 S    
C5    H8    1.109699 S    
C35   C36   1.402679 A    
P5    O19   1.770650 S    
C36   C44   1.400179 A    
C23   C30   1.436433 A    
C8    C9    1.533662 S    
C13   C48   1.496930 S    
C31   C39   1.402710 A    
C38   C39   1.419119 A    
O10   C8    1.397690 S    
C12   H22   1.107199 S    
C9    H16   1.110054 S    
P2    O7    1.521080 D    
O13   Ba2   2.938435 S    
C24   C25   1.428464 A    
C9    H15   1.110037 S    
C26   C27   1.388654 A    
C7    H13   1.111738 S    
C7    H12   1.109060 S    
O14   P8    1.735510 S    
P2    C32   1.862377 S    
C2    H4    1.107456 S    
C4    C5    1.522632 S    
P7    C40   1.862735 S    
C14   H25   1.112651 S    
C43   H39   1.081532 S    
O34   H47   1.009320 S    
C38   C44   1.406258 A    
P7    O21   1.583884 D    
C17   C25   1.422400 A    
C22   C23   1.440593 A    
P2    Ba1   3.405735 S    
C1    H2    1.099580 S    
C4    O42   1.392952 S    
C33   C34   1.400706 A    
O36   H48   1.012579 S    
C15   H28   1.099484 S    
C51   O40   1.222255 D    
C48   O33   1.214149 D    
O41   H51   1.013593 S    
C13   C14   1.548314 S    
O26   H42   1.014326 S    
P4    Ba2   3.400212 S    
P2    O20   1.566802 S    
C46   O27   1.220438 D    
