data_mof_unit_42670.cif
_audit_creation_date              2012-10-26T19:41:54-0400
_audit_creation_method            fapswitch 2.2
_symmetry_space_group_name_H-M    P1
_symmetry_Int_Tables_number       1
_space_group_crystal_system       triclinic
_cell_length_a                    10.708962
_cell_length_b                    10.867549
_cell_length_c                    9.73028
_cell_angle_alpha                 87.17704
_cell_angle_beta                  89.080824
_cell_angle_gamma                 95.216823
_cell_volume                      1126.11266421

loop_
_atom_site_label
_atom_site_type_symbol
_atom_type_description
_atom_site_fract_x
_atom_site_fract_y
_atom_site_fract_z
_atom_type_partial_charge
Br1   Br    Br    0.225833 0.770783 0.631824 -0.279216
Br2   Br    Br    0.285232 0.323051 0.178423 -0.229371
Br3   Br    Br    0.289588 0.320512 0.844957 -0.331971
Br4   Br    Br    0.124361 0.697457 0.273248 -0.385103
Br5   Br    Br    0.909428 0.403990 0.191786 -0.357580
Br6   Br    Br    0.636210 0.204023 0.830838 -0.339094
Br7   Br    Br    0.427148 0.065608 0.058385 -0.356852
C1    C     C_R   0.513560 0.264450 0.503954 0.600531
C2    C     C_R   0.498996 0.055012 0.630885 -0.091977
C3    C     C_R   0.538569 0.132610 0.514000 0.052596
C4    C     C_R   0.259841 0.493060 0.501186 0.625949
C5    C     C_R   0.579157 0.079415 0.394457 0.251933
C6    C     C_R   0.561096 0.949441 0.384878 0.241510
C7    C     C_R   0.495369 0.875560 0.491259 0.039417
C8    C     C_R   0.701145 0.635150 0.130751 0.279709
C9    C     C_R   0.813280 0.665150 0.057984 -0.133168
C10   C     C_R   0.814855 0.668853 0.917302 0.204192
C11   C     C_R   0.702189 0.640139 0.849990 0.331594
C12   C     C_3   0.959071 0.457912 0.371437 0.116657
C13   C     C_R   0.597785 0.568068 0.920329 0.079604
C14   C     C_R   0.597433 0.567283 0.069327 0.121197
C15   C     C_R   0.411814 0.430587 0.078482 0.312598
C16   C     C_R   0.496777 0.738335 0.496738 0.606222
C17   C     C_R   0.412310 0.430211 0.931554 0.311790
C18   C     C_R   0.738906 0.493254 0.499090 0.596144
C19   C     C_3   0.036972 0.510068 0.624700 0.272055
C20   C     C_3   0.947042 0.398880 0.590133 0.155491
C21   C     C_3   0.874137 0.483629 0.495892 -0.045024
C22   C     C_3   0.965831 0.594612 0.529424 0.225153
C23   C     C_3   0.032179 0.374731 0.468154 0.194755
C24   C     C_3   0.050519 0.570933 0.405583 0.097531
C25   C     C_3   0.122814 0.486429 0.502277 0.029730
C26   C     C_R   0.501371 0.091118 0.769278 0.192036
C27   C     C_R   0.423231 0.022796 0.869474 0.173989
C28   C     C_R   0.342454 0.921664 0.830037 0.284560
C29   C     C_R   0.358387 0.877278 0.699307 0.227587
C30   C     C_R   0.451393 0.933804 0.607302 -0.111471
Cu1   Cu    Cu3+1 0.499990 0.499990 0.640660 1.162344
Cu2   Cu    Cu3+1 0.500010 0.500010 0.359340 1.193265
H1    H     H_    0.895045 0.704367 0.109838 0.158492
H2    H     H_    0.990959 0.205784 0.425340 0.373956
H3    H     H_    0.649069 0.113672 0.206564 0.382269
H4    H     H_    0.964213 0.269874 0.727980 0.376364
H5    H     H_    0.233380 0.914074 0.993465 0.382544
H6    H     H_    0.688010 0.930809 0.247484 0.326697
H7    H     H_    0.770853 0.729026 0.282524 0.300294
H8    H     H_    0.990703 0.735696 0.905704 0.387017
H9    H     H_    0.746846 0.775934 0.713864 0.369233
H10   H     H_    0.009093 0.501400 0.820987 0.377122
H11   H     H_    0.895021 0.745529 0.477413 0.320947
N1    N     N_R   0.501210 0.501210 0.147910 -0.242347
N2    N     N_R   0.501250 0.501290 0.852040 -0.241684
O1    O     O_R   0.499990 0.319640 0.618810 -0.483129
O2    O     O_3   0.249977 0.861746 0.916210 -0.604583
O3    O     O_3   0.601407 0.894676 0.270248 -0.619239
O4    O     O_3   0.689511 0.688192 0.253589 -0.605055
O5    O     O_3   0.919719 0.719434 0.842840 -0.593017
O6    O     O_3   0.691486 0.697543 0.723277 -0.627648
O7    O     O_3   0.078294 0.534795 0.757081 -0.559607
O8    O     O_3   0.931939 0.711015 0.561836 -0.564120
O9    O     O_3   0.069694 0.258842 0.438583 -0.603692
O10   O     O_3   0.638440 0.157514 0.291681 -0.630784
O11   O     O_R   0.500000 0.319660 0.381240 -0.429005
O12   O     O_R   0.316850 0.499960 0.618770 -0.443017
O13   O     O_R   0.316860 0.499980 0.381190 -0.461005
O14   O     O_R   0.500000 0.680340 0.618760 -0.463978
O15   O     O_R   0.500010 0.680360 0.381190 -0.388977
O16   O     O_R   0.683140 0.500020 0.618810 -0.424159
O17   O     O_R   0.683150 0.500040 0.381230 -0.466344
O18   O     O_3   0.892891 0.307943 0.684701 -0.622858

loop_
_geom_bond_atom_site_label_1
_geom_bond_atom_site_label_2
_ccdc_geom_bond_type
C7    C16   S    
C17   N2    A    
Cu2   N1    S    
C4    O13   A    
Br6   C26   S    
H9    O6    S    
Br5   C12   S    
H8    O5    S    
C5    O10   S    
C2    C3    A    
H3    O10   S    
C11   C13   A    
C24   C25   S    
H10   O7    S    
C22   O8    S    
H2    O9    S    
C22   C24   S    
H11   O8    S    
C8    O4    S    
C2    C30   A    
C26   C27   A    
Br3   C17   S    
C1    O1    A    
C12   C24   S    
C13   N2    A    
Br2   C15   S    
C13   C14   A    
C20   C23   S    
C2    C26   A    
C12   C21   S    
Cu1   O1    S    
C10   O5    S    
C19   C20   S    
C9    C10   A    
C18   O16   A    
C3    C5    A    
C9    H1    S    
C16   O14   A    
C21   C22   S    
C20   O18   S    
Cu1   O16   S    
C4    C25   S    
C10   C11   A    
H4    O18   S    
Cu1   O12   S    
Cu2   O11   S    
C14   N1    A    
Br1   C29   S    
Cu2   O17   S    
Cu1   Cu2   S    
Br7   C27   S    
C15   C17   A    
Cu2   O13   S    
Br4   C24   S    
Cu1   N2    S    
C1    O11   A    
C18   C21   S    
C8    C9    A    
C23   C25   S    
H5    O2    S    
C8    C14   A    
C18   O17   A    
C5    C6    A    
H6    O3    S    
C19   C22   S    
C1    C3    S    
C27   C28   A    
C19   O7    S    
C23   O9    S    
C16   O15   A    
C20   C21   S    
C19   C25   S    
C29   C30   A    
C6    O3    S    
C6    C7    A    
C12   C23   S    
C4    O12   A    
C11   O6    S    
Cu1   O14   S    
C7    C30   A    
Cu2   O15   S    
C15   N1    A    
C28   O2    S    
C28   C29   A    
H7    O4    S    
