data_mof_unit_38332.cif
_audit_creation_date              2012-12-11T14:29:27-0500
_audit_creation_method            fapswitch 2.2
_symmetry_space_group_name_H-M    P1
_symmetry_Int_Tables_number       1
_space_group_crystal_system       triclinic
_cell_length_a                    6.937125
_cell_length_b                    14.742587
_cell_length_c                    16.267275
_cell_angle_alpha                 90.498934
_cell_angle_beta                  89.595416
_cell_angle_gamma                 89.952068
_cell_volume                      1663.56800392

loop_
_atom_site_label
_atom_site_type_symbol
_atom_type_description
_atom_site_fract_x
_atom_site_fract_y
_atom_site_fract_z
_atom_type_partial_charge
O1    O     O_R   0.494400 0.416610 0.413880 -0.519584
O2    O     O_R   0.823920 0.406790 0.585520 -0.557913
O3    O     O_R   0.994250 0.583390 0.586120 -0.544823
C1    C     C_R   0.654306 0.387641 0.615100 0.648907
O4    O     O_R   0.824110 0.405730 0.414490 -0.521550
O5    O     O_R   0.994440 0.582310 0.413870 -0.546358
C2    C     C_R   0.656100 0.384575 0.385727 0.770517
O6    O     O_R   0.494210 0.417690 0.586130 -0.515273
O7    O     O_3   0.660810 0.557940 0.500000 -0.390097
V1    V     V_3+5 0.935650 0.489250 0.500000 1.536400
O8    O     O_R   0.324160 0.593210 0.414480 -0.545076
C3    C     C_R   0.155756 0.614926 0.386265 0.747593
O9    O     O_R   0.323970 0.594270 0.585510 -0.546644
C4    C     C_R   0.154647 0.616212 0.613850 0.666139
V2    V     V_3+5 0.435660 0.510750 0.500000 1.529302
O10   O     O_3   0.160630 0.442060 0.500000 -0.344642
H1    H     H_    0.905180 0.903535 0.510016 0.159552
C5    C     C_R   0.272543 0.572664 0.779059 -0.242319
C6    C     C_R   0.329056 0.548841 0.857972 -0.137723
C7    C     C_R   0.316971 0.611731 0.921924 0.688930
C8    C     C_R   0.248547 0.698995 0.907351 -0.245977
C9    C     C_R   0.191606 0.725617 0.827654 -0.026838
C10   C     C_R   0.203559 0.660936 0.762179 0.060936
C11   C     C_R   0.121275 0.814526 0.813075 -0.148079
C12   C     C_R   0.063600 0.838992 0.732277 -0.057100
C13   C     C_R   0.073090 0.773220 0.667204 0.010247
C14   C     C_R   0.143675 0.684494 0.682010 -0.110589
C15   C     C_R   0.999472 0.928234 0.713404 0.606424
C16   C     C_R   0.942050 0.950111 0.634061 -0.115238
C17   C     C_R   0.949066 0.885617 0.571520 -0.212372
C18   C     C_R   0.014897 0.798443 0.587385 -0.156243
H2    H     H_    0.282585 0.520831 0.731744 0.179329
H3    H     H_    0.381481 0.480977 0.869557 0.205330
H4    H     H_    0.239980 0.744990 0.959420 0.122681
H5    H     H_    0.893151 0.018185 0.620816 0.172906
H6    H     H_    0.020797 0.751396 0.536032 0.116243
C19   C     C_2   0.985936 0.709449 0.283170 -0.104792
C20   C     C_2   0.150979 0.682524 0.319306 -0.277084
H7    H     H_    0.849979 0.681359 0.304469 0.140956
H8    H     H_    0.288638 0.709944 0.300072 0.131767
C21   C     C_2   0.973034 0.776808 0.215201 -0.107166
C22   C     C_2   0.125900 0.814512 0.177061 -0.261874
H9    H     H_    0.828899 0.795371 0.195814 0.137064
H10   H     H_    0.271082 0.796551 0.194742 0.136604
C23   C     C_2   0.765861 0.225012 0.791566 0.285180
C24   C     C_2   0.619301 0.166222 0.807449 0.142396
C25   C     C_2   0.780278 0.276825 0.714191 -0.221312
C26   C     C_2   0.637049 0.330628 0.688550 0.469954
H11   H     H_    0.917892 0.276613 0.681910 0.157548
C27   C     C_2   0.771118 0.204897 0.217144 -0.084928
C28   C     C_2   0.608763 0.171553 0.184255 -0.277570
H12   H     H_    0.909968 0.185310 0.191282 0.168215
H13   H     H_    0.470938 0.185177 0.213913 0.182096
C29   C     C_2   0.771317 0.258497 0.294725 0.213417
C30   C     C_2   0.647749 0.328394 0.310249 0.063844
O11   O     O_R   0.770210 0.079270 0.910680 -0.504338
O12   O     O_R   0.440150 0.091160 0.082270 -0.543909
O13   O     O_R   0.269970 0.914530 0.082860 -0.556073
C31   C     C_R   0.607675 0.111127 0.111790 0.740999
O14   O     O_R   0.440480 0.090100 0.911240 -0.507956
O15   O     O_R   0.270310 0.913460 0.910610 -0.541640
C32   C     C_R   0.610058 0.110738 0.882520 0.764114
O16   O     O_R   0.769870 0.080340 0.082930 -0.545722
O17   O     O_3   0.603660 0.938980 0.996790 -0.392574
V3    V     V_3+5 0.328750 0.007610 0.996740 1.581063
O18   O     O_R   0.940600 0.902510 0.911180 -0.527555
C33   C     C_R   0.109915 0.881305 0.882306 0.824195
O19   O     O_R   0.940270 0.903570 0.082200 -0.552445
C34   C     C_R   0.109259 0.881861 0.110358 0.697262
V4    V     V_3+5 0.828770 0.986010 0.996670 1.552476
O20   O     O_3   0.103730 0.054750 0.996710 -0.343255
Br1   Br    Br    0.970202 0.248759 0.868270 -0.400964
Br2   Br    Br    0.427550 0.136699 0.725971 -0.415731
F1    F     F_    0.471688 0.337947 0.733816 -0.649867
Br3   Br    Br    0.962347 0.220991 0.372792 -0.527235
Br4   Br    Br    0.469201 0.372186 0.229038 -0.461932
F2    F     F_    0.370853 0.587945 0.998759 -0.643734
F3    F     F_    0.995151 0.996307 0.770010 -0.676489

loop_
_geom_bond_atom_site_label_1
_geom_bond_atom_site_label_2
_ccdc_geom_bond_type
C21   C22   D    
C6    C7    A    
C2    C30   S    
C1    O6    A    
C25   H11   S    
C23   C24   D    
C12   C15   A    
C13   C14   A    
C16   C17   A    
C7    F2    S    
C24   C32   S    
C15   C16   A    
C18   H6    S    
O5    C3    A    
C17   C18   A    
O12   C31   A    
V2    O10   S    
O14   C32   A    
C5    C6    A    
C11   C33   S    
O8    V2    S    
O19   C34   A    
C27   H12   S    
V4    O20   S    
O1    V2    S    
O17   V4    S    
C4    C14   S    
C15   F3    S    
O7    V1    S    
O18   C33   A    
C13   C18   A    
O9    C4    A    
C23   Br1   S    
C19   C21   S    
H1    C17   S    
C21   H9    S    
C22   H10   S    
C10   C14   A    
C23   C25   S    
C5    C10   A    
C26   F1    S    
C11   C12   A    
C6    H3    S    
O4    C2    A    
C8    H4    S    
C12   C13   A    
V3    O20   S    
C22   C34   S    
C28   H13   S    
O2    C1    A    
C19   C20   D    
O15   C33   A    
O13   V3    S    
C25   C26   D    
O16   V4    S    
C27   C28   D    
C27   C29   S    
O3    C4    A    
C30   Br4   S    
O14   V3    S    
O6    V2    S    
O11   V4    S    
O9    V2    S    
C9    C11   A    
C5    H2    S    
O2    V1    S    
C1    C26   S    
C29   C30   D    
O1    C2    A    
O12   V3    S    
O5    V1    S    
O8    C3    A    
O13   C34   A    
C16   H5    S    
C31   O16   A    
O17   V3    S    
O7    V2    S    
O4    V1    S    
C19   H7    S    
O3    V1    S    
V1    O10   S    
C20   H8    S    
O18   V4    S    
O11   C32   A    
C3    C20   S    
C29   Br3   S    
O15   V3    S    
C28   C31   S    
C7    C8    A    
O19   V4    S    
C9    C10   A    
C8    C9    A    
C24   Br2   S    
