data_mof_unit_24996.cif
_audit_creation_date              2012-10-26T19:21:31-0400
_audit_creation_method            fapswitch 2.2
_symmetry_space_group_name_H-M    P1
_symmetry_Int_Tables_number       1
_space_group_crystal_system       triclinic
_cell_length_a                    9.814731
_cell_length_b                    11.022451
_cell_length_c                    15.728121
_cell_angle_alpha                 94.731799
_cell_angle_beta                  78.845406
_cell_angle_gamma                 111.657069
_cell_volume                      1551.40598296

loop_
_atom_site_label
_atom_site_type_symbol
_atom_type_description
_atom_site_fract_x
_atom_site_fract_y
_atom_site_fract_z
_atom_type_partial_charge
C1    C     C_R   0.557363 0.745996 0.505304 0.565815
C2    C     C_2   0.525185 0.071180 0.480632 -0.117947
C3    C     C_2   0.923265 0.490038 0.492398 0.030633
C4    C     C_2   0.076706 0.509922 0.507622 0.030937
C5    C     C_R   0.409524 0.482021 0.663026 0.560425
C6    C     C_R   0.590670 0.518759 0.337065 0.552671
C7    C     C_R   0.352047 0.460256 0.756566 0.006966
C8    C     C_R   0.648759 0.542636 0.243794 0.007102
C9    C     C_R   0.159172 0.365553 0.879611 -0.060433
C10   C     C_R   0.842048 0.640287 0.121538 -0.060271
C11   C     C_R   0.204215 0.381248 0.790097 0.097217
C12   C     C_R   0.443950 0.254102 0.492432 0.566759
C13   C     C_R   0.796484 0.622965 0.210964 0.096067
C14   C     C_R   0.453382 0.511332 0.813489 -0.105766
C15   C     C_R   0.547902 0.492707 0.186556 -0.107494
C16   C     C_R   0.415299 0.475718 0.900870 0.013944
C17   C     C_R   0.586417 0.530088 0.099554 0.013657
C18   C     C_R   0.262426 0.416680 0.936287 0.017455
C19   C     C_R   0.739264 0.589704 0.064500 0.017258
C20   C     C_R   0.524549 0.504343 0.954556 -0.000396
C21   C     C_R   0.477478 0.502335 0.045836 -0.000523
C22   C     C_R   0.323758 0.475537 0.080071 0.100045
C23   C     C_R   0.678512 0.531717 0.920472 0.099662
C24   C     C_R   0.216270 0.417417 0.026750 0.120237
C25   C     C_R   0.785727 0.589966 0.974027 0.119572
C26   C     C_2   0.591991 0.886543 0.506925 0.076328
C27   C     C_2   0.412807 0.113902 0.484887 0.076428
C28   C     C_2   0.502256 0.932740 0.476818 -0.119347
Cu1   Cu    Cu3+1 0.362980 0.479380 0.485080 1.034995
Cu2   Cu    Cu3+1 0.637020 0.520620 0.514920 1.039243
H1    H     H_    0.437783 0.423967 0.210462 0.164424
H2    H     H_    0.888470 0.615732 0.584679 0.237272
H3    H     H_    0.563360 0.579768 0.789040 0.165714
H4    H     H_    0.043227 0.310902 0.903515 0.184106
H5    H     H_    0.957923 0.695691 0.098005 0.184212
H6    H     H_    0.637175 0.140593 0.481587 0.168902
H7    H     H_    0.407642 0.865941 0.450010 0.178802
H8    H     H_    0.121830 0.578002 0.557922 0.164025
H9    H     H_    0.878102 0.421910 0.442127 0.156467
H10   H     H_    0.111584 0.384360 0.415268 0.232829
I1    I     I_    0.983982 0.343861 0.083431 -0.293278
I2    I     I_    0.018137 0.664609 0.917749 -0.283802
I3    I     I_    0.956537 0.729270 0.289602 -0.214844
I4    I     I_    0.042847 0.275001 0.712534 -0.190454
I5    I     I_    0.253801 0.560702 0.200938 -0.284769
I6    I     I_    0.749645 0.446775 0.799821 -0.270816
I7    I     I_    0.188302 0.986133 0.484003 -0.236724
I8    I     I_    0.779347 0.007959 0.562364 -0.222787
N1    N     N_2   0.842890 0.551600 0.537350 -0.325848
N2    N     N_2   0.157110 0.448400 0.462650 -0.328935
O1    O     O_R   0.426810 0.668300 0.492040 -0.515956
O2    O     O_R   0.573190 0.331700 0.507960 -0.514323
O3    O     O_R   0.658240 0.703130 0.517240 -0.452103
O4    O     O_R   0.341760 0.296870 0.482760 -0.453791
O5    O     O_R   0.319390 0.472820 0.610170 -0.472548
O6    O     O_R   0.680610 0.527180 0.389830 -0.475922
O7    O     O_R   0.550820 0.507640 0.635370 -0.483123
O8    O     O_R   0.449180 0.492360 0.364630 -0.487969

loop_
_geom_bond_atom_site_label_1
_geom_bond_atom_site_label_2
_ccdc_geom_bond_type
C25   I2    S    
C6    C8    S    
C5    C7    S    
C15   H1    S    
C8    C13   A    
C6    O6    A    
C26   I8    S    
C9    C11   A    
C6    O8    A    
C26   C28   D    
C20   C23   A    
C5    O7    A    
C10   C19   A    
C16   C20   A    
C2    C27   D    
C1    O3    A    
C14   H3    S    
C3    N1    D    
C3    H9    S    
C11   I4    S    
C23   I6    S    
C21   C22   A    
C20   C21   A    
C7    C11   A    
C24   I1    S    
C1    O1    A    
Cu1   Cu2   S    
C28   H7    S    
H10   N2    S    
C22   C24   A    
C17   C19   A    
Cu2   N1    S    
C4    H8    S    
C9    H4    S    
C8    C15   A    
C14   C16   A    
Cu1   N2    S    
C23   C25   A    
C1    C26   S    
C19   C25   A    
Cu2   O3    S    
C18   C24   A    
H2    N1    S    
Cu1   O4    S    
C12   C27   S    
C2    H6    S    
C3    C4    S    
C10   H5    S    
Cu2   O7    S    
C9    C18   A    
C13   I3    S    
C22   I5    S    
Cu1   O8    S    
C16   C18   A    
Cu1   O1    S    
C27   I7    S    
C15   C17   A    
Cu2   O2    S    
C2    C28   S    
Cu1   O5    S    
C12   O2    A    
Cu2   O6    S    
C5    O5    A    
C7    C14   A    
C12   O4    A    
C4    N2    D    
C10   C13   A    
C17   C21   A    
