data_mof_unit_48630.cif
_audit_creation_date              2013-03-05T15:53:31-0500
_audit_creation_method            fapswitch 2.2
_symmetry_space_group_name_H-M    P1
_symmetry_Int_Tables_number       1
_space_group_crystal_system       triclinic
_cell_length_a                    30.527887
_cell_length_b                    7.240843
_cell_length_c                    25.884159
_cell_angle_alpha                 90.001931
_cell_angle_beta                  112.200081
_cell_angle_gamma                 90.002895
_cell_volume                      5297.48786074

loop_
_atom_site_label
_atom_site_type_symbol
_atom_site_description
_atom_site_fract_x
_atom_site_fract_y
_atom_site_fract_z
_atom_type_partial_charge
O1    O     O_R   0.295360 0.592990 0.320420 -0.580045
O2    O     O_R   0.704640 0.407010 0.679580 -0.576671
O3    O     O_R   0.204640 0.092990 0.179580 -0.580044
O4    O     O_R   0.795360 0.907010 0.820420 -0.576549
O5    O     O_R   0.294060 0.265620 0.213230 -0.601905
O6    O     O_R   0.705940 0.734380 0.786770 -0.595207
O7    O     O_R   0.205940 0.765620 0.286770 -0.601912
O8    O     O_R   0.794060 0.234380 0.713230 -0.595263
C1    C     C_R   0.304327 0.432384 0.199657 0.955381
C2    C     C_R   0.695554 0.567684 0.800215 0.949214
C3    C     C_R   0.195672 0.932382 0.300342 0.955396
C4    C     C_R   0.804441 0.067686 0.699779 0.949272
O9    O     O_R   0.300850 0.263360 0.322080 -0.584372
O10   O     O_R   0.699150 0.736640 0.677920 -0.585048
O11   O     O_R   0.199150 0.763360 0.177920 -0.584414
O12   O     O_R   0.800850 0.236640 0.822080 -0.585152
O13   O     O_R   0.211480 0.091820 0.289210 -0.590138
O14   O     O_R   0.788520 0.908180 0.710790 -0.593726
O15   O     O_R   0.288520 0.591820 0.210790 -0.590141
O16   O     O_R   0.711480 0.408180 0.789210 -0.593685
C5    C     C_R   0.313398 0.431934 0.343305 0.937630
C6    C     C_R   0.686702 0.568436 0.656632 0.933723
C7    C     C_R   0.186603 0.931918 0.156695 0.937670
C8    C     C_R   0.813296 0.068452 0.843370 0.933630
O17   O     O_3   0.220670 0.426670 0.239090 -0.284556
O18   O     O_3   0.779330 0.573330 0.760910 -0.283690
O19   O     O_3   0.279330 0.926670 0.260910 -0.284557
O20   O     O_3   0.720670 0.073330 0.739090 -0.283683
V1    V     V_3+5 0.255440 0.152290 0.252020 1.147322
V2    V     V_3+5 0.744560 0.847710 0.747980 1.157995
V3    V     V_3+5 0.244560 0.652290 0.247980 1.147309
V4    V     V_3+5 0.755440 0.347710 0.752020 1.157920
C9    C     C_R   0.849918 0.064165 0.900265 -0.179481
C10   C     C_R   0.150017 0.943839 0.099865 -0.185244
C11   C     C_R   0.650083 0.564081 0.599735 -0.179371
C12   C     C_R   0.349984 0.443927 0.400137 -0.185211
C13   C     C_R   0.872030 0.129492 0.998826 0.391839
C14   C     C_R   0.130773 0.994337 0.001068 0.391220
C15   C     C_R   0.628001 0.628906 0.501151 0.391826
C16   C     C_R   0.369220 0.494982 0.498911 0.391229
C17   C     C_R   0.837686 0.115445 0.944878 -0.238474
C18   C     C_R   0.164026 0.963017 0.054874 -0.236334
C19   C     C_R   0.662335 0.614991 0.555108 -0.238616
C20   C     C_R   0.335969 0.463431 0.445116 -0.236228
C21   C     C_R   0.897405 0.028260 0.909426 -0.210019
C22   C     C_R   0.101905 0.956150 0.091152 -0.219433
C23   C     C_R   0.602586 0.528389 0.590577 -0.210332
C24   C     C_R   0.398099 0.456139 0.408855 -0.219390
C25   C     C_R   0.934056 0.057069 0.962668 0.118777
C26   C     C_R   0.067131 0.002195 0.037907 0.123629
C27   C     C_R   0.565948 0.557080 0.537320 0.118507
C28   C     C_R   0.432870 0.502395 0.462085 0.123608
C29   C     C_R   0.920314 0.096552 0.008168 -0.082158
C30   C     C_R   0.082053 0.011049 0.992133 -0.085237
C31   C     C_R   0.579706 0.596205 0.491811 -0.082102
C32   C     C_R   0.417942 0.511599 0.507849 -0.085460
C33   C     C_R   0.983689 0.046597 0.972275 -0.147632
C34   C     C_R   0.018170 0.037744 0.028438 -0.142835
C35   C     C_R   0.516313 0.546866 0.527711 -0.147799
C36   C     C_R   0.481836 0.537819 0.471549 -0.142776
C37   C     C_R   0.002703 0.079059 0.072643 0.534166
C38   C     C_R   0.000503 0.060098 0.928050 0.529019
C39   C     C_R   0.497315 0.578825 0.427334 0.534098
C40   C     C_R   0.499492 0.560789 0.571924 0.528949
C41   C     C_R   0.954841 0.103099 0.062145 -0.267217
C42   C     C_R   0.048313 0.037298 0.938266 -0.276179
C43   C     C_R   0.545182 0.602661 0.437829 -0.267241
C44   C     C_R   0.451678 0.538111 0.561707 -0.275591
H1    H     H_    0.945311 0.128807 0.097716 0.211712
H2    H     H_    0.058555 0.042706 0.902611 0.211227
H3    H     H_    0.554721 0.628139 0.402253 0.211731
H4    H     H_    0.441429 0.543813 0.597354 0.211313
H5    H     H_    0.092854 0.925137 0.126562 0.176345
H6    H     H_    0.904499 0.975919 0.874402 0.174650
H7    H     H_    0.407156 0.424920 0.373460 0.176307
H8    H     H_    0.595467 0.476333 0.625615 0.174779
H9    H     H_    0.201333 0.957392 0.061870 0.155549
H10   H     H_    0.801110 0.147370 0.937510 0.154809
H11   H     H_    0.298661 0.457905 0.438114 0.155523
H12   H     H_    0.698921 0.646728 0.562471 0.154804
C45   C     C_R   0.093557 0.948678 0.482313 0.578418
C46   C     C_R   0.908895 0.053778 0.520955 0.585650
C47   C     C_R   0.406430 0.448631 0.017673 0.578421
C48   C     C_R   0.591081 0.553880 0.979012 0.585574
N1    N     N_R   0.074521 0.969276 0.425480 -0.169421
N2    N     N_R   0.927771 0.030861 0.577645 -0.174343
N3    N     N_R   0.425467 0.469288 0.074505 -0.169423
N4    N     N_R   0.572205 0.530896 0.922323 -0.174345
C49   C     C_R   0.026948 0.998493 0.397801 0.567576
C50   C     C_R   0.974968 0.994838 0.605361 0.592776
C51   C     C_R   0.473039 0.498566 0.102180 0.567568
C52   C     C_R   0.525009 0.494803 0.894612 0.592837
C53   C     C_R   0.996887 0.021286 0.427701 -0.238327
C54   C     C_R   0.005895 0.987130 0.576079 -0.224906
C55   C     C_R   0.503097 0.521367 0.072276 -0.238325
C56   C     C_R   0.494085 0.487089 0.923897 -0.224937
C57   C     C_R   0.016042 0.996473 0.486211 -0.033765
C58   C     C_R   0.986618 0.009034 0.517410 -0.039575
C59   C     C_R   0.483941 0.496495 0.013767 -0.033769
C60   C     C_R   0.513363 0.509061 0.982565 -0.039572
C61   C     C_R   0.064655 0.959729 0.513641 -0.082430
C62   C     C_R   0.937892 0.043727 0.489790 -0.082639
C63   C     C_R   0.435329 0.459684 0.986342 -0.082432
C64   C     C_R   0.562087 0.543824 0.010180 -0.082622
C65   C     C_R   0.948491 0.070230 0.401223 0.565251
C66   C     C_R   0.055383 0.959588 0.603344 0.589986
C67   C     C_R   0.551491 0.570371 0.098748 0.565248
C68   C     C_R   0.444598 0.459473 0.896637 0.590000
C69   C     C_R   0.919332 0.072655 0.431912 -0.258461
C70   C     C_R   0.083665 0.939711 0.571869 -0.260538
C71   C     C_R   0.580648 0.572809 0.068056 -0.258478
C72   C     C_R   0.416318 0.439598 0.928115 -0.260521
O21   O     O_2   0.140460 0.919769 0.508576 -0.529022
O22   O     O_2   0.862210 0.087867 0.494881 -0.523926
O23   O     O_2   0.359528 0.419661 0.991413 -0.529024
O24   O     O_2   0.637764 0.588037 0.005082 -0.523964
O25   O     O_2   0.008931 0.003971 0.341550 -0.514174
O26   O     O_2   0.991577 0.965132 0.660880 -0.499086
O27   O     O_2   0.491058 0.504098 0.158430 -0.514184
O28   O     O_2   0.508400 0.465034 0.839095 -0.498955
H13   H     H_    0.882126 0.103514 0.410160 0.201035
H14   H     H_    0.121041 0.912217 0.593686 0.194971
H15   H     H_    0.617852 0.603716 0.089805 0.201033
H16   H     H_    0.378944 0.412048 0.906302 0.194968
C73   C     C_R   0.894098 0.209520 0.636599 0.400423
C74   C     C_R   0.112291 0.122122 0.366279 0.433587
C75   C     C_R   0.605866 0.709508 0.863347 0.400328
C76   C     C_R   0.387697 0.622141 0.133703 0.433612
C77   C     C_R   0.863767 0.214415 0.666310 -0.308226
C78   C     C_R   0.141367 0.109069 0.335216 -0.308298
C79   C     C_R   0.636199 0.714382 0.833636 -0.307898
C80   C     C_R   0.358623 0.609088 0.164769 -0.308416
H17   H     H_    0.860860 0.340883 0.687098 0.177750
H18   H     H_    0.147068 0.231054 0.314366 0.173444
H19   H     H_    0.639095 0.840814 0.812828 0.177718
H20   H     H_    0.352918 0.731084 0.185613 0.173457
C81   C     C_R   0.837037 0.059046 0.669137 -0.168124
C82   C     C_R   0.163625 0.941989 0.331630 -0.180381
C83   C     C_R   0.662948 0.559044 0.830842 -0.168202
C84   C     C_R   0.336371 0.441995 0.168364 -0.180336
C85   C     C_R   0.841295 0.896180 0.641864 -0.138297
C86   C     C_R   0.156062 0.786174 0.359532 -0.126696
C87   C     C_R   0.658699 0.396213 0.858133 -0.138270
C88   C     C_R   0.343936 0.286169 0.140466 -0.126670
H21   H     H_    0.821298 0.773824 0.643071 0.144395
H22   H     H_    0.172835 0.655594 0.358006 0.149272
H23   H     H_    0.678708 0.273881 0.856948 0.144402
H24   H     H_    0.327167 0.155579 0.141998 0.149261
C89   C     C_R   0.870834 0.889737 0.611792 -0.023608
C90   C     C_R   0.127462 0.797682 0.390746 -0.012092
C91   C     C_R   0.629153 0.389781 0.888197 -0.023519
C92   C     C_R   0.372532 0.297679 0.109248 -0.012135
H25   H     H_    0.873262 0.763205 0.590729 0.169487
H26   H     H_    0.122515 0.676480 0.412331 0.194875
H27   H     H_    0.626732 0.263275 0.909274 0.169425
H28   H     H_    0.377480 0.176470 0.087666 0.194899
C93   C     C_R   0.897287 0.044598 0.608662 0.054982
C94   C     C_R   0.105165 0.963865 0.394344 0.032238
C95   C     C_R   0.602688 0.544620 0.891304 0.055001
C96   C     C_R   0.394826 0.463874 0.105643 0.032241
N5    N     N_R   0.857343 0.186476 0.042974 0.233900
O29   O     O_R   0.818933 0.118120 0.045922 -0.346762
O30   O     O_R   0.876431 0.331230 0.072785 -0.383870
N6    N     N_R   0.147574 0.017589 0.956579 0.231525
O31   O     O_R   0.179964 0.907284 0.953014 -0.353217
O32   O     O_R   0.138012 0.168687 0.927178 -0.383968
N7    N     N_R   0.642710 0.685511 0.456987 0.233905
O33   O     O_R   0.681102 0.616875 0.454070 -0.346741
O34   O     O_R   0.623668 0.830208 0.427128 -0.383802
N8    N     N_R   0.352411 0.518571 0.543382 0.231516
O35   O     O_R   0.320015 0.408382 0.546993 -0.353179
O36   O     O_R   0.361972 0.669838 0.572709 -0.383893
O37   O     O_3   0.033845 0.109450 0.126750 -0.670323
C97   C     C_3   0.047240 0.297465 0.132694 0.152520
H29   H     H_    0.015965 0.387014 0.126559 0.134249
H30   H     H_    0.063302 0.337368 0.102107 0.106900
C98   C     C_3   0.083881 0.328294 0.191537 -0.261836
H31   H     H_    0.068521 0.286768 0.222462 0.245387
H32   H     H_    0.115430 0.240662 0.197992 0.197347
C99   C     C_3   0.099190 0.530160 0.201188 -0.874296
H33   H     H_    0.115689 0.573291 0.171516 0.252830
H34   H     H_    0.125453 0.547378 0.244402 0.276676
H35   H     H_    0.068308 0.620353 0.195665 0.267966
O38   O     O_3   0.971476 0.108636 0.874323 -0.670283
C100  C     C_3   0.967148 0.303129 0.870925 0.167515
H36   H     H_    0.001632 0.366816 0.875439 0.133550
H37   H     H_    0.955596 0.359359 0.903871 0.103036
C101  C     C_3   0.930060 0.355503 0.813978 -0.274990
H38   H     H_    0.941793 0.306269 0.780600 0.237542
H39   H     H_    0.895938 0.286999 0.808262 0.193517
C102  C     C_3   0.922337 0.564119 0.808538 -0.861877
H40   H     H_    0.909757 0.615720 0.840961 0.244297
H41   H     H_    0.895191 0.597205 0.766835 0.272110
H42   H     H_    0.955781 0.635669 0.813036 0.280881
O39   O     O_3   0.466178 0.609151 0.373222 -0.670314
C103  C     C_3   0.452798 0.797176 0.367256 0.152661
H43   H     H_    0.484076 0.886672 0.373349 0.134246
H44   H     H_    0.436764 0.837211 0.397861 0.106841
C104  C     C_3   0.416128 0.827914 0.308426 -0.261986
H45   H     H_    0.431463 0.786312 0.277483 0.245347
H46   H     H_    0.384582 0.740294 0.302009 0.197328
C105  C     C_3   0.400822 0.029774 0.298761 -0.874071
H47   H     H_    0.384354 0.072989 0.328455 0.252761
H48   H     H_    0.374532 0.046922 0.255558 0.276634
H49   H     H_    0.431700 0.119952 0.304237 0.267995
O40   O     O_3   0.528510 0.609519 0.625641 -0.670183
C106  C     C_3   0.533062 0.803960 0.628901 0.166572
H50   H     H_    0.498580 0.868531 0.623971 0.133069
H51   H     H_    0.544975 0.859198 0.596141 0.103647
C107  C     C_3   0.569899 0.856417 0.686006 -0.273150
H52   H     H_    0.557680 0.809013 0.719162 0.237795
H53   H     H_    0.603939 0.786346 0.692268 0.193432
C108  C     C_3   0.578121 0.064800 0.691184 -0.864173
H54   H     H_    0.591405 0.114352 0.659158 0.244779
H55   H     H_    0.604904 0.098029 0.733107 0.272524
H56   H     H_    0.544717 0.138038 0.685868 0.280407
O41   O     O_3   0.928502 0.114280 0.345063 -0.624421
C109  C     C_3   0.939587 0.299759 0.337129 0.312795
H57   H     H_    0.938386 0.311536 0.293817 0.173834
H58   H     H_    0.976099 0.341104 0.365123 0.119948
C110  C     C_3   0.903268 0.434026 0.343883 -0.481969
H59   H     H_    0.867128 0.393322 0.315263 0.252333
H60   H     H_    0.904803 0.429015 0.387412 0.221281
C111  C     C_3   0.913044 0.631915 0.330995 -0.752223
H61   H     H_    0.948940 0.675313 0.359550 0.257093
H62   H     H_    0.886624 0.726221 0.336885 0.274112
H63   H     H_    0.910491 0.643298 0.287156 0.276515
O42   O     O_3   0.076874 0.946203 0.660820 -0.623424
C112  C     C_3   0.087032 0.125533 0.684388 0.287745
H64   H     H_    0.085484 0.118820 0.726550 0.177236
H65   H     H_    0.060471 0.231614 0.660652 0.102228
C113  C     C_3   0.136879 0.186636 0.690725 -0.433321
H66   H     H_    0.162922 0.079634 0.714130 0.242231
H67   H     H_    0.138652 0.203194 0.648915 0.218679
C114  C     C_3   0.150086 0.370321 0.721692 -0.819058
H68   H     H_    0.124848 0.479956 0.698501 0.274752
H69   H     H_    0.186213 0.411248 0.725417 0.269375
H70   H     H_    0.149679 0.357439 0.764274 0.276969
O43   O     O_3   0.571481 0.614463 0.154907 -0.624413
C115  C     C_3   0.560392 0.799937 0.162836 0.312819
H71   H     H_    0.561591 0.811733 0.206147 0.173838
H72   H     H_    0.523880 0.841250 0.134839 0.119936
C116  C     C_3   0.596710 0.934222 0.156082 -0.481976
H73   H     H_    0.632850 0.893547 0.184702 0.252338
H74   H     H_    0.595176 0.929197 0.112552 0.221271
C117  C     C_3   0.586932 0.132109 0.168967 -0.752237
H75   H     H_    0.551035 0.175477 0.140412 0.257079
H76   H     H_    0.613350 0.226429 0.163076 0.274115
H77   H     H_    0.589485 0.143507 0.212806 0.276518
O44   O     O_3   0.423106 0.446008 0.839161 -0.623404
C118  C     C_3   0.412933 0.625303 0.815578 0.287771
H78   H     H_    0.414484 0.618555 0.773417 0.177267
H79   H     H_    0.439485 0.731443 0.839306 0.102227
C119  C     C_3   0.363081 0.686327 0.809234 -0.433357
H80   H     H_    0.337047 0.579262 0.785839 0.242232
H81   H     H_    0.361306 0.702924 0.851041 0.218681
C120  C     C_3   0.349857 0.869960 0.778248 -0.818998
H82   H     H_    0.375086 0.979655 0.801428 0.274746
H83   H     H_    0.313727 0.910831 0.774518 0.269363
H84   H     H_    0.350266 0.857034 0.735668 0.276997
N9    N     N_R   0.921096 0.371879 0.635432 0.227981
O45   O     O_R   0.929323 0.498011 0.673784 -0.408103
O46   O     O_R   0.935462 0.400662 0.594771 -0.426187
N10   N     N_R   0.090871 0.296566 0.369456 0.222730
O47   O     O_R   0.080492 0.413963 0.328499 -0.436777
O48   O     O_R   0.084400 0.344476 0.414509 -0.450922
N11   N     N_R   0.578866 0.871862 0.864502 0.227974
O49   O     O_R   0.570670 0.998023 0.826167 -0.408112
O50   O     O_R   0.564472 0.900626 0.905142 -0.426154
N12   N     N_R   0.409114 0.796593 0.130521 0.222724
O51   O     O_R   0.419501 0.914000 0.171481 -0.436782
O52   O     O_R   0.415578 0.844494 0.085464 -0.450922

loop_
_geom_bond_atom_site_label_1
_geom_bond_atom_site_label_2
_geom_bond_distance
_ccdc_geom_bond_type
O17   V3    1.768272 S    
C59   C63   1.407534 A    
C92   C96   1.402830 A    
O1    C5    1.329556 A    
N3    C51   1.371481 A    
O19   V1    1.768354 S    
C9    C21   1.402014 A    
C86   H22   1.083077 S    
O3    C7    1.329565 A    
O43   C115  1.418763 S    
C10   C18   1.390961 A    
C26   C30   1.422414 A    
C52   C56   1.417655 A    
C110  C111  1.526018 S    
C88   H24   1.083077 S    
C11   C23   1.402015 A    
C111  H61   1.110755 S    
C16   N8    1.436600 S    
N5    O29   1.301262 A    
C100  H36   1.114233 S    
C25   C33   1.441740 A    
C118  H78   1.111129 S    
N7    O34   1.301394 A    
C5    C12   1.475574 S    
C45   C61   1.408212 A    
O37   C97   1.413024 S    
N3    C96   1.447739 S    
C87   H23   1.083015 S    
C6    C11   1.474950 S    
C73   C93   1.418299 A    
C35   C40   1.423949 A    
C110  H59   1.111387 S    
C75   N11   1.442576 S    
C101  C102  1.527142 S    
C50   O26   1.348292 S    
C101  H39   1.111979 S    
N6    O31   1.301240 A    
C3    C82   1.488812 S    
C23   H8    1.077392 S    
C14   C18   1.397606 A    
C112  C113  1.532836 S    
C79   H19   1.082597 S    
C40   C44   1.391334 A    
C66   C70   1.400524 A    
N9    O45   1.301597 A    
O4    C8    1.331651 A    
C1    C84   1.488820 S    
C55   C59   1.413742 A    
C100  H37   1.115626 S    
C43   H3    1.081388 S    
N8    O35   1.301241 A    
C54   C58   1.415036 A    
C116  H73   1.111386 S    
C57   C58   1.419675 A    
O1    V3    1.976844 S    
N12   O52   1.301278 A    
O13   V1    1.973717 S    
O38   C100  1.414113 S    
O2    V4    1.976843 S    
C120  H82   1.111190 S    
N4    C95   1.444012 S    
C111  H62   1.110403 S    
O3    V1    1.976780 S    
C89   H25   1.082899 S    
C97   H29   1.114767 S    
C85   C89   1.397007 A    
C119  H81   1.110291 S    
C28   C36   1.443432 A    
C53   C65   1.418795 A    
C24   C28   1.425496 A    
C28   C32   1.422401 A    
C83   C87   1.405445 A    
C1    O15   1.324301 A    
C60   C64   1.408283 A    
C15   C31   1.420838 A    
C92   H28   1.081168 S    
C66   O42   1.384059 S    
C2    O16   1.325177 A    
N10   O47   1.301217 A    
C16   C32   1.421376 A    
C105  H49   1.110848 S    
O2    C6    1.331632 A    
C106  C107  1.528909 S    
C114  H68   1.111189 S    
C12   C24   1.402086 A    
C10   C22   1.402063 A    
C91   H27   1.082901 S    
C11   C19   1.391632 A    
C16   C20   1.397617 A    
C27   C31   1.420613 A    
C99   H35   1.110839 S    
C80   H20   1.082926 S    
C22   H5    1.076232 S    
C13   C29   1.420839 A    
C7    C10   1.475532 S    
C34   C37   1.424772 A    
O11   C7    1.333884 A    
C56   C68   1.419351 A    
O15   V3    1.973734 S    
C104  H45   1.111179 S    
C48   O24   1.349368 S    
C55   C67   1.418798 A    
C49   C53   1.416026 A    
C114  H69   1.110422 S    
C24   H7    1.076246 S    
C78   H18   1.082927 S    
C67   C71   1.399317 A    
O10   V2    1.989270 S    
C103  C104  1.527539 S    
C76   C80   1.408061 A    
C113  H67   1.110292 S    
O42   C112  1.418219 S    
N5    O30   1.301400 A    
C77   C81   1.407799 A    
C99   H34   1.109878 S    
C45   N1    1.370414 A    
C50   C54   1.417654 A    
O5    V1    1.991486 S    
C108  H55   1.110609 S    
C117  H76   1.110403 S    
O7    V3    1.991505 S    
C105  H47   1.110600 S    
C38   C42   1.391339 A    
C71   H15   1.083412 S    
C106  H50   1.114241 S    
C26   C34   1.443452 A    
C47   O23   1.349302 S    
C33   C38   1.423905 A    
C37   O37   1.381112 S    
C46   O22   1.349365 S    
C103  H44   1.115421 S    
C82   C86   1.404951 A    
N7    O33   1.301255 A    
N9    O46   1.300904 A    
N1    C49   1.371481 A    
O40   C106  1.414129 S    
C100  C101  1.528839 S    
C23   C27   1.424555 A    
C119  C120  1.526323 S    
C98   H32   1.112031 S    
C19   H12   1.084301 S    
C108  H54   1.111064 S    
C40   O40   1.382635 S    
C116  H74   1.110459 S    
C113  C114  1.526324 S    
C102  H40   1.111307 S    
C68   O44   1.384059 S    
C21   H6    1.077371 S    
C120  H83   1.110425 S    
O8    V4    1.991512 S    
O7    C3    1.327760 A    
C102  H41   1.110591 S    
C39   C43   1.392472 A    
O5    C1    1.327764 A    
C112  H64   1.111131 S    
C37   C41   1.392462 A    
C104  C105  1.526122 S    
C45   O21   1.349303 S    
C74   C94   1.416888 A    
C109  H58   1.116545 S    
C59   C60   1.419672 A    
C14   C30   1.421380 A    
C112  H65   1.117410 S    
C21   C25   1.424571 A    
O8    C4    1.327370 A    
C98   C99   1.526106 S    
C57   C61   1.407531 A    
C65   C69   1.399318 A    
C115  H72   1.116543 S    
C46   C62   1.406866 A    
O9    C5    1.333927 A    
N4    C52   1.370255 A    
O11   V3    1.989371 S    
C97   C98   1.527536 S    
C104  H46   1.112033 S    
C105  H48   1.109890 S    
C77   H17   1.082593 S    
N10   O48   1.301278 A    
O6    V2    1.991486 S    
C118  H79   1.117414 S    
C49   O25   1.348647 S    
C98   H31   1.111172 S    
C107  H53   1.111899 S    
C36   C39   1.424757 A    
C73   C77   1.410040 A    
N2    C50   1.370253 A    
O14   V2    1.973722 S    
C74   N10   1.438931 S    
C114  H70   1.110883 S    
C51   O27   1.348647 S    
C12   C20   1.390976 A    
C80   C84   1.407722 A    
N1    C94   1.447734 S    
C4    O14   1.325165 A    
C78   C82   1.407724 A    
C111  H63   1.110719 S    
C53   C57   1.413741 A    
C17   H10   1.084299 S    
C29   C41   1.397284 A    
C99   H33   1.110581 S    
C76   C96   1.416886 A    
C109  C110  1.533522 S    
C13   N5    1.436765 S    
O16   V4    1.973731 S    
C108  H56   1.110868 S    
O9    V1    1.989270 S    
C41   H1    1.081394 S    
C81   C85   1.405457 A    
C117  H75   1.110756 S    
C54   C66   1.419349 A    
C116  C117  1.526015 S    
C87   C91   1.397000 A    
C90   C94   1.402833 A    
C115  H71   1.111035 S    
C4    C81   1.489801 S    
C75   C95   1.418317 A    
C76   N12   1.438925 S    
C20   H11   1.084271 S    
C84   C88   1.404953 A    
C103  H43   1.114764 S    
C118  C119  1.532839 S    
C3    O13   1.324294 A    
C47   N3    1.370416 A    
O6    C2    1.327367 A    
C64   C71   1.402794 A    
C15   C19   1.397570 A    
N11   O49   1.301597 A    
C72   H16   1.083311 S    
O18   V4    1.768273 S    
C85   H21   1.083014 S    
C44   H4    1.081236 S    
O12   V4    1.989373 S    
C107  C108  1.527141 S    
C22   C26   1.425474 A    
C65   O41   1.384547 S    
C8    C9    1.474953 S    
C110  H60   1.110457 S    
C120  H84   1.110882 S    
C9    C17   1.391628 A    
C47   C63   1.408213 A    
O10   C6    1.331574 A    
C119  H80   1.111543 S    
N6    O32   1.301376 A    
C61   C70   1.403021 A    
C102  H42   1.111049 S    
C31   C43   1.397318 A    
C88   C92   1.398237 A    
C58   C62   1.408281 A    
C70   H14   1.083310 S    
C46   N2    1.368876 A    
N11   O50   1.300901 A    
C86   C90   1.398234 A    
C109  H57   1.111036 S    
C42   H2    1.081238 S    
C48   N4    1.368878 A    
C67   O43   1.384548 S    
C48   C64   1.406865 A    
C56   C60   1.415038 A    
O41   C109  1.418766 S    
O20   V2    1.768354 S    
C113  H66   1.111540 S    
C32   C44   1.398555 A    
C97   H30   1.115419 S    
C51   C55   1.416025 A    
C52   O28   1.348293 S    
C39   O39   1.381129 S    
C115  C116  1.533521 S    
C13   C17   1.397548 A    
N2    C93   1.444007 S    
C75   C79   1.410056 A    
O44   C118  1.418215 S    
C25   C29   1.420611 A    
C79   C83   1.407808 A    
C38   O38   1.382602 S    
O39   C103  1.413038 S    
C15   N7    1.436763 S    
C68   C72   1.400524 A    
C35   C36   1.438420 A    
C27   C35   1.441715 A    
C14   N6    1.436603 S    
C18   H9    1.084269 S    
O12   C8    1.331541 A    
C107  H52   1.111485 S    
C2    C83   1.489794 S    
C73   N9    1.442557 S    
C106  H51   1.115493 S    
C74   C78   1.408068 A    
N12   O51   1.301219 A    
C63   C72   1.403022 A    
C62   C69   1.402794 A    
C69   H13   1.083412 S    
N8    O36   1.301379 A    
C33   C34   1.438444 A    
C30   C42   1.398523 A    
C89   C93   1.401935 A    
C101  H38   1.111611 S    
O4    V2    1.976783 S    
C90   H26   1.081172 S    
C91   C95   1.401941 A    
C117  H77   1.110719 S    
