data_mof_unit_39155.cif
_audit_creation_date              2012-12-10T17:41:01-0500
_audit_creation_method            fapswitch 2.2
_symmetry_space_group_name_H-M    P1
_symmetry_Int_Tables_number       1
_space_group_crystal_system       triclinic
_cell_length_a                    15.037663
_cell_length_b                    13.880794
_cell_length_c                    11.695795
_cell_angle_alpha                 89.780867
_cell_angle_beta                  87.606498
_cell_angle_gamma                 90.236977
_cell_volume                      2439.14803082

loop_
_atom_site_label
_atom_site_type_symbol
_atom_type_description
_atom_site_fract_x
_atom_site_fract_y
_atom_site_fract_z
_atom_type_partial_charge
C1    C     C_R   0.329155 0.499681 0.502275 0.788107
C2    C     C_R   0.670845 0.500319 0.497725 0.788106
C3    C     C_R   0.910720 0.455654 0.405158 -0.079759
C4    C     C_R   0.089280 0.544347 0.594842 -0.079758
C5    C     C_R   0.944871 0.599071 0.671663 0.280977
C6    C     C_R   0.055129 0.400930 0.328336 0.280978
C7    C     C_R   0.036768 0.590456 0.681704 0.450551
C8    C     C_R   0.963232 0.409544 0.318296 0.450553
C9    C     C_R   0.430140 0.793763 0.551545 0.519055
C10   C     C_R   0.569860 0.206237 0.448455 0.519055
C11   C     C_R   0.570180 0.794750 0.449295 0.522201
C12   C     C_R   0.429820 0.205250 0.550705 0.522201
C13   C     C_R   0.573713 0.897369 0.453510 -0.063473
C14   C     C_R   0.426287 0.102631 0.546490 -0.063473
C15   C     C_R   0.426493 0.896480 0.547726 -0.068023
C16   C     C_R   0.573507 0.103520 0.452274 -0.068022
C17   C     C_R   0.499823 0.948508 0.499694 -0.170626
C18   C     C_R   0.500177 0.051492 0.500306 -0.170626
C19   C     C_R   0.649505 0.949634 0.411638 0.334880
C20   C     C_R   0.350495 0.050366 0.588362 0.334880
C21   C     C_R   0.352530 0.948141 0.594987 0.334141
C22   C     C_R   0.647470 0.051859 0.405013 0.334141
C23   C     C_R   0.500282 0.500140 0.284175 0.794206
C24   C     C_R   0.499718 0.499860 0.715825 0.794206
C25   C     C_1   0.500248 0.500341 0.162437 -0.159115
C26   C     C_1   0.499752 0.499659 0.837563 -0.159115
C27   C     C_1   0.500111 0.500171 0.059915 0.016109
C28   C     C_1   0.499889 0.499829 0.940085 0.016109
C29   C     C_R   0.816850 0.457361 0.402159 0.432565
C30   C     C_R   0.183150 0.542639 0.597841 0.432564
C31   C     C_R   0.767451 0.501866 0.492256 -0.141404
C32   C     C_R   0.232549 0.498134 0.507744 -0.141404
C33   C     C_R   0.809678 0.548858 0.579663 -0.221925
C34   C     C_R   0.190322 0.451142 0.420337 -0.221924
C35   C     C_R   0.902342 0.551214 0.582422 -0.016917
C36   C     C_R   0.097658 0.448787 0.417577 -0.016917
C37   C     C_R   0.953261 0.501471 0.497053 -0.095958
C38   C     C_R   0.046739 0.498529 0.502946 -0.095958
Cu1   Cu    Cu3+1 0.500000 0.597420 0.500000 0.968114
Cu2   Cu    Cu3+1 0.500000 0.402580 0.500000 0.968114
H1    H     H_    0.768545 0.580242 0.647905 0.165439
H2    H     H_    0.231455 0.419758 0.352095 0.165439
N1    N     N_R   0.500000 0.743810 0.500000 -0.310294
N2    N     N_R   0.500000 0.256190 0.500000 -0.310294
O1    O     O_R   0.370260 0.582280 0.500020 -0.541450
O2    O     O_R   0.629740 0.417720 0.499980 -0.541451
O3    O     O_R   0.629740 0.582280 0.499980 -0.558374
O4    O     O_R   0.370260 0.417720 0.500020 -0.558374
O5    O     O_R   0.500010 0.582270 0.337200 -0.596498
O6    O     O_R   0.499990 0.417730 0.662800 -0.596499
O7    O     O_R   0.499990 0.582270 0.662800 -0.601870
O8    O     O_R   0.500010 0.417730 0.337200 -0.601870
O9    O     O_3   0.775204 0.414850 0.311769 -0.660806
H3    H     H_    0.715672 0.443518 0.303502 0.297478
O10   O     O_3   0.224795 0.585149 0.688231 -0.660806
H4    H     H_    0.284328 0.556482 0.696498 0.297479
O11   O     O_3   0.899052 0.654810 0.751745 -0.707769
H5    H     H_    0.852836 0.691305 0.712303 0.337860
O12   O     O_3   0.100948 0.345192 0.248253 -0.707768
H6    H     H_    0.147164 0.308697 0.287695 0.337859
O13   O     O_3   0.075455 0.634990 0.773040 -0.477204
C39   C     C_3   0.069633 0.571989 0.868327 0.127566
H7    H     H_    0.099994 0.500701 0.847363 0.131385
H8    H     H_    0.999077 0.561093 0.898291 0.149860
C40   C     C_3   0.119790 0.615853 0.965828 -0.701073
H9    H     H_    0.090015 0.686238 0.990529 0.256499
H10   H     H_    0.115998 0.566876 0.041174 0.179519
H11   H     H_    0.190814 0.626927 0.938885 0.268805
O14   O     O_3   0.924545 0.365012 0.226959 -0.477204
C41   C     C_3   0.930366 0.428014 0.131673 0.127565
H12   H     H_    0.000921 0.438908 0.101706 0.149862
H13   H     H_    0.900008 0.499304 0.152640 0.131382
C42   C     C_3   0.880203 0.384155 0.034174 -0.701079
H14   H     H_    0.809180 0.373080 0.061122 0.268810
H15   H     H_    0.883991 0.433136 0.958832 0.179522
H16   H     H_    0.909977 0.313771 0.009466 0.256496
O15   O     O_3   0.361826 0.744880 0.607695 -0.607569
H17   H     H_    0.389075 0.696280 0.656537 0.351190
O16   O     O_3   0.638174 0.255119 0.392305 -0.607570
H18   H     H_    0.610925 0.303720 0.343463 0.351191
O17   O     O_3   0.638180 0.747334 0.391525 -0.642333
H19   H     H_    0.611216 0.696213 0.346215 0.348925
O18   O     O_3   0.361820 0.252666 0.608475 -0.642333
H20   H     H_    0.388784 0.303787 0.653785 0.348925
O19   O     O_3   0.726299 0.900091 0.380661 -0.664525
H21   H     H_    0.778568 0.940945 0.396281 0.338041
O20   O     O_3   0.273701 0.099909 0.619339 -0.664524
H22   H     H_    0.221432 0.059055 0.603719 0.338041
O21   O     O_3   0.282496 0.898143 0.647915 -0.645454
H23   H     H_    0.256075 0.938153 0.710468 0.338946
O22   O     O_3   0.717504 0.101856 0.352085 -0.645454
H24   H     H_    0.743925 0.061847 0.289533 0.338946

loop_
_geom_bond_atom_site_label_1
_geom_bond_atom_site_label_2
_ccdc_geom_bond_type
Cu1   O7    S    
O10   H4    S    
C42   H14   S    
C14   C18   A    
C34   H2    S    
O20   H22   S    
O17   H19   S    
C23   O8    A    
C21   O21   S    
O15   H17   S    
C11   O17   S    
Cu2   O2    S    
C8    O14   S    
C39   H7    S    
Cu2   O8    S    
C35   C37   A    
C24   C26   S    
O19   H21   S    
C23   O5    A    
C20   O20   S    
Cu2   O4    S    
C3    C29   A    
C7    O13   S    
C39   H8    S    
C40   H10   S    
C22   O22   S    
C31   C33   A    
C11   N1    A    
C41   H12   S    
Cu1   O1    S    
C24   O7    A    
O12   H6    S    
C42   H15   S    
O13   C39   S    
C4    C7    A    
C24   O6    A    
C9    N1    A    
C13   C19   A    
C10   N2    A    
C14   C20   A    
C19   C22   A    
C3    C8    A    
O22   H24   S    
C5    C7    A    
C6    C8    A    
O9    H3    S    
C1    C32   S    
C2    O2    A    
C12   O18   S    
C2    C31   S    
C32   C34   A    
C37   C38   A    
O18   H20   S    
C15   C21   A    
C40   H11   S    
C41   C42   S    
C17   C18   A    
C9    O15   S    
Cu1   O5    S    
C4    C38   A    
C42   H16   S    
Cu1   Cu2   S    
Cu1   O3    S    
C15   C17   A    
C16   C22   A    
C39   C40   S    
C6    O12   S    
C12   C14   A    
C19   O19   S    
Cu1   N1    S    
C10   O16   S    
C1    O4    A    
C5    O11   S    
C2    O3    A    
C25   C27   T    
C30   O10   S    
C26   C28   T    
C13   C17   A    
C33   H1    S    
C36   C38   A    
C9    C15   A    
C29   C31   A    
C10   C16   A    
C30   C32   A    
C11   C13   A    
C1    O1    A    
O11   H5    S    
C29   O9    S    
Cu2   O6    S    
C5    C35   A    
C33   C35   A    
C6    C36   A    
C34   C36   A    
C23   C25   S    
O14   C41   S    
O16   H18   S    
Cu2   N2    S    
C20   C21   A    
C3    C37   A    
C16   C18   A    
C40   H9    S    
C27   C28   S    
C12   N2    A    
C41   H13   S    
O21   H23   S    
C4    C30   A    
