data_mof_unit_55434.cif
_audit_creation_date              2012-12-10T17:03:28-0500
_audit_creation_method            fapswitch 2.2
_symmetry_space_group_name_H-M    P1
_symmetry_Int_Tables_number       1
_space_group_crystal_system       triclinic
_cell_length_a                    15.042976
_cell_length_b                    10.96775
_cell_length_c                    9.946582
_cell_angle_alpha                 111.738894
_cell_angle_beta                  97.635964
_cell_angle_gamma                 94.340508
_cell_volume                      1496.86713629

loop_
_atom_site_label
_atom_site_type_symbol
_atom_type_description
_atom_site_fract_x
_atom_site_fract_y
_atom_site_fract_z
_atom_type_partial_charge
C1    C     C_R   0.498649 0.254101 0.438720 0.779654
C2    C     C_R   0.503924 0.746495 0.561564 0.760203
C3    C     C_R   0.019724 0.256643 0.442608 0.232284
C4    C     C_R   0.977561 0.739035 0.550661 0.230930
C5    C     C_2   0.494841 0.111515 0.399785 0.064410
C6    C     C_2   0.512887 0.889650 0.601974 0.070839
C7    C     C_2   0.524398 0.066224 0.503501 0.196064
C8    C     C_2   0.482626 0.938078 0.501406 0.181432
C9    C     C_2   0.521154 0.466933 0.060856 0.365512
C10   C     C_2   0.495381 0.474772 0.911543 0.396051
C11   C     C_R   0.328829 0.492878 0.499178 0.817025
C12   C     C_R   0.671031 0.506676 0.500489 0.799942
C13   C     C_R   0.821849 0.620274 0.498668 0.240237
C14   C     C_R   0.176694 0.373290 0.485477 0.229087
C15   C     C_R   0.767713 0.510221 0.500098 -0.060403
C16   C     C_R   0.231729 0.488438 0.498342 -0.072313
C17   C     C_R   0.804850 0.397904 0.498072 -0.155148
C18   C     C_R   0.195193 0.603213 0.509582 -0.159535
C19   C     C_R   0.895584 0.388056 0.486340 0.006703
C20   C     C_R   0.103717 0.610634 0.516011 0.007533
C21   C     C_R   0.953049 0.501677 0.500033 -0.028482
C22   C     C_R   0.046111 0.495185 0.497659 -0.028157
C23   C     C_R   0.917143 0.621769 0.516233 -0.045022
C24   C     C_R   0.081384 0.373302 0.475515 -0.037492
C25   C     C_R   0.928583 0.265846 0.456343 0.269958
C26   C     C_R   0.069752 0.732427 0.544835 0.261885
Cu1   Cu    Cu3+1 0.515770 0.521810 0.644910 1.119252
Cu2   Cu    Cu3+1 0.484230 0.478190 0.355090 1.110247
H1    H     H_    0.759948 0.315702 0.497081 0.204269
H2    H     H_    0.240733 0.688072 0.518518 0.204257
N1    N     N_2   0.460520 0.445420 0.137370 -0.068159
N2    N     N_2   0.539480 0.554580 0.862630 -0.071621
O1    O     O_R   0.508410 0.332340 0.577400 -0.544176
O2    O     O_R   0.491590 0.667660 0.422600 -0.555768
O3    O     O_R   0.481780 0.295500 0.332650 -0.534773
O4    O     O_R   0.518220 0.704500 0.667350 -0.520879
O5    O     O_R   0.383570 0.518390 0.622380 -0.540451
O6    O     O_R   0.616430 0.481610 0.377620 -0.542411
O7    O     O_R   0.356940 0.481550 0.377630 -0.537894
O8    O     O_R   0.643060 0.518450 0.622370 -0.547333
N3    N     N_2   0.780467 0.712018 0.448005 -0.417286
H3    H     H_    0.814446 0.749746 0.385400 0.314357
C27   C     C_3   0.721723 0.795889 0.533328 -0.480981
H4    H     H_    0.750766 0.901535 0.572478 0.288506
H5    H     H_    0.711048 0.773115 0.630361 0.214422
H6    H     H_    0.656450 0.782776 0.460604 0.213796
N4    N     N_2   0.218937 0.268280 0.506789 -0.423857
H7    H     H_    0.192207 0.223661 0.570046 0.323476
C28   C     C_3   0.266930 0.189116 0.395513 -0.445592
H8    H     H_    0.231185 0.086857 0.338509 0.282615
H9    H     H_    0.333311 0.181411 0.450801 0.215731
H10   H     H_    0.275534 0.231970 0.312152 0.218477
Br1   Br    Br    0.847359 0.106756 0.421575 -0.326585
Br2   Br    Br    0.149580 0.893696 0.583825 -0.320918
Br3   Br    Br    0.049668 0.079608 0.350122 -0.336580
Br4   Br    Br    0.941606 0.912949 0.637371 -0.325349
Br5   Br    Br    0.364548 0.854838 0.383411 -0.373837
Br6   Br    Br    0.638851 0.157738 0.629520 -0.382382
Br7   Br    Br    0.554474 0.999618 0.807386 -0.261817
Br8   Br    Br    0.457312 0.997481 0.194827 -0.292563
Br9   Br    Br    0.401503 0.334042 0.783279 -0.368128
Br10  Br    Br    0.641464 0.422703 0.088699 -0.316786
Br11  Br    Br    0.625257 0.697639 0.993314 -0.246318
Br12  Br    Br    0.346547 0.500122 0.096565 -0.250159

loop_
_geom_bond_atom_site_label_1
_geom_bond_atom_site_label_2
_ccdc_geom_bond_type
C12   O8    A    
C4    C26   A    
C27   H4    S    
C15   C17   A    
C14   N4    S    
C18   H2    S    
Cu1   O4    S    
C17   H1    S    
N3    H3    S    
C8    Br5   S    
C7    Br6   S    
N4    H7    S    
Cu2   O7    S    
C12   C15   S    
Cu2   O6    S    
Cu1   O8    S    
C28   H10   S    
C2    O2    A    
C13   N3    S    
C1    O1    A    
C7    C8    S    
N4    C28   S    
C21   C22   A    
Cu1   O1    S    
C11   O7    A    
C27   H5    S    
N3    C27   S    
C1    O3    A    
C3    C24   A    
C2    C6    S    
C20   C26   A    
C14   C24   A    
Cu1   O5    S    
C1    C5    S    
C26   Br2   S    
C22   C24   A    
C16   C18   A    
C17   C19   A    
C25   Br1   S    
Cu2   O3    S    
C18   C20   A    
C13   C15   A    
C21   C23   A    
C12   O6    A    
C19   C25   A    
C27   H6    S    
C14   C16   A    
C10   Br9   S    
C6    Br7   S    
C9    N1    D    
Cu2   O2    S    
C9    Br10  S    
C10   N2    D    
C3    C25   A    
C13   C23   A    
C5    C7    D    
C28   H8    S    
C9    C10   S    
C2    O4    A    
Cu1   Cu2   S    
C11   O5    A    
C4    C23   A    
C6    C8    D    
C5    Br8   S    
C19   C21   A    
Cu1   N2    S    
C11   C16   S    
C3    Br3   S    
N1    Br12  S    
Cu2   N1    S    
C4    Br4   S    
N2    Br11  S    
C20   C22   A    
C28   H9    S    
