data_mof_unit_60335.cif
_audit_creation_date              2013-03-05T16:45:09-0500
_audit_creation_method            fapswitch 2.2
_symmetry_space_group_name_H-M    P1
_symmetry_Int_Tables_number       1
_space_group_crystal_system       triclinic
_cell_length_a                    14.341666
_cell_length_b                    15.861007
_cell_length_c                    17.115925
_cell_angle_alpha                 95.799733
_cell_angle_beta                  91.195019
_cell_angle_gamma                 91.291453
_cell_volume                      3871.45419099

loop_
_atom_site_label
_atom_site_type_symbol
_atom_site_description
_atom_site_fract_x
_atom_site_fract_y
_atom_site_fract_z
_atom_type_partial_charge
O1    O     O_R   0.496120 0.420530 0.382500 -0.593510
O2    O     O_R   0.503880 0.579470 0.617500 -0.593510
O3    O     O_R   0.503120 0.563720 0.388950 -0.544280
O4    O     O_R   0.496880 0.436280 0.611050 -0.544280
C1    C     C_R   0.499529 0.489891 0.348664 0.810754
C2    C     C_R   0.500471 0.510108 0.651336 0.810754
O5    O     O_R   0.372550 0.428390 0.496770 -0.578130
O6    O     O_R   0.627450 0.571610 0.503230 -0.578130
O7    O     O_R   0.379550 0.571580 0.503220 -0.518796
O8    O     O_R   0.620450 0.428420 0.496780 -0.518795
C3    C     C_R   0.331017 0.500687 0.499890 0.820380
C4    C     C_R   0.668983 0.499312 0.500110 0.820379
Cu1   Cu    Cu3+1 0.495850 0.415220 0.496180 1.008132
Cu2   Cu    Cu3+1 0.504150 0.584780 0.503820 1.008132
C5    C     C_1   0.228761 0.501873 0.499947 -0.121800
C6    C     C_1   0.771239 0.498127 0.500053 -0.121799
C7    C     C_1   0.143357 0.501631 0.499968 0.044100
C8    C     C_1   0.856643 0.498369 0.500032 0.044100
C9    C     C_1   0.042711 0.500552 0.499990 0.049979
C10   C     C_1   0.957289 0.499448 0.500010 0.049979
C11   C     C_R   0.499173 0.484638 0.262703 -0.039645
C12   C     C_R   0.500827 0.515361 0.737297 -0.039645
C13   C     C_R   0.518256 0.557268 0.224877 -0.165271
C14   C     C_R   0.481744 0.442732 0.775123 -0.165271
C15   C     C_R   0.516791 0.552677 0.143336 -0.137277
C16   C     C_R   0.483209 0.447323 0.856664 -0.137277
C17   C     C_R   0.496207 0.474789 0.098126 0.375655
C18   C     C_R   0.503793 0.525210 0.901874 0.375655
C19   C     C_R   0.478125 0.402401 0.136066 -0.166472
C20   C     C_R   0.521875 0.597599 0.863934 -0.166471
C21   C     C_R   0.479565 0.407018 0.217734 -0.198891
C22   C     C_R   0.520434 0.592982 0.782265 -0.198892
N1    N     N_2   0.492936 0.466226 0.014878 -0.247612
N2    N     N_2   0.507064 0.533774 0.985122 -0.247612
H1    H     H_    0.465206 0.382350 0.741802 0.195049
H2    H     H_    0.534795 0.617650 0.258198 0.195050
H3    H     H_    0.468217 0.389965 0.883884 0.169145
H4    H     H_    0.531784 0.610034 0.116116 0.169145
H5    H     H_    0.462441 0.342211 0.102060 0.160364
H6    H     H_    0.537558 0.657789 0.897940 0.160364
H7    H     H_    0.464611 0.350000 0.245559 0.176328
H8    H     H_    0.535388 0.650000 0.754441 0.176328
N3    N     N_R   0.510380 0.712130 0.509560 -0.259529
N4    N     N_R   0.489620 0.287870 0.490440 -0.259528
C23   C     C_R   0.446037 0.753323 0.467584 0.396392
C24   C     C_R   0.553963 0.246677 0.532415 0.396392
C25   C     C_R   0.443519 0.842815 0.474307 0.176728
C26   C     C_R   0.556481 0.157185 0.525693 0.176727
C27   C     C_R   0.511105 0.891476 0.521858 0.146354
C28   C     C_R   0.488894 0.108523 0.478142 0.146353
C29   C     C_R   0.575761 0.847406 0.565556 -0.189298
C30   C     C_R   0.424238 0.152594 0.434444 -0.189298
C31   C     C_R   0.573769 0.757647 0.557923 -0.011319
C32   C     C_R   0.426231 0.242353 0.442077 -0.011319
N5    N     N_2   0.513745 0.983029 0.529619 -0.155005
N6    N     N_2   0.486254 0.016971 0.470381 -0.155005
H9    H     H_    0.622279 0.723723 0.591713 0.196740
H10   H     H_    0.377720 0.276278 0.408288 0.196740
N7    N     N_R   0.623684 0.294052 0.580305 0.171718
O9    O     O_R   0.608465 0.313047 0.654547 -0.332158
O10   O     O_R   0.709268 0.294908 0.556541 -0.308180
N8    N     N_R   0.376317 0.705948 0.419695 0.171717
O11   O     O_R   0.391536 0.686953 0.345453 -0.332158
O12   O     O_R   0.290733 0.705091 0.443458 -0.308180
N9    N     N_R   0.632399 0.117115 0.562052 0.148975
O13   O     O_R   0.688745 0.070130 0.518957 -0.313412
O14   O     O_R   0.650302 0.133284 0.636968 -0.293290
N10   N     N_R   0.367601 0.882885 0.437947 0.148975
O15   O     O_R   0.311254 0.929868 0.481043 -0.313412
O16   O     O_R   0.349699 0.866716 0.363031 -0.293291
C33   C     C_2   0.644853 0.894426 0.620178 0.488359
H11   H     H_    0.643468 0.962807 0.630757 0.162987
O17   O     O_2   0.704161 0.857206 0.654622 -0.524264
C34   C     C_2   0.355146 0.105574 0.379823 0.488358
H12   H     H_    0.356530 0.037193 0.369244 0.162988
O18   O     O_2   0.295837 0.142794 0.345379 -0.524264

loop_
_geom_bond_atom_site_label_1
_geom_bond_atom_site_label_2
_geom_bond_distance
_ccdc_geom_bond_type
N5    N6    1.255592 D    
C24   N7    1.429611 S    
C17   C19   1.396964 A    
C9    C10   1.224842 T    
C25   C27   1.415637 A    
C17   N1    1.417283 S    
O5    C3    1.300902 A    
C11   C21   1.403935 A    
C12   C22   1.403937 A    
O1    C1    1.294460 A    
C14   C16   1.389879 A    
C30   C34   1.482979 S    
C2    C12   1.465123 S    
C23   N8    1.429610 S    
O4    Cu1   1.960410 S    
N8    O12   1.301289 A    
C3    C5    1.467079 S    
N3    C31   1.360566 A    
C4    C6    1.467079 S    
N4    C24   1.374402 A    
N10   O15   1.301299 A    
C27   C29   1.419088 A    
C28   C30   1.419088 A    
C26   N9    1.435118 S    
C26   C28   1.415638 A    
C18   N2    1.417283 S    
N7    O9    1.300115 A    
Cu1   Cu2   2.679169 S    
O2    C2    1.294459 A    
C29   C33   1.482980 S    
C30   C32   1.416023 A    
C23   C25   1.413793 A    
C24   C26   1.413792 A    
N7    O10   1.301288 A    
C14   H1    1.082809 S    
C34   H12   1.082099 S    
O4    C2    1.296899 A    
C33   O17   1.221325 D    
C31   H9    1.082140 S    
N9    O14   1.301043 A    
C27   N5    1.444319 S    
C28   N6    1.444319 S    
C29   C31   1.416023 A    
O7    Cu2   1.794197 S    
N8    O11   1.300115 A    
C15   H4    1.082564 S    
N3    C23   1.374401 A    
O6    C4    1.300903 A    
C19   H5    1.083204 S    
N1    N2    1.246241 D    
C20   H6    1.083204 S    
O7    C3    1.304675 A    
O3    Cu2   1.960410 S    
O8    C4    1.304677 A    
C6    C8    1.224767 T    
C13   H2    1.082809 S    
C11   C13   1.401793 A    
C12   C14   1.401791 A    
O1    Cu1   1.956127 S    
C34   O18   1.221326 D    
C25   N10   1.435117 S    
C32   H10   1.082140 S    
C5    C7    1.224767 T    
O6    Cu2   1.785411 S    
C21   H7    1.083170 S    
O3    C1    1.296900 A    
O8    Cu1   1.794197 S    
C16   H3    1.082565 S    
C15   C17   1.411704 A    
C16   C18   1.411705 A    
C18   C20   1.396963 A    
C33   H11   1.082101 S    
C19   C21   1.392030 A    
C20   C22   1.392030 A    
C7    C9    1.443147 S    
C8    C10   1.443147 S    
C13   C15   1.389879 A    
O2    Cu2   1.956124 S    
N4    C32   1.360567 A    
O5    Cu1   1.785408 S    
C1    C11   1.465123 S    
N10   O16   1.301043 A    
N9    O13   1.301297 A    
C22   H8    1.083169 S    
Cu1   N4    2.012218 S    
Cu2   N3    2.012218 S    
