data_mof_unit_64963.cif
_audit_creation_date              2012-12-10T20:59:29-0500
_audit_creation_method            fapswitch 2.2
_symmetry_space_group_name_H-M    P1
_symmetry_Int_Tables_number       1
_space_group_crystal_system       triclinic
_cell_length_a                    22.229185
_cell_length_b                    22.246972
_cell_length_c                    22.233135
_cell_angle_alpha                 110.023349
_cell_angle_beta                  108.442748
_cell_angle_gamma                 109.989881
_cell_volume                      8457.96118751

loop_
_atom_site_label
_atom_site_type_symbol
_atom_type_description
_atom_site_fract_x
_atom_site_fract_y
_atom_site_fract_z
_atom_type_partial_charge
C1    C     C_R   0.900417 0.500032 0.599582 0.823165
C2    C     C_1   0.139326 0.778597 0.639297 -0.145379
C3    C     C_3   0.284752 0.576434 0.327818 -0.390180
C4    C     C_R   0.099653 0.499941 0.400440 0.822253
C5    C     C_3   0.166231 0.482522 0.209244 -0.393970
C6    C     C_3   0.209202 0.482532 0.166257 -0.393980
C7    C     C_1   0.360942 0.499760 0.139550 -0.150397
C8    C     C_3   0.214339 0.499724 0.287457 0.361525
C9    C     C_3   0.327778 0.576440 0.284777 -0.390241
C10   C     C_3   0.287431 0.499736 0.214335 0.361600
C11   C     C_3   0.280323 0.440269 0.237248 -0.392233
C12   C     C_1   0.360657 0.221405 0.860721 -0.142777
C13   C     C_3   0.237293 0.440264 0.280300 -0.392179
C14   C     C_1   0.327932 0.499715 0.173297 -0.147509
C15   C     C_1   0.173316 0.499692 0.327973 -0.147433
C16   C     C_R   0.140302 0.499184 0.639405 0.791617
C17   C     C_1   0.139572 0.499727 0.360988 -0.150453
C18   C     C_R   0.990242 0.528071 0.252381 -0.122253
C19   C     C_R   0.935936 0.536625 0.266768 -0.130638
C20   C     C_R   0.861768 0.480301 0.220511 0.139859
C21   C     C_R   0.842778 0.416098 0.158985 -0.142717
C22   C     C_R   0.897271 0.407832 0.144786 -0.138984
C23   C     C_3   0.213469 0.926905 0.713454 0.353912
C24   C     C_R   0.970925 0.463657 0.191543 -0.096400
C25   C     C_R   0.747504 0.485922 0.182860 -0.253779
C26   C     C_R   0.694018 0.497782 0.196363 -0.048966
C27   C     C_R   0.695359 0.510762 0.263734 -0.000663
C28   C     C_R   0.860477 0.500725 0.359679 0.791629
C29   C     C_R   0.752029 0.513697 0.317080 -0.253355
C30   C     C_R   0.805605 0.501916 0.303596 -0.049244
C31   C     C_R   0.803975 0.488563 0.236053 -0.001480
C32   C     C_R   0.654561 0.581210 0.340120 -0.143270
C33   C     C_R   0.599164 0.588320 0.353310 -0.139575
C34   C     C_3   0.206570 0.042906 0.729006 -0.390341
C35   C     C_R   0.525757 0.532082 0.305517 -0.095589
C36   C     C_R   0.507641 0.468379 0.244701 -0.122989
C37   C     C_R   0.562831 0.460995 0.231318 -0.131500
C38   C     C_R   0.636749 0.517775 0.278556 0.139742
C39   C     C_3   0.789030 0.574245 0.746327 -0.394263
C40   C     C_R   0.900444 0.300793 0.400374 0.820722
C41   C     C_3   0.818157 0.484236 0.774971 -0.393634
C42   C     C_3   0.775532 0.484660 0.818326 -0.388061
C43   C     C_1   0.638905 0.499623 0.860426 -0.137924
C44   C     C_3   0.785510 0.498762 0.712277 0.332433
C45   C     C_3   0.286519 0.073097 0.786558 0.352361
C46   C     C_3   0.745881 0.573809 0.789164 -0.425647
C47   C     C_3   0.711815 0.497861 0.784919 0.301417
C48   C     C_3   0.659648 0.436660 0.702086 -0.117779
C49   C     C_3   0.703831 0.436882 0.659836 -0.423635
C50   C     C_1   0.671792 0.499010 0.826575 -0.118792
C51   C     C_1   0.826792 0.499439 0.672049 -0.119458
C52   C     C_R   0.099587 0.699203 0.599599 0.820486
C53   C     C_1   0.860487 0.499809 0.639001 -0.147214
C54   C     C_3   0.816019 0.043135 0.335494 -0.391151
C55   C     C_3   0.794772 0.042892 0.217350 -0.391468
C56   C     C_3   0.283921 0.043086 0.839720 -0.393584
C57   C     C_3   0.751742 0.956878 0.174391 -0.390900
C58   C     C_1   0.639242 0.778599 0.139382 -0.145383
C59   C     C_3   0.786557 0.073095 0.286511 0.354115
C60   C     C_3   0.772989 0.957121 0.292536 -0.390421
C61   C     C_3   0.713424 0.926905 0.213499 0.354485
C62   C     C_3   0.660695 0.956980 0.218651 -0.393040
C63   C     C_3   0.703724 0.042995 0.261608 -0.391103
C64   C     C_3   0.163590 0.956891 0.685993 -0.391246
C65   C     C_1   0.672634 0.845364 0.172766 -0.132122
C66   C     C_1   0.827347 0.154636 0.327244 -0.131722
C67   C     C_3   0.240942 0.957071 0.796708 -0.391407
C68   C     C_1   0.860740 0.221401 0.360627 -0.144911
C69   C     C_R   0.244764 0.468353 0.507704 -0.122764
C70   C     C_R   0.231369 0.460964 0.562875 -0.130999
C71   C     C_R   0.278563 0.517763 0.636801 0.139728
C72   C     C_R   0.340093 0.581224 0.654642 -0.143171
C73   C     C_R   0.353293 0.588340 0.599264 -0.139382
C74   C     C_R   0.305544 0.532081 0.525849 -0.095514
C75   C     C_R   0.317071 0.513677 0.752053 -0.252594
C76   C     C_3   0.280980 0.957019 0.702799 -0.391692
C77   C     C_R   0.303581 0.501912 0.805619 -0.049477
C78   C     C_1   0.327270 0.154639 0.827334 -0.130310
C79   C     C_R   0.236037 0.488587 0.803986 -0.001390
C80   C     C_R   0.182844 0.485945 0.747515 -0.253901
C81   C     C_R   0.196351 0.497786 0.694037 -0.049134
C82   C     C_R   0.263727 0.510750 0.695390 -0.000795
C83   C     C_R   0.158958 0.416208 0.842797 -0.143132
C84   C     C_R   0.144765 0.407987 0.897298 -0.139538
C85   C     C_R   0.191550 0.463821 0.970958 -0.096216
C86   C     C_R   0.252407 0.528196 0.990275 -0.122237
C87   C     C_R   0.266785 0.536705 0.935961 -0.130816
C88   C     C_3   0.323961 0.043034 0.745811 -0.387717
C89   C     C_1   0.172716 0.845362 0.672680 -0.131827
C90   C     C_R   0.220503 0.480371 0.861787 0.140080
C91   C     C_R   0.639388 0.499182 0.140315 0.791041
C92   C     C_R   0.359666 0.500721 0.860488 0.792277
C93   C     C_R   0.400404 0.499985 0.099640 0.822068
C94   C     C_R   0.599599 0.499987 0.900460 0.824105
C95   C     C_R   0.599540 0.699207 0.099636 0.820290
C96   C     C_R   0.400394 0.300798 0.900423 0.821600
C97   C     C_1   0.620857 0.362284 0.692159 0.149489
H1    H     H_    0.206788 0.063439 0.689875 0.165682
H2    H     H_    0.178836 0.427480 0.115340 0.160430
H3    H     H_    0.272216 0.451494 0.335832 0.157775
H4    H     H_    0.143233 0.936247 0.626270 0.164667
H5    H     H_    0.187695 0.384454 0.251289 0.163893
H6    H     H_    0.335868 0.451497 0.272146 0.157728
H7    H     H_    0.320525 0.590083 0.384193 0.159690
H8    H     H_    0.384163 0.590090 0.320530 0.159663
H9    H     H_    0.251320 0.384461 0.187627 0.163853
H10   H     H_    0.012957 0.457025 0.180526 0.112836
H11   H     H_    0.047315 0.571311 0.288453 0.113049
H12   H     H_    0.114677 0.936280 0.693238 0.166728
H13   H     H_    0.951619 0.586894 0.314018 0.097895
H14   H     H_    0.785949 0.372188 0.122581 0.127187
H15   H     H_    0.882409 0.358044 0.097601 0.124333
H16   H     H_    0.317954 0.936505 0.722342 0.167464
H17   H     H_    0.746762 0.477159 0.131473 0.159117
H18   H     H_    0.752740 0.522386 0.368437 0.158301
H19   H     H_    0.711152 0.625468 0.377285 0.126146
H20   H     H_    0.613137 0.637563 0.400494 0.123192
H21   H     H_    0.482935 0.537808 0.315642 0.112235
H22   H     H_    0.450791 0.424793 0.207822 0.113142
H23   H     H_    0.178235 0.063473 0.756844 0.166661
H24   H     H_    0.548002 0.411269 0.184019 0.098083
H25   H     H_    0.783531 0.619005 0.847531 0.175210
H26   H     H_    0.847260 0.619672 0.784181 0.169448
H27   H     H_    0.815336 0.429743 0.751766 0.171471
H28   H     H_    0.262792 0.936376 0.643386 0.164851
H29   H     H_    0.877135 0.527493 0.813088 0.166637
H30   H     H_    0.813911 0.529096 0.876878 0.166099
H31   H     H_    0.753803 0.431135 0.817491 0.177968
H32   H     H_    0.679284 0.446181 0.614227 0.155153
H33   H     H_    0.700662 0.382403 0.634113 0.172101
H34   H     H_    0.340732 0.063752 0.881590 0.165123
H35   H     H_    0.616672 0.449184 0.677883 0.120494
H36   H     H_    0.765464 0.585793 0.702286 0.168577
H37   H     H_    0.701852 0.585477 0.765828 0.167715
H38   H     H_    0.811848 0.936541 0.290478 0.164639
H39   H     H_    0.326350 0.063568 0.706989 0.167231
H40   H     H_    0.875478 0.063733 0.354002 0.164305
H41   H     H_    0.773757 0.063387 0.180985 0.166962
H42   H     H_    0.853838 0.063487 0.233674 0.163888
H43   H     H_    0.790210 0.936295 0.170149 0.164236
H44   H     H_    0.710128 0.936195 0.117459 0.166736
H45   H     H_    0.333514 0.620301 0.269947 0.163618
H46   H     H_    0.696178 0.063669 0.310314 0.165529
H47   H     H_    0.681025 0.063489 0.226058 0.165218
H48   H     H_    0.632552 0.936477 0.246793 0.164833
H49   H     H_    0.810551 0.063812 0.385567 0.167309
H50   H     H_    0.746919 0.936619 0.322042 0.167018
H51   H     H_    0.381512 0.063698 0.785945 0.168115
H52   H     H_    0.617397 0.936298 0.162537 0.164793
H53   H     H_    0.315677 0.537812 0.483042 0.112256
H54   H     H_    0.207920 0.424751 0.450848 0.113222
H55   H     H_    0.184097 0.411222 0.548026 0.098280
H56   H     H_    0.269892 0.620290 0.333588 0.163681
H57   H     H_    0.377221 0.625497 0.711241 0.126087
H58   H     H_    0.400449 0.637604 0.613260 0.123242
H59   H     H_    0.368432 0.522353 0.752771 0.158587
H60   H     H_    0.131455 0.477201 0.746769 0.158736
H61   H     H_    0.122532 0.372292 0.785963 0.126767
H62   H     H_    0.097565 0.358231 0.882435 0.123940
H63   H     H_    0.193461 0.936464 0.806002 0.164493
H64   H     H_    0.180540 0.457224 0.012997 0.112789
H65   H     H_    0.288500 0.571442 0.047353 0.112963
H66   H     H_    0.314048 0.586946 0.951645 0.097780
H67   H     H_    0.115340 0.427463 0.178867 0.160443
H68   H     H_    0.277178 0.936560 0.817987 0.165252
H69   H     H_    0.257015 0.063655 0.869603 0.164266
H70   H     H_    0.149203 0.524660 0.212800 0.158344
H71   H     H_    0.212724 0.524679 0.149265 0.158321
N1    N     N_1   0.590490 0.304061 0.684425 -0.215818
O1    O     O_3   0.000000 0.500000 0.500000 -0.478896
O2    O     O_R   0.573110 0.542970 0.909170 -0.641039
O3    O     O_R   0.590800 0.663980 0.133850 -0.638033
O4    O     O_R   0.909130 0.543010 0.573110 -0.639540
O5    O     O_R   0.469890 0.336020 0.926900 -0.637266
O6    O     O_R   0.573080 0.663970 0.030140 -0.639750
O7    O     O_R   0.366170 0.336040 0.909160 -0.638572
O8    O     O_R   0.366140 0.457030 0.030130 -0.631170
O9    O     O_R   0.590860 0.456990 0.926900 -0.635405
O10   O     O_R   0.615780 0.542990 0.158810 -0.629023
O11   O     O_R   0.427160 0.542990 0.884210 -0.647759
O12   O     O_R   0.158790 0.542980 0.615810 -0.628933
O13   O     O_R   0.133840 0.542970 0.469880 -0.630674
O14   O     O_R   0.072820 0.457010 0.615810 -0.648056
O15   O     O_R   0.884200 0.457010 0.341200 -0.628827
O16   O     O_R   0.926910 0.336030 0.469870 -0.639128
O17   O     O_R   0.030090 0.663980 0.573120 -0.639599
O18   O     O_R   0.909180 0.336020 0.366160 -0.638079
O19   O     O_R   0.133810 0.663960 0.590860 -0.637919
O20   O     O_R   0.884180 0.543000 0.427180 -0.647842
O21   O     O_R   0.926880 0.457030 0.590850 -0.638790
O22   O     O_R   0.030150 0.456990 0.366160 -0.631028
O23   O     O_3   0.499990 0.500000 0.000010 -0.479542
O24   O     O_R   0.615810 0.457000 0.072830 -0.648092
O25   O     O_R   0.341200 0.457020 0.884200 -0.628639
O26   O     O_R   0.469840 0.543010 0.133850 -0.630700
Zn1   Zn    Zn3+2 0.104790 0.561410 0.543380 0.976226
Zn2   Zn    Zn3+2 0.981970 0.438590 0.543380 0.962392
Zn3   Zn    Zn3+2 0.956640 0.438570 0.395200 0.976245
Zn4   Zn    Zn3+2 0.956600 0.561430 0.518040 0.961665
Zn5   Zn    Zn3+2 0.395190 0.438590 0.956630 0.976671
Zn6   Zn    Zn3+2 0.543350 0.561430 0.104810 0.975772
Zn7   Zn    Zn3+2 0.518020 0.561410 0.956640 0.961977
Zn8   Zn    Zn3+2 0.543380 0.438570 0.981970 0.966642

loop_
_geom_bond_atom_site_label_1
_geom_bond_atom_site_label_2
_ccdc_geom_bond_type
C44   C49   S    
C25   C31   A    
C66   C68   T    
C77   C92   S    
C33   H20   S    
C8    C13   S    
C62   H52   S    
C55   C59   S    
C27   C29   A    
C85   H64   S    
C41   C42   S    
C87   H66   S    
C35   C36   A    
O22   Zn3   S    
C23   C76   S    
C28   O20   A    
C81   C82   A    
C64   H12   S    
C16   O14   A    
C55   H42   S    
C40   O18   A    
C54   C60   S    
C85   C86   A    
C48   C97   S    
C83   H61   S    
C1    O4    A    
C26   C27   A    
C37   C38   A    
C55   H41   S    
C96   O5    A    
C83   C84   A    
C18   C24   A    
C41   H27   S    
C36   C37   A    
C92   O25   A    
C69   C70   A    
C59   C66   S    
C39   H36   S    
C30   C31   A    
C91   O24   A    
C54   H40   S    
O4    Zn4   S    
C27   C38   S    
C9    H8    S    
C3    H56   S    
C43   C94   S    
C39   H26   S    
C18   C19   A    
C94   O9    A    
C23   C67   S    
C36   H22   S    
O12   Zn1   S    
C1    C53   S    
C16   C81   S    
C79   C90   S    
C95   O6    A    
C92   O11   A    
C34   H1    S    
C75   H59   S    
C7    C14   T    
O25   Zn5   S    
O10   Zn6   S    
C45   C56   S    
C62   H48   S    
C12   C78   T    
O23   Zn6   S    
C23   C89   S    
C45   C78   S    
C86   H65   S    
C60   H50   S    
C32   C38   A    
C9    C10   S    
C76   C88   S    
C42   H31   S    
C54   H49   S    
C71   C82   S    
C1    O21   A    
C67   H68   S    
O23   Zn5   S    
C29   H18   S    
C21   C22   A    
C76   H28   S    
C4    O22   A    
O3    Zn6   S    
C52   O17   A    
O7    Zn5   S    
C3    H7    S    
O1    Zn4   S    
C21   H14   S    
C84   H62   S    
C47   C50   S    
C54   C59   S    
C77   C79   A    
C73   C74   A    
C34   H23   S    
C64   H4    S    
C7    C93   S    
C6    H71   S    
C72   H57   S    
O18   Zn3   S    
C74   H53   S    
C69   H54   S    
C5    H67   S    
C45   C88   S    
C70   H55   S    
C84   C85   A    
C88   H39   S    
C3    C8    S    
C10   C14   S    
C24   H10   S    
C93   O8    A    
C86   C87   A    
C72   C73   A    
C40   O16   A    
C26   C91   S    
C49   H32   S    
O8    Zn5   S    
C93   O26   A    
C57   H43   S    
C91   O10   A    
C60   C61   S    
C51   C53   T    
C2    C89   T    
C58   C95   S    
C29   C30   A    
C3    C9    S    
C94   O2    A    
C46   H37   S    
C58   C65   T    
C47   C48   S    
C63   H47   S    
C73   H58   S    
C62   C63   S    
C34   C64   S    
C76   H16   S    
C88   H51   S    
C46   H25   S    
C69   C74   A    
C43   C50   T    
C34   C45   S    
O14   Zn2   S    
C32   H19   S    
C75   C77   A    
C60   H38   S    
C67   H63   S    
C2    C52   S    
C42   H30   S    
C39   C46   S    
C37   H24   S    
C4    C17   S    
C44   C51   S    
C48   C49   S    
C13   H3    S    
C8    C15   S    
C22   H15   S    
C55   C57   S    
C41   C44   S    
C22   C24   A    
O17   Zn4   S    
O13   Zn1   S    
O1    Zn3   S    
C70   C71   A    
C95   O3    A    
C19   H13   S    
C15   C17   T    
C83   C90   A    
C46   C47   S    
C23   C64   S    
C63   H46   S    
C96   O7    A    
C16   O12   A    
C59   C63   S    
C41   H29   S    
C12   C96   S    
O6    Zn7   S    
C80   C81   A    
C6    C10   S    
C5    C8    S    
C9    H45   S    
C75   C82   A    
C57   C61   S    
C39   C44   S    
O26   Zn6   S    
C56   C67   S    
C49   H33   S    
O15   Zn3   S    
O24   Zn8   S    
C57   H44   S    
C4    O13   A    
C32   C33   A    
C19   C20   A    
C28   C30   S    
C25   C26   A    
C97   N1    T    
C71   C72   A    
C25   H17   S    
C6    H2    S    
O1    Zn1   S    
C11   C13   S    
O20   Zn4   S    
C80   H60   S    
C5    C6    S    
C11   H9    S    
O2    Zn7   S    
O5    Zn8   S    
C33   C35   A    
O23   Zn8   S    
C42   C47   S    
C5    H70   S    
C28   O15   A    
C61   C62   S    
C18   H11   S    
C56   H34   S    
C10   C11   S    
C79   C80   A    
C61   C65   S    
C20   C21   A    
O19   Zn1   S    
O11   Zn7   S    
C40   C68   S    
C87   C90   A    
C56   H69   S    
O23   Zn7   S    
C48   H35   S    
C35   H21   S    
C11   H6    S    
C52   O19   A    
O16   Zn2   S    
C13   H5    S    
O9    Zn8   S    
O1    Zn2   S    
O21   Zn2   S    
C20   C31   S    
