data_mof_unit_51648.cif
_audit_creation_date              2012-12-11T15:29:31-0500
_audit_creation_method            fapswitch 2.2
_symmetry_space_group_name_H-M    P1
_symmetry_Int_Tables_number       1
_space_group_crystal_system       triclinic
_cell_length_a                    13.554294
_cell_length_b                    13.584372
_cell_length_c                    27.538292
_cell_angle_alpha                 90.453028
_cell_angle_beta                  90.561156
_cell_angle_gamma                 59.746377
_cell_volume                      4379.70743903

loop_
_atom_site_label
_atom_site_type_symbol
_atom_type_description
_atom_site_fract_x
_atom_site_fract_y
_atom_site_fract_z
_atom_type_partial_charge
C1    C     C_R   0.622044 0.101525 0.569297 0.542537
C2    C     C_1   0.657926 0.673458 0.651991 -0.063558
C3    C     C_3   0.912265 0.088160 0.160725 -0.240674
C4    C     C_3   0.997761 0.020870 0.201688 -0.325297
C5    C     C_3   0.100065 0.910669 0.182997 -0.454677
C6    C     C_3   0.781759 0.975793 0.267664 -0.272437
C7    C     C_3   0.761918 0.874541 0.266560 -0.299059
C8    C     C_3   0.840964 0.787410 0.228901 -0.454599
C9    C     C_3   0.496098 0.603928 0.718199 -0.263587
C10   C     C_3   0.392027 0.713342 0.699804 -0.298502
C11   C     C_3   0.296183 0.692071 0.684006 -0.451667
C12   C     C_3   0.038119 0.210770 0.731742 -0.105731
C13   C     C_R   0.601622 0.775654 0.567243 0.537400
C14   C     C_3   0.093905 0.109500 0.767882 -0.099715
C15   C     C_1   0.085797 0.206803 0.898057 -0.018705
C16   C     C_1   0.218995 0.142585 0.614699 -0.028068
C17   C     C_3   0.066259 0.282883 0.767116 -0.103924
C18   C     C_3   0.122815 0.181341 0.802287 0.054759
C19   C     C_3   0.183008 0.238425 0.742152 -0.105149
C20   C     C_3   0.154822 0.166368 0.707622 0.054932
C21   C     C_1   0.638915 0.713052 0.611728 -0.026592
C22   C     C_3   0.238986 0.137400 0.777983 -0.105444
C23   C     C_3   0.210840 0.065176 0.742897 -0.100659
C24   C     C_1   0.105957 0.191810 0.855146 -0.062218
C25   C     C_R   0.276309 0.122367 0.568799 0.540216
C26   C     C_1   0.183272 0.155314 0.655687 -0.066142
C27   C     C_3   0.645749 0.280634 0.733114 -0.097348
C28   C     C_3   0.578047 0.259304 0.772313 0.023119
C29   C     C_1   0.700680 0.216455 0.898863 -0.023071
C30   C     C_1   0.644683 0.134869 0.615835 -0.030438
C31   C     C_3   0.755549 0.217584 0.764874 -0.127315
C32   C     C_3   0.697514 0.534623 0.764703 -0.107848
C33   C     C_3   0.686052 0.197824 0.803514 0.056449
C34   C     C_3   0.784849 0.102833 0.740308 -0.106062
C35   C     C_3   0.674550 0.166384 0.709487 0.035289
C36   C     C_3   0.715516 0.084143 0.779826 0.023375
C37   C     C_R   0.620585 0.099586 0.431244 0.538815
C38   C     C_3   0.605802 0.145125 0.748458 -0.091241
C39   C     C_1   0.691173 0.210450 0.855833 -0.074559
C40   C     C_1   0.661228 0.152290 0.657353 -0.073202
C41   C     C_R   0.629347 0.722511 0.382789 0.013921
C42   C     C_R   0.738652 0.676660 0.363527 -0.149854
C43   C     C_3   0.684336 0.629699 0.799802 0.032454
C44   C     C_R   0.756960 0.641415 0.315273 -0.146727
C45   C     C_R   0.665120 0.657271 0.285684 0.038655
C46   C     C_R   0.556305 0.695989 0.305599 0.006075
C47   C     C_R   0.540377 0.726904 0.354240 -0.109852
C48   C     C_R   0.626669 0.730176 0.201477 -0.126714
C49   C     C_R   0.599860 0.778200 0.430207 0.541129
C50   C     C_R   0.636662 0.710405 0.151691 -0.145002
C51   C     C_R   0.764861 0.508528 0.167163 -0.113550
C52   C     C_R   0.753604 0.527965 0.216650 -0.148110
C53   C     C_R   0.682890 0.638325 0.233818 0.022520
C54   C     C_3   0.591269 0.624485 0.736241 0.022888
C55   C     C_R   0.705398 0.599358 0.134843 0.049316
C56   C     C_R   0.260947 0.123822 0.377552 0.029426
C57   C     C_R   0.321238 0.156729 0.346769 -0.125555
C58   C     C_R   0.309120 0.154574 0.296845 -0.126228
C59   C     C_R   0.233491 0.123300 0.277203 0.019238
C60   C     C_R   0.177654 0.084455 0.307537 -0.132612
C61   C     C_R   0.285515 0.117598 0.429344 0.538101
C62   C     C_R   0.192849 0.082978 0.357766 -0.138913
C63   C     C_R   0.121622 0.270321 0.214847 0.005572
C64   C     C_R   0.079615 0.296785 0.167570 -0.121127
C65   C     C_3   0.669331 0.647132 0.704008 0.062727
C66   C     C_R   0.185147 0.097481 0.144394 -0.145277
C67   C     C_R   0.229009 0.069261 0.191552 -0.137425
C68   C     C_R   0.194987 0.154575 0.227122 0.028388
C69   C     C_R   0.107662 0.210920 0.132829 0.004037
C70   C     C_R   0.633613 0.133824 0.382923 0.007364
C71   C     C_R   0.560953 0.245412 0.366693 -0.146997
C72   C     C_R   0.561387 0.272338 0.318194 -0.144656
C73   C     C_3   0.775864 0.558925 0.731986 -0.126986
C74   C     C_R   0.633525 0.187965 0.285479 0.031842
C75   C     C_R   0.702320 0.072926 0.301036 0.005725
C76   C     C_3   0.577035 0.718588 0.772228 -0.077948
C77   C     C_R   0.704201 0.048912 0.350127 -0.113109
C78   C     C_R   0.758946 0.191879 0.223821 -0.113801
C79   C     C_R   0.788774 0.172412 0.175014 -0.024412
C80   C     C_R   0.584515 0.275523 0.154725 -0.136668
C81   C     C_R   0.559636 0.268530 0.203157 -0.130616
C82   C     C_R   0.648376 0.222758 0.237337 0.009293
C83   C     C_R   0.698867 0.223871 0.139793 0.025418
C84   C     C_R   0.046947 0.236480 0.947270 0.545456
C85   C     C_3   0.762852 0.653594 0.767814 -0.111507
C86   C     C_R   0.712399 0.559529 0.945578 0.542270
C87   C     C_3   0.655629 0.740889 0.739537 0.027454
C88   C     C_R   0.723828 0.225854 0.948523 0.547613
C89   C     C_R   0.048915 0.243779 0.085986 0.525901
C90   C     C_R   0.710079 0.570536 0.084353 0.529849
C91   C     C_R   0.724370 0.235005 0.089127 0.533823
C92   C     C_1   0.699555 0.597334 0.896021 -0.022134
C93   C     C_3   0.460888 0.348177 0.791308 -0.258651
C94   C     C_3   0.372729 0.395628 0.750037 -0.302157
C95   C     C_3   0.253690 0.477980 0.769386 -0.462278
C96   C     C_3   0.762477 0.974174 0.809435 -0.258647
C97   C     C_3   0.671832 0.976024 0.843271 -0.297321
C98   C     C_1   0.692051 0.616214 0.852920 -0.068422
C99   C     C_3   0.721351 0.867527 0.873415 -0.444263
C100  C     C_3   0.455845 0.706138 0.276381 -0.253327
C101  C     C_3   0.469138 0.588813 0.266797 -0.286185
C102  C     C_3   0.369604 0.598861 0.236502 -0.457454
C103  C     C_3   0.083377 0.367435 0.251096 -0.255469
C104  C     C_3   0.146588 0.433033 0.242895 -0.295124
C105  C     C_3   0.122198 0.519373 0.283437 -0.460235
C106  C     C_3   0.630578 0.856987 0.721194 -0.262006
C107  C     C_3   0.504848 0.931576 0.705967 -0.306212
C108  C     C_3   0.489567 0.014962 0.665944 -0.421415
Cr1   Cr    Cr6+3 0.417550 0.169090 0.500530 1.012528
Cr2   Cr    Cr6+3 0.669180 0.913420 0.499920 1.014849
Cr3   Cr    Cr6+3 0.413260 0.917540 0.499520 1.013663
Cr4   Cr    Cr6+3 0.909770 0.175810 0.018240 1.003723
Cr5   Cr    Cr6+3 0.913300 0.427650 0.016090 1.016601
Cr6   Cr    Cr6+3 0.657770 0.431010 0.016900 1.021189
H1    H     H_    0.833253 0.666768 0.780608 0.093243
H2    H     H_    0.572730 0.816139 0.214908 0.105421
H3    H     H_    0.590024 0.780268 0.126651 0.100318
H4    H     H_    0.841475 0.607517 0.300304 0.103042
H5    H     H_    0.796218 0.456896 0.241479 0.108005
H6    H     H_    0.816312 0.421856 0.153930 0.111892
H7    H     H_    0.455667 0.760093 0.369111 0.136030
H8    H     H_    0.378775 0.183181 0.361379 0.139073
H9    H     H_    0.353457 0.183547 0.273667 0.112611
H10   H     H_    0.287071 0.980838 0.200698 0.107410
H11   H     H_    0.118849 0.060160 0.292654 0.099834
H12   H     H_    0.320927 0.108151 0.797673 0.090767
H13   H     H_    0.503353 0.311414 0.391443 0.124323
H14   H     H_    0.507593 0.359418 0.306354 0.106303
H15   H     H_    0.472765 0.295824 0.213697 0.100043
H16   H     H_    0.496575 0.785063 0.789141 0.093334
H17   H     H_    0.515428 0.314860 0.128482 0.116668
H18   H     H_    0.758695 0.962283 0.362558 0.131494
H19   H     H_    0.057266 0.056238 0.779016 0.100898
H20   H     H_    0.226330 0.433534 0.794931 0.156281
H21   H     H_    0.253203 0.550584 0.788455 0.151026
H22   H     H_    0.191786 0.511676 0.738697 0.138644
H23   H     H_    0.218229 0.292244 0.730469 0.103542
H24   H     H_    0.396847 0.440914 0.723511 0.160594
H25   H     H_    0.371077 0.324535 0.730629 0.158335
H26   H     H_    0.434146 0.307407 0.819034 0.143384
H27   H     H_    0.467679 0.418500 0.808853 0.143281
H28   H     H_    0.618493 0.360091 0.712837 0.094184
H29   H     H_    0.756118 0.791703 0.849426 0.158045
H30   H     H_    0.790683 0.860712 0.897530 0.157227
H31   H     H_    0.653355 0.869308 0.896220 0.146180
H32   H     H_    0.639324 0.049397 0.868620 0.169304
H33   H     H_    0.597423 0.985703 0.822103 0.148051
H34   H     H_    0.007178 0.372639 0.777957 0.105142
H35   H     H_    0.796655 0.899919 0.784467 0.124193
H36   H     H_    0.835739 0.964638 0.831609 0.149693
H37   H     H_    0.287324 0.654988 0.255027 0.140706
H38   H     H_    0.368197 0.634595 0.200185 0.160710
H39   H     H_    0.379197 0.513291 0.231579 0.140395
H40   H     H_    0.549918 0.532816 0.247259 0.185832
H41   H     H_    0.471846 0.548577 0.302118 0.154681
H42   H     H_    0.374731 0.758866 0.296412 0.128754
H43   H     H_    0.445147 0.751533 0.241771 0.145163
H44   H     H_    0.029244 0.580959 0.285750 0.146338
H45   H     H_    0.542047 0.117766 0.743422 0.098889
H46   H     H_    0.153299 0.475103 0.318814 0.158416
H47   H     H_    0.166901 0.567101 0.275900 0.136438
H48   H     H_    0.240194 0.372981 0.241514 0.158232
H49   H     H_    0.119285 0.478739 0.207640 0.159815
H50   H     H_    0.990121 0.426750 0.246927 0.127387
H51   H     H_    0.095981 0.336827 0.289108 0.164219
H52   H     H_    0.020671 0.385087 0.158433 0.128923
H53   H     H_    0.407406 0.095498 0.670420 0.144761
H54   H     H_    0.558255 0.035418 0.667689 0.155175
H55   H     H_    0.491908 0.977560 0.629715 0.172724
H56   H     H_    0.870029 0.037720 0.726587 0.100129
H57   H     H_    0.468352 0.879292 0.692807 0.166083
H58   H     H_    0.455671 0.979529 0.738350 0.142464
H59   H     H_    0.649237 0.900980 0.750139 0.134572
H60   H     H_    0.689096 0.843546 0.690624 0.155803
H61   H     H_    0.210134 0.031318 0.117185 0.109200
H62   H     H_    0.149469 0.053218 0.381099 0.110172
H63   H     H_    0.823654 0.164594 0.251939 0.111115
H64   H     H_    0.073581 0.847214 0.174410 0.145423
H65   H     H_    0.135277 0.925758 0.149633 0.158099
H66   H     H_    0.167867 0.874395 0.211373 0.137802
H67   H     H_    0.817432 0.246334 0.772823 0.101437
H68   H     H_    0.026864 0.075827 0.218983 0.166900
H69   H     H_    0.958523 0.994566 0.229618 0.150086
H70   H     H_    0.910008 0.023904 0.136208 0.177535
H71   H     H_    0.946221 0.134959 0.141050 0.187974
H72   H     H_    0.815551 0.822976 0.191712 0.157413
H73   H     H_    0.931026 0.764378 0.235680 0.144654
H74   H     H_    0.836806 0.708432 0.230672 0.159605
H75   H     H_    0.781267 0.833086 0.302664 0.164669
H76   H     H_    0.671491 0.903886 0.256980 0.172561
H77   H     H_    0.773935 0.003670 0.229563 0.171030
H78   H     H_    0.808336 0.671377 0.385142 0.119630
H79   H     H_    0.870371 0.944480 0.280694 0.126304
H80   H     H_    0.326277 0.625924 0.655079 0.156937
H81   H     H_    0.265960 0.663986 0.715426 0.150569
H82   H     H_    0.223357 0.772198 0.669598 0.147077
H83   H     H_    0.359701 0.778256 0.729168 0.147716
H84   H     H_    0.416517 0.746609 0.668240 0.174174
H85   H     H_    0.529656 0.541139 0.688030 0.138499
H86   H     H_    0.470538 0.568500 0.748625 0.141147
H87   H     H_    0.713662 0.449745 0.776136 0.104406
H88   H     H_    0.956019 0.241163 0.712040 0.101375
H89   H     H_    0.856427 0.492996 0.714992 0.103958
H90   H     H_    0.269664 0.975578 0.732233 0.089412
O1    O     O_R   0.301780 0.195490 0.553940 -0.506668
O2    O     O_R   0.636050 0.541380 0.962520 -0.508359
O3    O     O_R   0.666480 0.323610 0.968170 -0.494959
O4    O     O_R   0.522450 0.158840 0.550250 -0.494815
O5    O     O_R   0.817280 0.156800 0.072180 -0.538116
O6    O     O_R   0.005110 0.187160 0.067410 -0.517472
O7    O     O_R   0.026450 0.340060 0.069950 -0.515141
O8    O     O_R   0.808300 0.527240 0.065170 -0.505393
O9    O     O_R   0.634070 0.548770 0.069460 -0.510026
O10   O     O_R   0.664650 0.330470 0.067300 -0.496352
O11   O     O_3   0.826940 0.344820 0.017080 -0.250344
O12   O     O_R   0.658840 0.818280 0.449970 -0.502303
O13   O     O_R   0.694460 0.003360 0.553820 -0.506753
O14   O     O_R   0.657750 0.819520 0.549120 -0.495569
O15   O     O_R   0.501990 0.803120 0.552700 -0.511856
O16   O     O_R   0.318230 0.023430 0.549370 -0.496040
O17   O     O_R   0.302950 0.194150 0.446980 -0.520045
O18   O     O_R   0.523540 0.157600 0.451100 -0.508391
O19   O     O_R   0.695630 0.002030 0.446860 -0.520916
O20   O     O_R   0.503160 0.801780 0.445740 -0.524884
O21   O     O_R   0.319320 0.022190 0.450230 -0.498704
O22   O     O_3   0.499990 0.000010 0.499990 -0.249377
O23   O     O_R   0.819250 0.149410 0.965240 -0.507166
O24   O     O_R   0.006940 0.180310 0.968270 -0.494022
O25   O     O_R   0.028420 0.332670 0.963010 -0.506645
O26   O     O_R   0.810130 0.520390 0.966030 -0.494449

loop_
_geom_bond_atom_site_label_1
_geom_bond_atom_site_label_2
_ccdc_geom_bond_type
C79   C83   A    
C30   C40   T    
C80   H17   S    
C101  C102  S    
Cr4   O24   S    
C78   C82   A    
C50   H3    S    
C97   H32   S    
C14   C18   S    
C19   C20   S    
C11   H80   S    
C91   O5    A    
C2    C65   S    
C3    C79   S    
C67   H10   S    
C27   H28   S    
C104  H49   S    
C81   C82   A    
C92   C98   T    
Cr5   O26   S    
C89   O7    A    
C54   C65   S    
C107  H57   S    
C45   C46   A    
C52   C53   A    
C73   H89   S    
C49   O12   A    
C58   H9    S    
C33   C39   S    
C42   C44   A    
C12   C20   S    
C72   H14   S    
C18   C24   S    
C99   H29   S    
C60   H11   S    
C11   H81   S    
C38   H45   S    
C55   C90   S    
C1    C30   S    
C104  H48   S    
C69   C89   S    
C47   H7    S    
C105  H46   S    
C106  C107  S    
C101  H41   S    
C78   H63   S    
C10   H84   S    
C16   C25   S    
C33   C36   S    
C65   C73   S    
Cr6   O3    S    
C60   C62   A    
C34   C35   S    
C41   C42   A    
Cr4   O11   S    
C32   C54   S    
C32   H87   S    
Cr2   O13   S    
C1    O4    A    
Cr6   O10   S    
C5    H65   S    
C29   C88   S    
C64   H52   S    
C57   H8    S    
C46   C47   A    
C76   H16   S    
C100  H43   S    
C32   C43   S    
C12   C17   S    
C107  C108  S    
C43   C98   S    
C7    H76   S    
C70   C71   A    
C28   C38   S    
C13   O14   A    
C3    H70   S    
C51   C55   A    
C34   H56   S    
C9    H86   S    
C102  H37   S    
C48   H2    S    
C56   C62   A    
C100  H42   S    
C48   C50   A    
C66   C67   A    
C99   H31   S    
C45   C53   S    
C59   C60   A    
Cr4   O23   S    
C18   C22   S    
C108  H55   S    
C31   H67   S    
C70   C77   A    
C16   C26   T    
C94   H25   S    
C97   H33   S    
Cr6   O9    S    
C29   C39   T    
Cr3   O15   S    
C95   H22   S    
C74   C82   S    
C80   C83   A    
C25   O1    A    
Cr2   O19   S    
C3    H71   S    
C41   C49   S    
C104  C105  S    
C97   C99   S    
C51   H6    S    
C65   C87   S    
C6    C7    S    
C107  H58   S    
C85   C87   S    
C8    H73   S    
C41   C47   A    
C48   C53   A    
C74   C75   A    
C27   C31   S    
C67   C68   A    
Cr3   O21   S    
C99   H30   S    
C85   H1    S    
C19   C22   S    
C11   H82   S    
Cr5   O7    S    
C72   C74   A    
C7    C8    S    
Cr2   O22   S    
C32   C73   S    
C78   C79   A    
C80   C81   A    
Cr6   O2    S    
C71   H13   S    
C27   C35   S    
C58   C59   A    
C95   H20   S    
C61   O21   A    
C51   C52   A    
C28   C93   S    
C77   H18   S    
C86   O26   A    
C14   C23   S    
C6    H77   S    
Cr1   O4    S    
Cr2   O12   S    
C5    H66   S    
C59   C68   S    
C36   C96   S    
C81   H15   S    
C105  H44   S    
C76   C87   S    
C20   C23   S    
C44   H4    S    
C19   H23   S    
C96   H36   S    
C96   C97   S    
C17   H34   S    
C2    C21   T    
C31   C33   S    
C17   C18   S    
C106  H60   S    
C31   C34   S    
C13   C21   S    
C93   C94   S    
C64   C69   A    
C13   O15   A    
Cr1   O1    S    
C84   O25   A    
C75   C77   A    
C102  H39   S    
C73   C85   S    
C15   C84   S    
C54   C76   S    
C63   C103  S    
C15   C24   T    
C108  H53   S    
C12   C14   S    
C28   C33   S    
C103  H51   S    
C43   C85   S    
C12   H88   S    
C49   O20   A    
C94   H24   S    
C105  H47   S    
C66   H61   S    
Cr4   O6    S    
Cr3   O16   S    
Cr5   O11   S    
C88   O3    A    
C3    C4    S    
C84   O24   A    
C10   H83   S    
C62   H62   S    
C103  C104  S    
C93   H27   S    
C44   C45   A    
C9    C10   S    
C43   C76   S    
C56   C57   A    
C46   C100  S    
C63   C68   A    
C56   C61   S    
Cr3   O22   S    
Cr6   O11   S    
C22   C23   S    
Cr1   O17   S    
C4    C5    S    
C37   O18   A    
Cr1   O22   S    
C103  H50   S    
C89   O6    A    
C14   H19   S    
C91   O10   A    
C83   C91   S    
C50   C55   A    
C23   H90   S    
C8    H72   S    
Cr4   O5    S    
Cr5   O8    S    
C36   C38   S    
C35   C40   S    
C71   C72   A    
C93   H26   S    
C86   C92   S    
C90   O8    A    
C57   C58   A    
C87   C106  S    
C20   C26   S    
C101  H40   S    
C96   H35   S    
C100  C101  S    
C17   C19   S    
C106  H59   S    
C34   C36   S    
Cr3   O20   S    
C90   O9    A    
C4    H69   S    
C108  H54   S    
C94   C95   S    
Cr2   O14   S    
C61   O17   A    
C5    H64   S    
C22   H12   S    
C10   C11   S    
C63   C64   A    
C88   O23   A    
C52   H5    S    
C42   H78   S    
C95   H21   S    
C86   O2    A    
C27   C28   S    
C37   O19   A    
C66   C69   A    
C35   C38   S    
C7    H75   S    
C25   O16   A    
C1    O13   A    
C9    C54   S    
C4    H68   S    
C37   C70   S    
Cr5   O25   S    
C8    H74   S    
C6    H79   S    
Cr1   O18   S    
C9    H85   S    
C102  H38   S    
C6    C75   S    
