data_mof_unit_54789.cif
_audit_creation_date              2013-03-05T16:32:08-0500
_audit_creation_method            fapswitch 2.2
_symmetry_space_group_name_H-M    P1
_symmetry_Int_Tables_number       1
_space_group_crystal_system       triclinic
_cell_length_a                    10.752924
_cell_length_b                    10.865841
_cell_length_c                    9.560345
_cell_angle_alpha                 91.104413
_cell_angle_beta                  89.155685
_cell_angle_gamma                 90.876221
_cell_volume                      1116.57191076

loop_
_atom_site_label
_atom_site_type_symbol
_atom_site_description
_atom_site_fract_x
_atom_site_fract_y
_atom_site_fract_z
_atom_type_partial_charge
O1    O     O_R   0.500000 0.319640 0.618810 -0.589878
O2    O     O_R   0.500010 0.319680 0.381230 -0.587180
C1    C     C_R   0.496106 0.262596 0.498786 0.790148
O3    O     O_R   0.317690 0.499960 0.618790 -0.557330
O4    O     O_R   0.317700 0.500000 0.381210 -0.590632
C2    C     C_R   0.259962 0.500570 0.501302 0.764194
Cu1   Cu    Cu3+1 0.499990 0.499980 0.640670 0.971961
Cu2   Cu    Cu3+1 0.500010 0.500020 0.359330 0.964357
O5    O     O_R   0.499990 0.680320 0.618770 -0.570126
O6    O     O_R   0.500000 0.680360 0.381190 -0.584460
O7    O     O_R   0.682300 0.500000 0.618790 -0.590287
O8    O     O_R   0.682310 0.500040 0.381210 -0.565992
C3    C     C_R   0.496824 0.738038 0.500964 0.818813
C4    C     C_R   0.740216 0.499372 0.499882 0.785698
C5    C     C_3   0.068288 0.499365 0.658071 0.222308
H1    H     H_    0.100124 0.413406 0.707520 0.086118
C6    C     C_3   0.925255 0.493530 0.655254 -0.385072
H2    H     H_    0.891992 0.406431 0.703845 0.149483
H3    H     H_    0.885409 0.570290 0.719437 0.215471
H4    H     H_    0.116047 0.701405 0.468392 0.200068
H5    H     H_    0.901818 0.700111 0.499150 0.193616
C7    C     C_3   0.074464 0.614366 0.426522 -0.328663
C8    C     C_3   0.072125 0.383698 0.426465 -0.448150
C9    C     C_3   0.122111 0.500897 0.504390 0.017717
H6    H     H_    0.111237 0.377943 0.318102 0.199726
H7    H     H_    0.101632 0.299741 0.481233 0.161198
C10   C     C_3   0.878367 0.499031 0.502198 0.040787
C11   C     C_3   0.931432 0.618075 0.436370 -0.325276
C12   C     C_3   0.928683 0.385706 0.419742 -0.371678
H8    H     H_    0.889005 0.299383 0.464043 0.163913
H9    H     H_    0.899931 0.389155 0.308518 0.205570
H10   H     H_    0.103419 0.608360 0.314292 0.204141
H11   H     H_    0.894676 0.626952 0.330267 0.253273
C13   C     C_R   0.464837 0.067644 0.621429 0.121521
C14   C     C_R   0.480513 0.130005 0.496599 -0.105092
C15   C     C_R   0.476700 0.062087 0.370358 -0.205606
H12   H     H_    0.480255 0.107459 0.270455 0.167486
C16   C     C_R   0.477116 0.933584 0.372536 -0.165735
H13   H     H_    0.479217 0.883948 0.273724 0.164635
C17   C     C_R   0.482456 0.871595 0.500664 -0.102454
C18   C     C_R   0.464979 0.940905 0.624190 0.149343
C19   C     C_3   0.532647 0.944010 0.759772 -0.477307
C20   C     C_3   0.532561 0.083010 0.755185 -0.441873
H14   H     H_    0.472787 0.910358 0.847130 0.206022
H15   H     H_    0.627664 0.905411 0.750309 0.209004
H16   H     H_    0.474136 0.126328 0.838905 0.196378
H17   H     H_    0.627042 0.124476 0.741163 0.206790
C21   C     C_R   0.597380 0.552006 0.073017 0.197608
N1    N     N_R   0.500800 0.500930 0.147930 -0.216873
C22   C     C_R   0.411531 0.437144 0.074449 -0.058152
H18   H     H_    0.338542 0.388047 0.130120 0.139768
C23   C     C_R   0.411793 0.436812 0.925682 0.000971
H19   H     H_    0.339114 0.387347 0.870151 0.142742
N2    N     N_R   0.500800 0.500890 0.852020 -0.184621
C24   C     C_R   0.596960 0.551291 0.925064 0.198892
C25   C     C_3   0.635146 0.681727 0.916423 -0.534061
C26   C     C_3   0.635264 0.685406 0.074488 0.141916
H20   H     H_    0.727137 0.694420 0.863742 0.230253
H21   H     H_    0.558689 0.734071 0.873517 0.192647
H22   H     H_    0.563833 0.746856 0.121104 0.111528
N3    N     N_R   0.110954 0.604786 0.744824 0.146791
O9    O     O_R   0.075904 0.716206 0.719619 -0.373093
O10   O     O_R   0.170864 0.585210 0.859320 -0.354073
N4    N     N_R   0.759657 0.707981 0.129321 0.134786
O11   O     O_R   0.778535 0.800844 0.214692 -0.383794
O12   O     O_R   0.854381 0.646573 0.080162 -0.370182

loop_
_geom_bond_atom_site_label_1
_geom_bond_atom_site_label_2
_geom_bond_distance
_ccdc_geom_bond_type
C21   C24   1.414423 A    
C22   C23   1.422168 A    
C24   C25   1.473052 S    
C19   H14   1.110978 S    
C5    C6    1.538975 S    
C12   H8    1.113078 S    
C4    C10   1.486075 S    
C10   C12   1.549465 S    
C18   C19   1.495359 S    
C14   C15   1.403254 A    
C25   H21   1.095862 S    
C1    C14   1.447668 S    
C8    C9    1.555606 S    
C2    C9    1.482214 S    
N4    O11   1.300906 A    
C23   N2    1.369451 A    
C15   C16   1.396928 A    
C6    H2    1.114049 S    
C5    N3    1.472761 S    
Cu1   Cu2   2.689712 S    
C12   H9    1.113218 S    
C7    C11   1.540598 S    
C25   C26   1.510931 S    
Cu1   O7    1.968425 S    
C20   H16   1.112003 S    
C16   H13   1.078844 S    
C13   C18   1.377915 A    
C7    H10   1.113785 S    
C15   H12   1.083161 S    
O3    Cu1   1.974446 S    
C21   N1    1.369388 A    
O4    C2    1.297116 A    
C8    C12   1.545207 S    
O3    C2    1.291499 A    
C17   C18   1.400233 A    
C16   C17   1.411579 A    
H5    C11   1.112942 S    
C25   H20   1.111297 S    
C11   H11   1.100559 S    
C22   H18   1.081520 S    
O2    C1    1.293942 A    
C8    H6    1.113339 S    
N3    O9    1.301430 A    
C13   C14   1.390527 A    
O7    C4    1.288087 A    
C7    C9    1.550092 S    
O4    Cu2   1.968424 S    
C19   C20   1.511851 S    
C3    C17   1.461824 S    
C5    H1    1.115636 S    
C6    C10   1.557235 S    
O8    C4    1.302394 A    
C21   C26   1.499508 S    
C23   H19   1.081607 S    
C26   N4    1.459385 S    
Cu2   O6    1.966651 S    
N1    C22   1.369688 A    
C8    H7    1.113200 S    
C10   C11   1.546954 S    
Cu1   O5    1.974709 S    
O5    C3    1.300757 A    
N2    C24   1.358660 A    
C5    C9    1.571466 S    
C26   H22   1.108390 S    
Cu1   N2    2.020560 S    
C6    H3    1.113197 S    
O1    Cu1   1.966651 S    
C20   H17   1.112405 S    
Cu2   N1    2.021165 S    
O6    C3    1.294984 A    
N3    O10   1.300914 A    
O2    Cu2   1.974707 S    
C13   C20   1.486235 S    
Cu2   O8    1.974445 S    
H4    C7    1.110112 S    
O1    C1    1.294542 A    
C19   H15   1.112159 S    
N4    O12   1.303132 A    
