data_mof_unit_49558.cif
_audit_creation_date              2012-12-11T17:06:33-0500
_audit_creation_method            fapswitch 2.2
_symmetry_space_group_name_H-M    P1
_symmetry_Int_Tables_number       1
_space_group_crystal_system       triclinic
_cell_length_a                    6.960633
_cell_length_b                    14.518358
_cell_length_c                    15.966113
_cell_angle_alpha                 90.505642
_cell_angle_beta                  90.034577
_cell_angle_gamma                 89.993467
_cell_volume                      1613.42373726

loop_
_atom_site_label
_atom_site_type_symbol
_atom_type_description
_atom_site_fract_x
_atom_site_fract_y
_atom_site_fract_z
_atom_type_partial_charge
O1    O     O_R   0.494400 0.415450 0.412630 -0.537144
O2    O     O_R   0.823940 0.405730 0.586760 -0.544117
O3    O     O_R   0.994240 0.584550 0.587370 -0.536396
C1    C     C_R   0.655212 0.383590 0.615302 0.695708
O4    O     O_R   0.824110 0.404430 0.413240 -0.544188
O5    O     O_R   0.994420 0.583240 0.412620 -0.539257
C2    C     C_R   0.655314 0.382189 0.384285 0.691360
O6    O     O_R   0.494230 0.416760 0.587380 -0.536864
O7    O     O_3   0.660800 0.558670 0.500000 -0.367441
V1    V     V_3+5 0.935650 0.489120 0.500000 1.384290
O8    O     O_R   0.324140 0.594270 0.413240 -0.538989
C3    C     C_R   0.155070 0.615933 0.384116 0.694123
O9    O     O_R   0.323960 0.595570 0.586760 -0.541672
C4    C     C_R   0.155223 0.617688 0.615598 0.679273
V2    V     V_3+5 0.435660 0.510880 0.500000 1.394850
O10   O     O_3   0.160640 0.441330 0.500000 -0.372361
C5    C     C_3   0.055607 0.667922 0.772181 -0.142906
C6    C     C_3   0.228824 0.716339 0.814860 -0.141198
H1    H     H_    0.991867 0.601365 0.791625 0.098200
C7    C     C_3   0.121133 0.808776 0.810189 -0.005093
C8    C     C_3   0.947717 0.761155 0.768300 -0.114731
C9    C     C_3   0.037201 0.779760 0.681230 -0.141535
C10   C     C_3   0.210423 0.828172 0.723905 -0.143647
C11   C     C_3   0.318307 0.734940 0.727788 -0.113985
C12   C     C_3   0.144889 0.687328 0.685898 -0.005886
H2    H     H_    0.794790 0.772174 0.785353 0.106159
H3    H     H_    0.958369 0.805528 0.625702 0.099824
H4    H     H_    0.471231 0.723913 0.710732 0.106416
C13   C     C_R   0.273022 0.815128 0.239287 0.099073
C14   C     C_R   0.118536 0.815114 0.182939 -0.112738
C15   C     C_R   0.966789 0.753468 0.198752 -0.180307
H5    H     H_    0.844237 0.750965 0.157263 0.133090
C16   C     C_R   0.977819 0.689834 0.264787 -0.178916
H6    H     H_    0.862843 0.640533 0.272301 0.127628
C17   C     C_R   0.141269 0.685624 0.316869 -0.112282
C18   C     C_R   0.284393 0.751890 0.304380 0.100939
C19   C     C_3   0.494952 0.739165 0.292335 -0.408679
C20   C     C_3   0.482692 0.808429 0.221761 -0.398846
H7    H     H_    0.530570 0.668341 0.270405 0.166143
H8    H     H_    0.579384 0.764481 0.346983 0.174509
H9    H     H_    0.511996 0.778018 0.158919 0.169885
H10   H     H_    0.559288 0.873972 0.235757 0.167215
C21   C     C_R   0.493475 0.315968 0.741435 0.099096
C22   C     C_R   0.647667 0.317259 0.685115 -0.112130
C23   C     C_R   0.799117 0.254887 0.699072 -0.181807
H11   H     H_    0.921417 0.253432 0.657456 0.132458
C24   C     C_R   0.787855 0.189170 0.763207 -0.179909
H12   H     H_    0.902532 0.139442 0.769415 0.126582
C25   C     C_R   0.624442 0.183656 0.815004 -0.111193
C26   C     C_R   0.481929 0.250683 0.804679 0.100863
C27   C     C_3   0.271073 0.238936 0.792547 -0.408403
C28   C     C_3   0.283559 0.310515 0.723940 -0.398565
H13   H     H_    0.187396 0.262645 0.847956 0.175168
H14   H     H_    0.234416 0.168964 0.768712 0.164554
H15   H     H_    0.207918 0.375804 0.739849 0.166162
H16   H     H_    0.253282 0.282303 0.660344 0.169998
C29   C     C_R   0.493033 0.315514 0.256678 0.098697
C30   C     C_R   0.647368 0.316171 0.313072 -0.111716
C31   C     C_R   0.799037 0.254203 0.297309 -0.180794
H17   H     H_    0.921487 0.252317 0.338858 0.132401
C32   C     C_R   0.787930 0.189489 0.231236 -0.179076
H18   H     H_    0.902746 0.139941 0.223696 0.127332
C33   C     C_R   0.624518 0.184606 0.179154 -0.111294
C34   C     C_R   0.481606 0.251211 0.191518 0.101287
C35   C     C_3   0.270932 0.238899 0.203384 -0.408449
C36   C     C_3   0.283253 0.309362 0.274082 -0.398449
H19   H     H_    0.234923 0.168493 0.225164 0.165876
H20   H     H_    0.186802 0.263362 0.148722 0.175169
H21   H     H_    0.253588 0.280067 0.336850 0.169628
H22   H     H_    0.206989 0.374748 0.260153 0.167435
O11   O     O_R   0.771650 0.079500 0.908680 -0.539187
O12   O     O_R   0.441690 0.091800 0.082800 -0.539213
O13   O     O_R   0.271460 0.912980 0.083410 -0.536967
C37   C     C_R   0.610721 0.113895 0.111921 0.695478
O14   O     O_R   0.441930 0.090510 0.909280 -0.539882
O15   O     O_R   0.271690 0.911670 0.908660 -0.537569
C38   C     C_R   0.610930 0.112565 0.880654 0.697002
O16   O     O_R   0.771410 0.080810 0.083440 -0.539320
O17   O     O_3   0.605100 0.937580 0.996050 -0.370298
V3    V     V_3+5 0.330220 0.007110 0.996030 1.394039
O18   O     O_R   0.941980 0.900620 0.909250 -0.543001
C39   C     C_R   0.110742 0.878466 0.880457 0.674580
O19   O     O_R   0.941740 0.901920 0.082770 -0.543704
C40   C     C_R   0.110563 0.880100 0.111746 0.690909
V4    V     V_3+5 0.830220 0.985300 0.996000 1.388992
O20   O     O_3   0.105210 0.054870 0.996020 -0.368222
H23   H     H_    0.307659 0.690566 0.870385 0.099378
H24   H     H_    0.274205 0.894714 0.704450 0.096559

loop_
_geom_bond_atom_site_label_1
_geom_bond_atom_site_label_2
_ccdc_geom_bond_type
C8    H2    S    
C7    C39   S    
C17   C18   A    
O11   C38   A    
C29   C36   S    
C1    O6    A    
O18   C39   A    
C24   C25   A    
C23   H11   S    
C13   C18   A    
C19   C20   S    
O19   C40   A    
C6    C11   S    
C18   C19   S    
C20   H10   S    
C19   H8    S    
O5    C3    A    
C14   C15   A    
C21   C28   S    
C36   H21   S    
V2    O10   S    
C32   C33   A    
V3    O20   S    
C5    H1    S    
O11   V4    S    
O8    V2    S    
C15   H5    S    
C35   H19   S    
C9    C12   S    
C13   C20   S    
C10   C11   S    
C15   C16   A    
O1    V2    S    
O14   V3    S    
O13   C40   A    
C28   H15   S    
C31   H17   S    
C8    C9    S    
C16   H6    S    
C23   C24   A    
C31   C32   A    
C27   C28   S    
O15   V3    S    
C11   C12   S    
C20   H9    S    
O12   C37   A    
O15   C39   A    
O4    C2    A    
C1    C22   S    
C26   C27   S    
C30   C31   A    
V4    O20   S    
C5    C8    S    
O17   V3    S    
C27   H13   S    
O2    C1    A    
C21   C22   A    
C13   C14   A    
C24   H12   S    
C7    C10   S    
C35   H20   S    
C5    C6    S    
C3    C17   S    
O14   C38   A    
O3    C4    A    
O16   V4    S    
O19   V4    S    
C35   C36   S    
O6    V2    S    
C9    H3    S    
O9    V2    S    
O2    V1    S    
O17   V4    S    
C22   C23   A    
C29   C34   A    
O7    V1    S    
C2    C30   S    
O1    C2    A    
C11   H4    S    
O5    V1    S    
O8    C3    A    
C21   C26   A    
C33   C37   S    
C6    H23   S    
C10   H24   S    
C27   H14   S    
C5    C12   S    
C34   C35   S    
O7    V2    S    
O4    V1    S    
O12   V3    S    
O3    V1    S    
V1    O10   S    
C29   C30   A    
C36   H22   S    
C16   C17   A    
O13   V3    S    
C25   C38   S    
C6    C7    S    
C4    C12   S    
C14   C40   S    
C32   H18   S    
C33   C34   A    
C7    C8    S    
C19   H7    S    
C25   C26   A    
C37   O16   A    
C9    C10   S    
O9    C4    A    
O18   V4    S    
C28   H16   S    
