data_mof_unit_8240.cif
_audit_creation_date              2012-12-10T19:00:48-0500
_audit_creation_method            fapswitch 2.2
_symmetry_space_group_name_H-M    P1
_symmetry_Int_Tables_number       1
_space_group_crystal_system       triclinic
_cell_length_a                    15.034249
_cell_length_b                    10.95234
_cell_length_c                    9.636808
_cell_angle_alpha                 90.045091
_cell_angle_beta                  89.886024
_cell_angle_gamma                 90.937827
_cell_volume                      1586.58264593

loop_
_atom_site_label
_atom_site_type_symbol
_atom_type_description
_atom_site_fract_x
_atom_site_fract_y
_atom_site_fract_z
_atom_type_partial_charge
C1    C     C_R   0.500428 0.263273 0.498980 0.835162
C2    C     C_R   0.907180 0.616426 0.532381 0.041360
C3    C     C_R   0.953424 0.295232 0.419139 -0.242343
C4    C     C_R   0.045758 0.294837 0.419183 -0.007010
C5    C     C_R   0.093537 0.400669 0.459071 0.068279
C6    C     C_R   0.047510 0.507621 0.497471 0.005533
C7    C     C_R   0.095734 0.613439 0.538818 0.054486
C8    C     C_R   0.049960 0.718600 0.575690 -0.248520
C9    C     C_R   0.957505 0.722903 0.569779 0.224250
C10   C     C_R   0.186445 0.402038 0.461623 -0.278063
C11   C     C_R   0.233489 0.506248 0.501813 -0.112923
C12   C     C_R   0.329503 0.502058 0.500385 0.818388
C13   C     C_R   0.189259 0.612574 0.542237 0.201020
C14   C     C_R   0.489769 0.063063 0.612676 0.029331
C15   C     C_R   0.502295 0.131011 0.493354 -0.160369
C16   C     C_R   0.516428 0.065350 0.367552 -0.074892
C17   C     C_R   0.511977 0.936181 0.367423 0.190219
C18   C     C_R   0.502407 0.870673 0.494769 -0.157391
C19   C     C_R   0.494401 0.940045 0.614660 0.076803
C20   C     C_3   0.475406 0.934309 0.766642 0.094092
C21   C     C_3   0.467242 0.074767 0.762524 -0.451407
C22   C     C_R   0.576589 0.521611 0.072247 0.174689
C23   C     C_R   0.500257 0.737318 0.499342 0.831374
C24   C     C_R   0.432094 0.446776 0.075182 -0.010937
C25   C     C_R   0.429151 0.453386 0.926396 0.283354
C26   C     C_R   0.577417 0.515929 0.926317 0.108051
C27   C     C_3   0.646430 0.613550 0.912862 -0.308992
C28   C     C_3   0.639427 0.629417 0.071024 -0.017489
C29   C     C_R   0.670512 0.500098 0.499645 0.816061
C30   C     C_R   0.812798 0.612491 0.532346 -0.076943
C31   C     C_R   0.767316 0.503390 0.497958 -0.153030
C32   C     C_R   0.812955 0.398095 0.459536 -0.075939
C33   C     C_R   0.906296 0.400079 0.457570 0.077242
C34   C     C_R   0.953487 0.508302 0.495660 0.005441
Cu1   Cu    Cu3+1 0.500000 0.499980 0.640670 0.968886
Cu2   Cu    Cu3+1 0.500000 0.500020 0.359330 0.978495
H1    H     H_    0.412044 0.884569 0.790260 0.109700
H2    H     H_    0.397805 0.105448 0.777467 0.162220
H3    H     H_    0.517525 0.129128 0.820865 0.225386
H4    H     H_    0.624714 0.690677 0.848839 0.191288
H5    H     H_    0.606414 0.714195 0.103178 0.163047
H6    H     H_    0.918666 0.212081 0.388485 0.154715
H7    H     H_    0.223358 0.321388 0.434273 0.176244
H8    H     H_    0.085867 0.800470 0.607481 0.191054
N1    N     N_R   0.500570 0.500930 0.147930 -0.230583
N2    N     N_R   0.500570 0.500890 0.852020 -0.208724
O1    O     O_R   0.500000 0.319640 0.618810 -0.571083
O2    O     O_R   0.500010 0.319680 0.381230 -0.575512
O3    O     O_R   0.370250 0.499950 0.618800 -0.555175
O4    O     O_R   0.370260 0.499990 0.381220 -0.583419
O5    O     O_R   0.499990 0.680320 0.618770 -0.584023
O6    O     O_R   0.500000 0.680360 0.381190 -0.547261
O7    O     O_R   0.629740 0.500010 0.618780 -0.580492
O8    O     O_R   0.629750 0.500050 0.381200 -0.581817
C35   C     C_1   0.759893 0.717843 0.567778 0.281633
N3    N     N_1   0.716997 0.801251 0.595156 -0.296555
N4    N     N_2   0.514307 0.873597 0.238130 -0.410542
H9    H     H_    0.566982 0.899514 0.175559 0.236930
C36   C     C_3   0.430124 0.868160 0.165032 -0.675774
H10   H     H_    0.426139 0.944766 0.089870 0.220210
H11   H     H_    0.372856 0.874641 0.237165 0.233746
H12   H     H_    0.424460 0.780177 0.108156 0.223404
N5    N     N_2   0.550745 0.889436 0.845273 -0.413741
H13   H     H_    0.533602 0.849648 0.938086 0.241007
C37   C     C_3   0.634716 0.956728 0.848874 -0.619328
H14   H     H_    0.688573 0.894468 0.880243 0.218577
H15   H     H_    0.631822 0.031081 0.926874 0.222179
H16   H     H_    0.651818 0.995126 0.745509 0.260998
C38   C     C_1   0.369438 0.367324 0.145682 0.330206
N6    N     N_1   0.319322 0.301791 0.200113 -0.312414
N7    N     N_2   0.355227 0.400623 0.855332 -0.376574
H17   H     H_    0.348149 0.307868 0.870988 0.229205
C39   C     C_3   0.272178 0.464630 0.872429 -0.649023
H18   H     H_    0.245392 0.453114 0.979003 0.209872
H19   H     H_    0.222240 0.427034 0.798508 0.232345
H20   H     H_    0.281818 0.563577 0.850823 0.226693
C40   C     C_1   0.731641 0.561953 0.866696 0.387553
N8    N     N_1   0.798732 0.520753 0.833128 -0.288596
N9    N     N_2   0.723071 0.608014 0.141708 -0.391978
H21   H     H_    0.732644 0.525545 0.190230 0.285898
C41   C     C_3   0.767457 0.714393 0.199039 -0.661326
H22   H     H_    0.833983 0.689025 0.238395 0.225956
H23   H     H_    0.727324 0.752103 0.285287 0.230419
H24   H     H_    0.776508 0.785290 0.117604 0.228212
C42   C     C_1   0.763031 0.287167 0.425788 0.213979
N10   N     N_1   0.723530 0.198700 0.399129 -0.304918
C43   C     C_1   0.089554 0.183779 0.377868 0.222185
N11   N     N_1   0.124691 0.095101 0.344801 -0.304945
N12   N     N_2   0.238215 0.719136 0.583876 -0.455841
H25   H     H_    0.291195 0.702749 0.648507 0.254877
C44   C     C_3   0.261989 0.799637 0.470636 -0.709454
H26   H     H_    0.306868 0.751961 0.397773 0.226369
H27   H     H_    0.296766 0.882236 0.511712 0.227909
H28   H     H_    0.201567 0.828843 0.414278 0.256113
N13   N     N_2   0.916925 0.835742 0.602969 -0.422220
H29   H     H_    0.943060 0.877012 0.690495 0.255082
C45   C     C_3   0.912340 0.919832 0.487515 -0.659587
H30   H     H_    0.874913 0.001846 0.519363 0.238690
H31   H     H_    0.877203 0.876484 0.398462 0.233619
H32   H     H_    0.980305 0.948868 0.454632 0.230339
C46   C     C_1   0.534957 0.126382 0.236612 0.332937
N14   N     N_1   0.549844 0.174625 0.132082 -0.326160

loop_
_geom_bond_atom_site_label_1
_geom_bond_atom_site_label_2
_ccdc_geom_bond_type
C8    C9    A    
C43   N11   T    
N5    C37   S    
C3    H6    S    
C46   N14   T    
Cu1   O7    S    
C39   H18   S    
N13   H29   S    
C35   N3    T    
Cu1   O1    S    
C45   H32   S    
C45   H30   S    
C23   O6    A    
C7    C8    A    
C4    C43   S    
C40   N8    T    
C26   C27   S    
C24   N1    A    
C14   C21   S    
C5    C6    A    
N4    C36   S    
C29   O8    A    
C3    C33   A    
C15   C16   A    
C28   H5    S    
C18   C19   A    
C28   N9    S    
C45   H31   S    
C21   H2    S    
C19   C20   S    
C16   C17   A    
C37   H15   S    
Cu1   O3    S    
C25   N7    S    
N12   C44   S    
C9    N13   S    
Cu2   O6    S    
C2    C34   A    
C36   H10   S    
C22   C28   S    
C39   H19   S    
C41   H23   S    
C24   C38   S    
C12   O3    A    
C36   H11   S    
C18   C23   S    
C24   C25   A    
C44   H26   S    
N9    C41   S    
C1    O1    A    
C42   N10   T    
C41   H22   S    
C6    C34   A    
Cu1   Cu2   S    
C2    C9    A    
C44   H27   S    
C23   O5    A    
C31   C32   A    
C21   H3    S    
C7    C13   A    
C27   H4    S    
C37   H16   S    
C17   C18   A    
Cu2   N1    S    
C1    C15   S    
Cu1   O5    S    
C39   H20   S    
N9    H21   S    
C3    C4    A    
C41   H24   S    
Cu2   O4    S    
N7    C39   S    
C36   H12   S    
C13   N12   S    
C10   H7    S    
C14   C19   A    
C8    H8    S    
C4    C5    A    
C27   C40   S    
C12   O4    A    
C11   C12   S    
N13   C45   S    
C1    O2    A    
C6    C7    A    
C30   C35   S    
C2    C30   A    
C32   C33   A    
C20   N5    S    
C5    C10   A    
C29   C31   S    
C44   H28   S    
C20   H1    S    
C11   C13   A    
N4    H9    S    
C30   C31   A    
C29   O7    A    
C32   C42   S    
C33   C34   A    
Cu2   O2    S    
C38   N6    T    
Cu2   O8    S    
C10   C11   A    
C26   N2    A    
N5    H13   S    
C16   C46   S    
N7    H17   S    
C22   N1    A    
C20   C21   S    
C37   H14   S    
C22   C26   A    
C27   C28   S    
C14   C15   A    
N12   H25   S    
Cu1   N2    S    
C25   N2    A    
C17   N4    S    
