data_mof_unit_58771.cif
_audit_creation_date              2013-03-05T16:37:43-0500
_audit_creation_method            fapswitch 2.2
_symmetry_space_group_name_H-M    P1
_symmetry_Int_Tables_number       1
_space_group_crystal_system       triclinic
_cell_length_a                    18.689319
_cell_length_b                    18.572725
_cell_length_c                    19.001796
_cell_angle_alpha                 109.771174
_cell_angle_beta                  109.858516
_cell_angle_gamma                 109.026995
_cell_volume                      5061.8793737

loop_
_atom_site_label
_atom_site_type_symbol
_atom_site_description
_atom_site_fract_x
_atom_site_fract_y
_atom_site_fract_z
_atom_type_partial_charge
O1    O     O_R   0.408360 0.551710 0.460090 -0.609410
O2    O     O_R   0.408390 0.448280 0.356670 -0.626763
C1    C     C_R   0.380986 0.501892 0.380361 0.868537
O3    O     O_R   0.591600 0.643340 0.551710 -0.594640
O4    O     O_R   0.591630 0.539900 0.448290 -0.635913
C2    C     C_R   0.621503 0.621045 0.502019 0.834361
Zn1   Zn    Zn3+2 0.499980 0.569070 0.569050 1.036379
Zn2   Zn    Zn3+2 0.500020 0.430930 0.430950 1.044330
O5    O     O_R   0.591610 0.551720 0.643330 -0.633173
O6    O     O_R   0.591640 0.448290 0.539910 -0.586117
O7    O     O_R   0.408370 0.460100 0.551710 -0.630351
O8    O     O_R   0.408400 0.356660 0.448290 -0.575781
C3    C     C_R   0.619813 0.499479 0.619626 0.903451
C4    C     C_R   0.379496 0.379413 0.499056 0.941994
H1    H     H_    0.823278 0.819116 0.897210 0.155848
C5    C     C_R   0.744802 0.822488 0.786451 -0.218356
H2    H     H_    0.709218 0.843920 0.815210 0.173977
C6    C     C_R   0.727830 0.811170 0.704263 0.398449
C7    C     C_R   0.774662 0.781380 0.667956 -0.033066
C8    C     C_R   0.842153 0.772070 0.717795 -0.234211
H3    H     H_    0.881899 0.754548 0.693030 0.165984
C9    C     C_R   0.859206 0.785379 0.799619 -0.098225
H4    H     H_    0.911173 0.777525 0.836414 0.144835
C10   C     C_R   0.809854 0.809164 0.833573 -0.175344
C11   C     C_R   0.822820 0.823814 0.576369 -0.196678
H5    H     H_    0.880144 0.881066 0.635970 0.155770
C12   C     C_R   0.812341 0.811613 0.496330 -0.078682
C13   C     C_R   0.736791 0.739643 0.417965 0.001188
C14   C     C_R   0.674972 0.678071 0.422433 -0.244105
H6    H     H_    0.617579 0.620771 0.363001 0.155025
C15   C     C_R   0.686382 0.689336 0.502640 -0.046025
C16   C     C_R   0.759174 0.764551 0.580717 0.076700
C17   C     C_R   0.641913 0.712302 0.271169 -0.144825
H7    H     H_    0.593178 0.715257 0.288859 0.127372
C18   C     C_R   0.625509 0.695914 0.188256 -0.129627
H8    H     H_    0.564636 0.686316 0.142590 0.144817
C19   C     C_R   0.687441 0.691530 0.164156 -0.112172
H9    H     H_    0.674548 0.678526 0.099860 0.132621
C20   C     C_R   0.765904 0.703670 0.222978 -0.120598
H10   H     H_    0.813511 0.699687 0.203988 0.143689
C21   C     C_R   0.782731 0.720637 0.306123 -0.124328
H11   H     H_    0.843620 0.730133 0.351166 0.107364
C22   C     C_R   0.720979 0.725183 0.331007 0.130143
C23   C     C_R   0.417619 0.791651 0.532420 -0.095084
H12   H     H_    0.403385 0.815786 0.583506 0.155959
C24   C     C_R   0.366727 0.702307 0.468745 -0.150933
H13   H     H_    0.312930 0.659260 0.470572 0.156827
C25   C     C_R   0.382158 0.669815 0.400506 0.110777
C26   C     C_R   0.450439 0.727278 0.397707 -0.217924
H14   H     H_    0.461840 0.703542 0.344342 0.137670
C27   C     C_R   0.501093 0.816762 0.461149 -0.051484
H15   H     H_    0.552231 0.860762 0.456988 0.152189
C28   C     C_R   0.484101 0.849776 0.528107 0.314731
C29   C     C_R   0.252339 0.577604 0.256060 -0.240399
H16   H     H_    0.252783 0.637975 0.261816 0.157817
C30   C     C_R   0.186410 0.496626 0.182340 -0.070750
C31   C     C_R   0.182887 0.417147 0.174023 -0.016213
C32   C     C_R   0.248059 0.421235 0.240727 -0.242550
H17   H     H_    0.246831 0.360624 0.234964 0.167781
C33   C     C_R   0.314363 0.502531 0.314959 -0.069331
C34   C     C_R   0.316117 0.581605 0.323654 0.005658
C35   C     C_R   0.057714 0.265192 0.104275 -0.137919
H18   H     H_    0.062053 0.279859 0.166254 0.117392
C36   C     C_R   0.995313 0.181230 0.032023 -0.118936
H19   H     H_    0.951737 0.131926 0.038370 0.135043
C37   C     C_R   0.989796 0.160579 0.951846 -0.109500
H20   H     H_    0.941968 0.095316 0.896097 0.134684
C38   C     C_R   0.046428 0.223971 0.943738 -0.146227
H21   H     H_    0.042814 0.207068 0.881855 0.131483
C39   C     C_R   0.108092 0.308564 0.015534 -0.139018
H22   H     H_    0.152052 0.356933 0.008557 0.106980
C40   C     C_R   0.114207 0.329670 0.096423 0.136636
H23   H     H_    0.159676 0.548791 0.426113 0.168583
C41   C     C_R   0.218635 0.520351 0.525585 0.361291
C42   C     C_R   0.238122 0.458032 0.540621 -0.137434
H24   H     H_    0.270331 0.470356 0.606030 0.190430
C43   C     C_R   0.216942 0.380018 0.471366 0.071991
C44   C     C_R   0.175592 0.363919 0.386485 -0.169333
H25   H     H_    0.158794 0.303943 0.332420 0.142965
C45   C     C_R   0.155051 0.424915 0.370979 -0.193830
H26   H     H_    0.122476 0.412119 0.305408 0.161794
C46   C     C_R   0.176345 0.502617 0.439897 -0.190140
C47   C     C_R   0.173341 0.248797 0.486827 -0.178689
H27   H     H_    0.113875 0.250451 0.479697 0.207100
C48   C     C_R   0.186739 0.182206 0.496310 -0.141984
C49   C     C_R   0.262343 0.177362 0.503259 -0.136258
C50   C     C_R   0.326679 0.243403 0.504565 0.269029
C51   C     C_R   0.313578 0.311914 0.497922 -0.200189
C52   C     C_R   0.236142 0.313872 0.487183 -0.043786
C53   C     C_R   0.339693 0.118316 0.583445 -0.069707
H28   H     H_    0.380264 0.183458 0.640713 0.120641
C54   C     C_R   0.353476 0.049267 0.585605 -0.140182
H29   H     H_    0.404270 0.061102 0.644280 0.126044
C55   C     C_R   0.302169 0.965110 0.511853 -0.126608
H30   H     H_    0.313195 0.911834 0.513517 0.131562
C56   C     C_R   0.236669 0.949733 0.435934 -0.123146
H31   H     H_    0.197147 0.884583 0.378834 0.142289
C57   C     C_R   0.222474 0.018515 0.433576 -0.079700
H32   H     H_    0.172179 0.006162 0.374211 0.107759
C58   C     C_R   0.274185 0.103332 0.507262 0.183994
H33   H     H_    0.607060 0.453919 0.733406 0.171669
C59   C     C_R   0.792404 0.565749 0.641736 -0.181542
H34   H     H_    0.747905 0.579630 0.602154 0.141478
C60   C     C_R   0.873310 0.590568 0.646916 -0.217988
H35   H     H_    0.889824 0.622434 0.612050 0.174875
C61   C     C_R   0.931159 0.570782 0.693503 -0.118315
H36   H     H_    0.990633 0.583726 0.690820 0.249675
C62   C     C_R   0.909918 0.528199 0.737722 0.295300
C63   C     C_R   0.832678 0.514007 0.743592 -0.028634
C64   C     C_R   0.770956 0.526975 0.689298 0.054733
C65   C     C_R   0.689051 0.501648 0.684302 -0.058174
C66   C     C_R   0.670132 0.472067 0.737185 -0.149400
H37   H     H_    0.717075 0.446455 0.838710 0.167144
C67   C     C_R   0.732247 0.466095 0.795662 -0.221453
C68   C     C_R   0.813791 0.488191 0.801069 -0.101207
O9    O     O_R   0.051730 0.908360 0.460070 -0.623175
O10   O     O_R   0.948280 0.908380 0.356650 -0.620112
C69   C     C_R   0.999193 0.878229 0.380575 0.862422
O11   O     O_R   0.960110 0.908350 0.551690 -0.623205
O12   O     O_R   0.856660 0.908370 0.448270 -0.611123
C70   C     C_R   0.879520 0.878049 0.497743 0.859721
Zn3   Zn    Zn3+2 0.069080 0.999960 0.569030 0.974985
Zn4   Zn    Zn3+2 0.930920 0.999990 0.430930 1.002560
O13   O     O_R   0.051720 0.091580 0.643310 -0.631494
O14   O     O_R   0.948270 0.091600 0.539890 -0.595130
O15   O     O_R   0.143340 0.091590 0.551680 -0.618382
O16   O     O_R   0.039890 0.091610 0.448270 -0.617002
C71   C     C_R   0.000722 0.121069 0.619706 0.904996
C72   C     C_R   0.120362 0.118615 0.498724 0.908195
O17   O     O_R   0.051710 0.460040 0.908380 -0.558370
O18   O     O_R   0.948270 0.356620 0.908410 -0.640930
C73   C     C_R   0.998534 0.378963 0.879020 0.928418
O19   O     O_R   0.143330 0.551680 0.091590 -0.625836
O20   O     O_R   0.039890 0.448260 0.091620 -0.619470
C74   C     C_R   0.120108 0.497491 0.117468 0.854638
Zn5   Zn    Zn3+2 0.069060 0.569020 0.999970 1.059603
Zn6   Zn    Zn3+2 0.930920 0.430910 0.000010 0.963598
O21   O     O_R   0.051700 0.643310 0.091570 -0.606752
O22   O     O_R   0.948260 0.539890 0.091600 -0.629639
O23   O     O_R   0.960080 0.551670 0.908360 -0.605333
O24   O     O_R   0.856640 0.448250 0.908390 -0.625769
C75   C     C_R   0.999291 0.620707 0.118874 0.864288
C76   C     C_R   0.879893 0.494482 0.874437 0.905822
C77   C     C_R   0.097878 0.752332 0.537643 -0.207525
H38   H     H_    0.160347 0.791117 0.597590 0.201344
C78   C     C_R   0.088084 0.774386 0.473058 -0.175491
H39   H     H_    0.143352 0.828948 0.483791 0.166209
C79   C     C_R   0.008951 0.724177 0.393904 0.076924
C80   C     C_R   0.940183 0.650462 0.379690 -0.254231
H40   H     H_    0.879699 0.609992 0.317534 0.163323
C81   C     C_R   0.949069 0.627295 0.443967 0.122273
C82   C     C_R   0.029799 0.677914 0.523471 0.391490
C83   C     C_R   0.999083 0.675645 0.252820 -0.248446
H41   H     H_    0.998779 0.617718 0.254609 0.165841
C84   C     C_R   0.999891 0.687886 0.184728 -0.083131
C85   C     C_R   0.004708 0.764476 0.182937 0.023180
C86   C     C_R   0.003538 0.825646 0.248336 -0.273985
H42   H     H_    0.005385 0.884222 0.247137 0.160158
C87   C     C_R   0.002094 0.813053 0.316330 -0.094548
C88   C     C_R   0.003089 0.739008 0.320798 0.012716
C89   C     C_R   0.088722 0.859796 0.141152 -0.236590
H43   H     H_    0.136131 0.905659 0.209452 0.173272
C90   C     C_R   0.103580 0.875147 0.078540 0.362412
C91   C     C_R   0.042909 0.812755 0.990354 -0.199618
H44   H     H_    0.053881 0.821670 0.940803 0.180236
C92   C     C_R   0.967659 0.738155 0.965418 -0.187026
H45   H     H_    0.921325 0.690169 0.897519 0.149379
C93   C     C_R   0.952615 0.724196 0.027863 -0.105152
H46   H     H_    0.894478 0.665568 0.007475 0.109325
C94   C     C_R   0.014294 0.783678 0.116129 0.070861
H47   H     H_    0.396677 0.305018 0.813260 0.148179
C95   C     C_R   0.289224 0.253365 0.832735 -0.166154
H48   H     H_    0.319249 0.227528 0.869589 0.155457
C96   C     C_R   0.206961 0.242350 0.817193 -0.165859
H49   H     H_    0.173918 0.208026 0.842580 0.152295
C97   C     C_R   0.167072 0.274980 0.769045 -0.043186
C98   C     C_R   0.211321 0.320987 0.737341 0.325821
C99   C     C_R   0.294976 0.331529 0.753121 0.142265
C100  C     C_R   0.332914 0.297513 0.800889 -0.169610
C101  C     C_R   0.076977 0.325361 0.817720 -0.194523
H50   H     H_    0.137732 0.383767 0.872345 0.156313
C102  C     C_R   0.996523 0.311304 0.811908 -0.041461
C103  C     C_R   0.917037 0.234272 0.742416 0.026579
C104  C     C_R   0.920219 0.174284 0.677954 -0.245712
H51   H     H_    0.859941 0.115114 0.623559 0.157080
C105  C     C_R   0.000880 0.187768 0.685220 -0.038219
C106  C     C_R   0.080208 0.262698 0.755934 0.062699
C107  C     C_R   0.805009 0.182873 0.784253 -0.099779
H52   H     H_    0.849301 0.173649 0.829909 0.134617
C108  C     C_R   0.722938 0.164072 0.776321 -0.136502
H53   H     H_    0.704256 0.140633 0.815733 0.137193
C109  C     C_R   0.664866 0.175198 0.717321 -0.121600
H54   H     H_    0.601323 0.160557 0.711184 0.138630
C110  C     C_R   0.688225 0.203751 0.665164 -0.124937
H55   H     H_    0.642679 0.211066 0.618558 0.177796
C111  C     C_R   0.770153 0.222370 0.672762 -0.093643
H56   H     H_    0.786731 0.242872 0.630839 0.186120
C112  C     C_R   0.830137 0.214499 0.734164 0.115471
C113  C     C_3   0.535527 0.946777 0.592943 -0.866946
H57   H     H_    0.515004 0.962866 0.641984 0.226102
H58   H     H_    0.606505 0.968696 0.627124 0.293486
H59   H     H_    0.525034 0.983922 0.559022 0.226839
N1    N     N_R   0.241603 0.600998 0.596741 0.228620
O25   O     O_R   0.227944 0.660752 0.583308 -0.401922
O26   O     O_R   0.277415 0.615964 0.675786 -0.316458
N2    N     N_R   0.665190 0.831995 0.660194 0.200643
O27   O     O_R   0.673968 0.860285 0.608042 -0.439660
O28   O     O_R   0.604428 0.831770 0.679087 -0.419968
N3    N     N_R   0.405238 0.241194 0.512968 0.207834
O29   O     O_R   0.400529 0.173217 0.456798 -0.348961
O30   O     O_R   0.481514 0.306171 0.578146 -0.451370
N4    N     N_R   0.958410 0.486508 0.761552 0.218879
O31   O     O_R   0.042538 0.525054 0.790947 -0.322259
O32   O     O_R   0.915827 0.402531 0.732913 -0.445823
N5    N     N_R   0.045756 0.652391 0.588057 0.191359
O33   O     O_R   0.091896 0.712609 0.669812 -0.380455
O34   O     O_R   0.031316 0.572512 0.566372 -0.354139
C114  C     C_3   0.870875 0.549329 0.424816 -0.847608
H60   H     H_    0.881161 0.539045 0.480644 0.268350
H61   H     H_    0.813431 0.559614 0.406883 0.230092
H62   H     H_    0.855190 0.488591 0.369663 0.254185
N6    N     N_R   0.180405 0.952730 0.104351 0.208330
O35   O     O_R   0.236642 0.010532 0.186019 -0.366293
O36   O     O_R   0.194449 0.966775 0.046430 -0.375727
N7    N     N_R   0.173113 0.359256 0.692711 0.190742
O37   O     O_R   0.093626 0.311337 0.626533 -0.390011
O38   O     O_R   0.214831 0.443850 0.722971 -0.335733
C115  C     C_3   0.345294 0.376925 0.719398 -0.841604
H63   H     H_    0.305745 0.390463 0.672841 0.266253
H64   H     H_    0.404477 0.440145 0.774396 0.247386
H65   H     H_    0.366389 0.334369 0.685205 0.227341

loop_
_geom_bond_atom_site_label_1
_geom_bond_atom_site_label_2
_geom_bond_distance
_ccdc_geom_bond_type
C62   N4    1.428957 S    
C110  C111  1.398464 A    
C50   C51   1.409179 A    
C108  H53   1.082299 S    
C21   C22   1.403558 A    
C21   H11   1.078852 S    
C37   C38   1.396831 A    
C7    C8    1.399715 A    
O23   C76   1.277570 A    
Zn5   O23   2.016490 S    
O20   Zn6   2.016365 S    
C66   C67   1.373183 A    
C67   C68   1.399581 A    
C53   H28   1.083252 S    
C91   C92   1.398102 A    
C20   C21   1.398328 A    
C48   C49   1.409335 A    
C101  H50   1.085272 S    
H33   C66   1.084132 S    
Zn1   O7    2.010530 S    
Zn6   O22   2.009152 S    
C43   C52   1.480642 S    
C19   H9    1.082338 S    
O9    Zn3   2.021721 S    
C97   C106  1.481545 S    
C47   H27   1.084997 S    
C71   C105  1.426931 S    
C14   C15   1.395141 A    
C91   H44   1.081899 S    
C18   C19   1.397289 A    
H37   C67   1.083770 S    
C51   C52   1.405751 A    
O24   C76   1.290103 A    
O4    C2    1.283944 A    
Zn2   O6    2.025452 S    
O22   C75   1.278948 A    
C44   C45   1.396445 A    
Zn4   O14   2.021803 S    
C61   H36   1.080950 S    
C32   C33   1.398791 A    
C62   C63   1.430738 A    
C107  C108  1.398381 A    
C6    C7    1.419838 A    
C79   C88   1.480793 S    
O5    C3    1.273277 A    
C96   H49   1.083619 S    
C60   H35   1.081470 S    
C35   C36   1.398119 A    
C73   C102  1.435011 S    
C64   C65   1.405364 A    
C90   C91   1.405400 A    
C53   C54   1.398742 A    
C23   C28   1.403701 A    
C86   H42   1.085400 S    
C83   H41   1.086065 S    
C65   C66   1.387391 A    
C95   C96   1.392247 A    
C5    H2    1.082452 S    
C26   C27   1.398182 A    
C56   C57   1.398546 A    
C113  H59   1.110407 S    
C81   C82   1.417125 A    
C97   C98   1.415232 A    
C39   H22   1.083025 S    
C75   C84   1.431012 S    
C83   C84   1.391418 A    
C49   C58   1.484238 S    
C63   C64   1.412013 A    
C99   C115  1.504591 S    
O12   Zn4   2.020012 S    
O13   C71   1.275021 A    
C48   C72   1.433864 S    
C1    C33   1.436394 S    
C11   C16   1.381237 A    
C93   C94   1.401745 A    
C110  H55   1.082581 S    
C105  C106  1.405863 A    
C113  H57   1.110837 S    
C5    C10   1.395557 A    
O1    Zn1   2.025452 S    
C92   C93   1.393364 A    
C50   N3    1.437801 S    
H47   C100  1.083506 S    
C69   C87   1.430557 S    
C55   H30   1.082675 S    
C41   C46   1.406211 A    
O3    Zn1   2.023376 S    
C7    C16   1.481195 S    
C53   C58   1.404678 A    
C115  H63   1.104361 S    
C89   C90   1.405772 A    
C101  C102  1.397490 A    
N7    O37   1.300724 A    
C78   C79   1.399890 A    
O11   C70   1.282246 A    
C12   C70   1.429747 S    
C47   C52   1.379316 A    
C82   N5    1.434187 S    
O17   Zn5   2.009068 S    
C103  C112  1.481982 S    
C41   C42   1.407773 A    
C27   H15   1.083179 S    
C28   C113  1.500734 S    
C99   C100  1.403045 A    
C79   C80   1.402097 A    
C111  C112  1.404664 A    
O21   C75   1.276441 A    
O7    C4    1.276534 A    
N2    O27   1.300592 A    
C111  H56   1.082381 S    
C23   C24   1.397451 A    
O15   C72   1.279663 A    
C11   H5    1.085922 S    
C43   C44   1.401536 A    
C17   C22   1.406276 A    
C107  H52   1.082742 S    
O1    C1    1.276516 A    
C18   H8    1.082337 S    
C109  C110  1.397366 A    
C19   C20   1.396746 A    
Zn3   O15   2.020264 S    
O17   C73   1.282821 A    
C42   H24   1.081163 S    
O16   C72   1.279005 A    
C103  C104  1.383704 A    
C14   H6    1.085406 S    
O18   Zn6   2.022103 S    
C101  C106  1.380611 A    
O19   Zn5   2.022450 S    
C77   C78   1.394171 A    
N1    O26   1.301727 A    
C9    H4    1.073963 S    
Zn4   O16   2.014184 S    
C87   C88   1.411882 A    
C107  C112  1.404805 A    
Zn2   O8    2.023376 S    
C56   H31   1.082370 S    
C35   H18   1.082333 S    
C54   C55   1.397991 A    
N3    O29   1.301153 A    
C81   C114  1.505759 S    
C35   C40   1.405193 A    
C24   H13   1.081518 S    
N4    O31   1.302103 A    
C55   C56   1.398127 A    
C42   C43   1.403570 A    
O20   C74   1.275557 A    
O9    C69   1.273261 A    
C6    N2    1.438629 S    
C89   C94   1.404730 A    
C95   C100  1.392868 A    
O3    C2    1.272889 A    
C93   H46   1.083299 S    
C47   C48   1.395295 A    
N4    O32   1.297824 A    
C26   H14   1.083334 S    
C57   C58   1.404207 A    
C115  H64   1.109937 S    
C9    C10   1.392575 A    
C59   C64   1.412182 A    
C30   C31   1.407144 A    
Zn3   O13   2.009791 S    
O18   C73   1.274984 A    
C13   C14   1.385870 A    
H23   C46   1.082502 S    
C20   H10   1.081796 S    
C30   C74   1.429638 S    
C95   H48   1.082354 S    
C114  H62   1.110244 S    
C113  H58   1.109474 S    
C78   H39   1.081675 S    
C90   N6    1.439742 S    
C104  H51   1.085534 S    
Zn1   O5    2.013460 S    
Zn6   O24   2.022533 S    
C29   H16   1.086092 S    
H1    C10   1.082475 S    
C108  C109  1.397793 A    
N6    O36   1.301589 A    
C49   C50   1.395817 A    
O11   Zn3   2.014099 S    
C98   C99   1.419447 A    
C38   H21   1.080885 S    
C15   C16   1.410965 A    
O2    Zn2   2.013461 S    
C23   H12   1.082979 S    
C8    C9    1.389993 A    
C45   H26   1.081447 S    
O6    C3    1.277903 A    
O4    Zn2   2.010530 S    
C86   C87   1.395961 A    
C29   C30   1.391471 A    
C60   C61   1.384366 A    
C29   C34   1.383316 A    
C11   C12   1.392243 A    
C13   C22   1.485267 S    
C104  C105  1.394044 A    
C59   C60   1.386458 A    
C114  H61   1.111043 S    
C77   H38   1.082825 S    
C109  H54   1.082486 S    
C68   C76   1.452240 S    
C83   C88   1.381117 A    
C80   C81   1.403132 A    
O2    C1    1.281543 A    
C32   H17   1.085277 S    
C4    C51   1.430538 S    
C77   C82   1.403734 A    
C89   H43   1.083374 S    
C80   H40   1.084470 S    
C36   H19   1.082346 S    
C44   H25   1.083269 S    
C17   C18   1.398364 A    
C114  H60   1.105129 S    
C92   H45   1.081023 S    
C61   C62   1.400201 A    
O14   C71   1.280332 A    
C25   C26   1.402433 A    
C3    C65   1.427756 S    
C85   C94   1.479860 S    
C54   H29   1.082424 S    
N7    O38   1.300965 A    
C45   C46   1.396016 A    
C17   H7    1.083394 S    
C37   H20   1.082558 S    
C2    C15   1.434047 S    
C31   C40   1.481579 S    
O10   Zn4   2.009665 S    
C59   H34   1.081573 S    
C96   C97   1.402290 A    
N5    O34   1.301318 A    
C63   C68   1.432877 A    
Zn5   O21   2.022230 S    
C98   N7    1.435802 S    
C24   C25   1.402432 A    
O8    C4    1.275938 A    
N5    O33   1.301295 A    
C85   C86   1.383844 A    
C8    H3    1.081948 S    
C5    C6    1.407726 A    
C57   H32   1.082849 S    
C41   N1    1.439536 S    
C25   C34   1.475946 S    
C84   C85   1.408579 A    
O19   C74   1.279859 A    
C38   C39   1.399620 A    
N3    O30   1.300027 A    
O12   C70   1.274964 A    
C33   C34   1.409251 A    
C39   C40   1.404656 A    
N1    O25   1.301570 A    
C27   C28   1.403331 A    
C31   C32   1.386206 A    
O10   C69   1.285085 A    
N2    O28   1.301315 A    
N6    O35   1.301709 A    
C115  H65   1.109980 S    
C102  C103  1.414478 A    
C36   C37   1.396788 A    
C12   C13   1.411417 A    
