data_mof_unit_45207.cif
_audit_creation_date              2012-12-10T17:03:46-0500
_audit_creation_method            fapswitch 2.2
_symmetry_space_group_name_H-M    P1
_symmetry_Int_Tables_number       1
_space_group_crystal_system       triclinic
_cell_length_a                    10.015366
_cell_length_b                    10.742261
_cell_length_c                    13.136701
_cell_angle_alpha                 90.009124
_cell_angle_beta                  69.95634
_cell_angle_gamma                 90.004381
_cell_volume                      1327.7431108

loop_
_atom_site_label
_atom_site_type_symbol
_atom_type_description
_atom_site_fract_x
_atom_site_fract_y
_atom_site_fract_z
_atom_type_partial_charge
C1    C     C_R   0.498847 0.737371 0.502862 0.923310
C2    C     C_R   0.369433 0.513717 0.822185 -0.119151
C3    C     C_2   0.608089 0.067135 0.509299 -0.162892
C4    C     C_R   0.421051 0.506014 0.704153 0.851358
C5    C     C_2   0.505868 0.131010 0.488671 -0.341350
C6    C     C_2   0.611756 0.933203 0.503055 -0.165402
C7    C     C_2   0.493574 0.868814 0.514376 -0.334024
C8    C     C_2   0.104954 0.430618 0.434750 0.528165
C9    C     C_2   0.960173 0.451308 0.423343 -0.293353
C10   C     C_R   0.501059 0.262617 0.497924 0.937180
C11   C     C_R   0.578931 0.500345 0.295799 0.875182
C12   C     C_R   0.432066 0.521426 0.984712 0.087005
C13   C     C_R   0.768698 0.629753 0.020109 -0.200633
C14   C     C_R   0.626609 0.517352 0.179358 -0.068019
C15   C     C_R   0.237483 0.460898 0.881133 -0.191761
C16   C     C_R   0.199864 0.443171 0.992103 -0.152759
C17   C     C_R   0.297211 0.469668 0.043446 -0.198829
C18   C     C_3   0.139050 0.230830 0.359474 0.055818
C19   C     C_3   0.084384 0.160735 0.468107 -0.354843
C20   C     C_3   0.037183 0.028966 0.453157 -0.975612
C21   C     C_R   0.459745 0.557618 0.876434 0.092366
C22   C     C_R   0.540403 0.538758 0.029666 0.075399
C23   C     C_R   0.663685 0.609177 0.973430 0.178986
C24   C     C_R   0.678731 0.660005 0.872646 -0.263163
C25   C     C_R   0.577956 0.634825 0.824650 -0.205127
C26   C     C_R   0.530297 0.486124 0.128656 -0.252174
C27   C     C_R   0.748814 0.585913 0.124169 -0.206299
H1    H     H_    0.824281 0.610909 0.163269 0.158102
H2    H     H_    0.444139 0.424319 0.170822 0.173197
H3    H     H_    0.165494 0.429513 0.840923 0.157015
H4    H     H_    0.262742 0.451812 0.129409 0.149955
H5    H     H_    0.097359 0.403543 0.037721 0.143978
H6    H     H_    0.592770 0.677715 0.747025 0.168448
H7    H     H_    0.692160 0.113267 0.529738 0.179527
H8    H     H_    0.223363 0.173297 0.301479 0.169485
H9    H     H_    0.054609 0.240074 0.323047 0.121525
H10   H     H_    0.169867 0.155588 0.503897 0.235449
H11   H     H_    0.992446 0.211042 0.525689 0.207549
H12   H     H_    0.425744 0.087943 0.461936 0.149821
H13   H     H_    0.952416 0.031749 0.416501 0.264705
H14   H     H_    0.994689 0.981933 0.533101 0.262761
H15   H     H_    0.128635 0.974181 0.400036 0.268521
H16   H     H_    0.713269 0.887677 0.489631 0.175840
H17   H     H_    0.389539 0.911473 0.535001 0.152633
H18   H     H_    0.082726 0.569330 0.540203 0.102683
H19   H     H_    0.944179 0.421300 0.349605 0.170754
H20   H     H_    0.865515 0.517532 0.571662 0.160712
H21   H     H_    0.769558 0.717641 0.830070 0.144809
H22   H     H_    0.862657 0.684106 0.978184 0.139842
N1    N     N_2   0.148270 0.498670 0.498870 -0.216112
N2    N     N_2   0.852610 0.498640 0.498840 -0.205023
O1    O     O_R   0.386950 0.680940 0.500020 -0.619908
O2    O     O_R   0.613110 0.680900 0.499980 -0.613838
O3    O     O_R   0.330780 0.500000 0.653640 -0.618357
O4    O     O_R   0.556930 0.499960 0.653610 -0.610660
O5    O     O_R   0.386890 0.319100 0.500020 -0.587509
O6    O     O_R   0.613050 0.319060 0.499980 -0.605028
O7    O     O_R   0.443070 0.500040 0.346390 -0.564650
O8    O     O_R   0.669220 0.500000 0.346360 -0.617995
O9    O     O_3   0.201937 0.346676 0.368316 -0.619037
Zn1   Zn    Zn3+2 0.349000 0.500030 0.500020 0.969262
Zn2   Zn    Zn3+2 0.651000 0.499970 0.499980 0.932167

loop_
_geom_bond_atom_site_label_1
_geom_bond_atom_site_label_2
_ccdc_geom_bond_type
C12   C17   A    
C20   H15   S    
C23   C24   A    
C6    C7    D    
C19   H11   S    
C8    N1    D    
C14   C27   A    
C16   H5    S    
C11   O7    A    
C10   O5    A    
C18   H8    S    
C2    C4    S    
C19   C20   S    
C9    N2    D    
O1    Zn1   S    
C3    C6    S    
C2    C21   A    
C20   H14   S    
C5    C10   S    
O5    Zn1   S    
C7    H17   S    
C14   C26   A    
C2    C15   A    
C16   C17   A    
N2    Zn2   S    
H18   N1    S    
O7    Zn1   S    
C13   H22   S    
H20   N2    S    
C18   O9    S    
C11   C14   S    
C17   H4    S    
C9    H19   S    
C6    H16   S    
C5    H12   S    
C4    O4    A    
C22   C26   A    
C20   H13   S    
C1    O1    A    
C11   O8    A    
C15   C16   A    
C24   H21   S    
O4    Zn2   S    
C12   C22   A    
O6    Zn2   S    
C10   O6    A    
C24   C25   A    
C13   C23   A    
C15   H3    S    
C18   C19   S    
O2    Zn2   S    
C27   H1    S    
N1    Zn1   S    
C1    O2    A    
C26   H2    S    
C13   C27   A    
O8    Zn2   S    
C21   C25   A    
C19   H10   S    
C3    H7    S    
C4    O3    A    
C1    C7    S    
C18   H9    S    
C12   C21   A    
C22   C23   A    
C8    O9    S    
C25   H6    S    
C8    C9    S    
C3    C5    D    
O3    Zn1   S    
