data_mof_unit_6874.cif
_audit_creation_date              2012-12-11T16:31:19-0500
_audit_creation_method            fapswitch 2.2
_symmetry_space_group_name_H-M    P1
_symmetry_Int_Tables_number       1
_space_group_crystal_system       triclinic
_cell_length_a                    22.083637
_cell_length_b                    29.95062
_cell_length_c                    19.43447
_cell_angle_alpha                 90.038622
_cell_angle_beta                  125.4017
_cell_angle_gamma                 89.996711
_cell_volume                      10477.6895994

loop_
_atom_site_label
_atom_site_type_symbol
_atom_type_description
_atom_site_fract_x
_atom_site_fract_y
_atom_site_fract_z
_atom_type_partial_charge
C1    C     C_R   0.646074 0.901466 0.072670 -0.134204
C2    C     C_R   0.386716 0.120173 0.927477 -0.071025
C3    C     C_R   0.358128 0.896080 0.926904 -0.090926
C4    C     C_R   0.612277 0.120556 0.072145 -0.085021
C5    C     C_R   0.144093 0.398577 0.073844 -0.121594
C6    C     C_R   0.880923 0.618282 0.926766 -0.079184
C7    C     C_R   0.856233 0.398388 0.926906 -0.081181
C8    C     C_R   0.110594 0.620932 0.071970 -0.097296
C9    C     C_1   0.962575 0.999785 0.480605 -0.001853
C10   C     C_1   0.028108 0.000266 0.537176 -0.008310
C11   C     C_1   0.465711 0.500627 0.474430 -0.004856
C12   C     C_1   0.531458 0.500785 0.530253 -0.009377
C13   C     C_R   0.572500 0.267110 0.930475 -0.179381
C14   C     C_R   0.221600 0.851307 0.043166 -0.178476
C15   C     C_R   0.426573 0.267347 0.065857 -0.175621
C16   C     C_R   0.769562 0.851292 0.939102 -0.176926
C17   C     C_R   0.072577 0.766621 0.928011 -0.178076
C18   C     C_R   0.719774 0.353118 0.044801 -0.180016
C19   C     C_R   0.918839 0.767749 0.044852 -0.168787
C20   C     C_R   0.276286 0.351531 0.951884 -0.182062
C21   C     C_R   0.554766 0.223284 0.935725 -0.240098
C22   C     C_R   0.278867 0.871924 0.044900 -0.240743
C23   C     C_R   0.444555 0.223522 0.060884 -0.241142
C24   C     C_R   0.717434 0.874991 0.942937 -0.234473
C25   C     C_R   0.053374 0.723296 0.933583 -0.232316
C26   C     C_R   0.776182 0.374718 0.046041 -0.240315
C27   C     C_R   0.936044 0.723111 0.044330 -0.243579
C28   C     C_R   0.220177 0.372781 0.951589 -0.229428
C29   C     C_R   0.602480 0.197872 0.009162 -0.013992
C30   C     C_R   0.293759 0.859967 0.986203 -0.008908
C31   C     C_R   0.395298 0.197277 0.989223 -0.009805
C32   C     C_R   0.712370 0.868960 0.011193 -0.016223
C33   C     C_R   0.098564 0.698594 0.008612 -0.026552
C34   C     C_R   0.789682 0.364349 0.985580 -0.008539
C35   C     C_R   0.880747 0.693284 0.985600 -0.010878
C36   C     C_R   0.209297 0.363266 0.014435 -0.021269
C37   C     C_R   0.660999 0.219824 0.082641 0.563522
C38   C     C_R   0.247277 0.829532 0.921006 0.559272
C39   C     C_R   0.334129 0.218102 0.916582 0.551318
C40   C     C_R   0.765435 0.842097 0.080148 0.573279
C41   C     C_R   0.154458 0.721377 0.082786 0.563711
C42   C     C_R   0.742033 0.334785 0.918838 0.557782
C43   C     C_R   0.809738 0.709278 0.921042 0.543731
C44   C     C_R   0.258595 0.334368 0.081380 0.572729
C45   C     C_R   0.679133 0.263602 0.075728 -0.323434
C46   C     C_R   0.190912 0.808256 0.921229 -0.343924
C47   C     C_R   0.315570 0.261703 0.923500 -0.343572
C48   C     C_R   0.820708 0.820921 0.077904 -0.327284
C49   C     C_R   0.174556 0.764478 0.075720 -0.312536
C50   C     C_R   0.686411 0.312705 0.919388 -0.341157
C51   C     C_R   0.792994 0.754087 0.923065 -0.350689
C52   C     C_R   0.316695 0.314659 0.082862 -0.331213
C53   C     C_R   0.638274 0.286083 0.998472 0.101599
C54   C     C_R   0.179126 0.818110 0.983240 0.112471
C55   C     C_R   0.359034 0.285388 0.999358 0.104465
C56   C     C_R   0.818581 0.822209 0.004578 0.098898
C57   C     C_R   0.137509 0.785631 0.997143 0.095106
C58   C     C_R   0.676698 0.320544 0.983531 0.108421
C59   C     C_R   0.846307 0.782898 0.986316 0.105713
C60   C     C_R   0.322455 0.320620 0.015296 0.104468
C61   C     C_R   0.464759 0.964280 0.411332 0.558867
C62   C     C_R   0.435978 0.040601 0.521517 0.561161
C63   C     C_R   0.385535 0.964920 0.499110 0.566443
C64   C     C_R   0.384655 0.028837 0.336568 0.568465
C65   C     C_R   0.121361 0.466635 0.504901 0.566284
C66   C     C_R   0.116506 0.530995 0.663927 0.566094
C67   C     C_R   0.046644 0.461936 0.598324 0.561737
C68   C     C_R   0.061442 0.539630 0.477672 0.560374
C69   C     C_R   0.487320 0.964988 0.357938 -0.375394
C70   C     C_R   0.452994 0.040388 0.602485 -0.378820
C71   C     C_R   0.406442 0.964825 0.581790 -0.328805
C72   C     C_R   0.411623 0.030501 0.287242 -0.341644
C73   C     C_R   0.101432 0.466300 0.422550 -0.347312
C74   C     C_R   0.089476 0.532175 0.713286 -0.338949
C75   C     C_R   0.023988 0.462552 0.651702 -0.381934
C76   C     C_R   0.045987 0.539579 0.397435 -0.372509
C77   C     C_R   0.463148 0.998911 0.298257 0.021406
C78   C     C_R   0.442385 0.001784 0.634582 0.024196
C79   C     C_R   0.062330 0.502138 0.368086 0.027232
C80   C     C_R   0.042461 0.498478 0.706443 0.024052
C81   C     C_R   0.547931 0.123495 0.933745 -0.155007
C82   C     C_R   0.423798 0.892640 0.065853 -0.145091
C83   C     C_R   0.451777 0.123564 0.065953 -0.162260
C84   C     C_R   0.579512 0.897667 0.933439 -0.144082
C85   C     C_R   0.046689 0.623842 0.933844 -0.158551
C86   C     C_R   0.921272 0.396157 0.066312 -0.146954
C87   C     C_R   0.947740 0.622394 0.065800 -0.159711
C88   C     C_R   0.077610 0.393551 0.934856 -0.151472
C89   C     C_R   0.413846 0.996693 0.401763 -0.200254
C90   C     C_R   0.405125 0.002030 0.470623 -0.191641
C91   C     C_R   0.097221 0.502402 0.531176 -0.201247
C92   C     C_R   0.091840 0.496828 0.602645 -0.188283
C93   C     C_R   0.472627 0.963835 0.768427 -0.158232
C94   C     C_R   0.500606 0.036879 0.210904 -0.152810
C95   C     C_R   0.506475 0.963519 0.216174 -0.155356
C96   C     C_R   0.474030 0.036899 0.769945 -0.134479
C97   C     C_R   0.995891 0.463483 0.785857 -0.151085
C98   C     C_R   0.029870 0.536963 0.232254 -0.146017
C99   C     C_R   0.031718 0.463865 0.233966 -0.159984
C100  C     C_R   0.001655 0.536736 0.791079 -0.145415
C101  C     C_R   0.704744 0.037276 0.233438 0.145368
C102  C     C_R   0.292449 0.963199 0.769531 0.155712
C103  C     C_R   0.292011 0.037858 0.773544 0.190785
C104  C     C_R   0.701828 0.962406 0.235734 0.113329
C105  C     C_R   0.205522 0.537418 0.232023 0.137725
C106  C     C_R   0.794407 0.463041 0.767025 0.147676
C107  C     C_R   0.794067 0.537756 0.769426 0.186528
C108  C     C_R   0.202780 0.462486 0.234986 0.111897
C109  C     C_R   0.648393 0.887915 0.006110 0.076146
C110  C     C_R   0.405954 0.148372 0.993629 0.086202
C111  C     C_R   0.357329 0.880214 0.992948 0.094147
C112  C     C_R   0.592850 0.148745 0.005776 0.094370
C113  C     C_R   0.145430 0.382920 0.008012 0.075775
C114  C     C_R   0.897031 0.645413 0.992804 0.106588
C115  C     C_R   0.854033 0.384229 0.993094 0.089438
C116  C     C_R   0.090202 0.649372 0.005695 0.096304
C117  C     C_R   0.468024 0.000624 0.722834 0.134370
C118  C     C_R   0.489781 0.000047 0.245277 0.135555
C119  C     C_R   0.013966 0.499856 0.757892 0.133547
C120  C     C_R   0.037368 0.500725 0.280133 0.135432
C121  C     C_R   0.746274 0.999560 0.278162 0.027492
C122  C     C_R   0.247313 0.000699 0.732392 -0.084598
C123  C     C_R   0.247632 0.499845 0.276375 0.027054
C124  C     C_R   0.749986 0.500523 0.727087 -0.082027
C125  C     C_1   0.821658 0.999248 0.353307 0.005978
C126  C     C_1   0.170168 0.000949 0.661042 -0.055193
C127  C     C_1   0.323875 0.500070 0.349817 0.011215
C128  C     C_1   0.673473 0.500746 0.654260 -0.063048
C129  C     C_1   0.886124 0.999335 0.413079 -0.016572
C130  C     C_1   0.104948 0.000762 0.603434 -0.001274
C131  C     C_1   0.388854 0.500343 0.408222 -0.022526
C132  C     C_1   0.608389 0.500833 0.596227 0.000955
H1    H     H_    0.692416 0.900667 0.137613 0.160714
H2    H     H_    0.363893 0.131172 0.864436 0.153682
H3    H     H_    0.314052 0.891544 0.862147 0.151091
H4    H     H_    0.634037 0.131776 0.134780 0.129894
H5    H     H_    0.189643 0.396649 0.139094 0.158485
H6    H     H_    0.854100 0.629517 0.862906 0.132103
H7    H     H_    0.811564 0.395083 0.861801 0.148708
H8    H     H_    0.131251 0.631909 0.134279 0.134375
H9    H     H_    0.526435 0.940021 0.365982 0.153790
H10   H     H_    0.478478 0.069770 0.641536 0.151654
H11   H     H_    0.395870 0.935092 0.604809 0.150227
H12   H     H_    0.391726 0.056350 0.239806 0.158395
H13   H     H_    0.115447 0.437358 0.401084 0.155226
H14   H     H_    0.105289 0.559631 0.756926 0.157714
H15   H     H_    0.988748 0.435799 0.646863 0.152642
H16   H     H_    0.016990 0.567890 0.356481 0.152543
H17   H     H_    0.513990 0.135216 0.869281 0.090926
H18   H     H_    0.442544 0.884835 0.129354 0.103877
H19   H     H_    0.485939 0.135759 0.130139 0.091271
H20   H     H_    0.561173 0.892846 0.869014 0.104244
H21   H     H_    0.012583 0.635453 0.869372 0.092207
H22   H     H_    0.938881 0.391756 0.130619 0.107742
H23   H     H_    0.981071 0.635550 0.129405 0.093898
H24   H     H_    0.058952 0.385007 0.871688 0.103327
H25   H     H_    0.463162 0.929404 0.748324 0.100130
H26   H     H_    0.495191 0.071745 0.220904 0.103051
H27   H     H_    0.509317 0.929137 0.234116 0.099070
H28   H     H_    0.464679 0.071512 0.750925 0.098788
H29   H     H_    0.993697 0.429097 0.768425 0.097461
H30   H     H_    0.041853 0.571494 0.252175 0.094463
H31   H     H_    0.044304 0.429581 0.255122 0.101240
H32   H     H_    0.007842 0.571577 0.781802 0.105507
H33   H     H_    0.539324 0.284418 0.870553 0.124175
H34   H     H_    0.213637 0.859071 0.091885 0.129942
H35   H     H_    0.461522 0.285489 0.124637 0.127448
H36   H     H_    0.767228 0.852429 0.881896 0.129028
H37   H     H_    0.041922 0.783147 0.867190 0.126788
H38   H     H_    0.713464 0.359302 0.095268 0.130262
H39   H     H_    0.960204 0.789501 0.094837 0.128278
H40   H     H_    0.280150 0.356611 0.899362 0.129243
H41   H     H_    0.506093 0.208725 0.880047 0.129418
H42   H     H_    0.312919 0.896402 0.093627 0.146791
H43   H     H_    0.494857 0.209582 0.115497 0.128367
H44   H     H_    0.678204 0.895965 0.889983 0.146602
H45   H     H_    0.006110 0.708454 0.876946 0.134738
H46   H     H_    0.811062 0.398361 0.096158 0.147353
H47   H     H_    0.991667 0.711473 0.092262 0.126976
H48   H     H_    0.183553 0.395479 0.900450 0.146677
H49   H     H_    0.730389 0.277917 0.128318 0.138082
H50   H     H_    0.160913 0.781023 0.877627 0.140941
H51   H     H_    0.262416 0.274920 0.872047 0.146509
H52   H     H_    0.859117 0.798723 0.129133 0.139943
H53   H     H_    0.224787 0.778939 0.129683 0.140498
H54   H     H_    0.655956 0.285988 0.874589 0.140820
H55   H     H_    0.735798 0.765057 0.881499 0.144231
H56   H     H_    0.352326 0.291011 0.132557 0.139537
N1    N     N_R   0.579040 0.919410 0.042340 -0.051180
N2    N     N_R   0.420960 0.080590 0.957660 -0.051844
N3    N     N_R   0.420960 0.919410 0.957660 -0.049539
N4    N     N_R   0.579040 0.080590 0.042340 -0.050083
N5    N     N_R   0.079040 0.419410 0.042340 -0.051383
N6    N     N_R   0.920960 0.580590 0.957660 -0.048791
N7    N     N_R   0.920960 0.419410 0.957660 -0.050952
N8    N     N_R   0.079040 0.580590 0.042340 -0.048738
N9    N     N_R   0.539560 0.083450 0.957270 -0.042080
N10   N     N_R   0.460440 0.916550 0.042730 -0.042944
N11   N     N_R   0.460440 0.083450 0.042730 -0.043541
N12   N     N_R   0.539560 0.916550 0.957270 -0.039140
N13   N     N_R   0.039560 0.583450 0.957270 -0.042133
N14   N     N_R   0.960440 0.416550 0.042730 -0.044394
N15   N     N_R   0.960440 0.583450 0.042730 -0.043560
N16   N     N_R   0.039560 0.416550 0.957270 -0.038585
N17   N     N_R   0.478900 0.978820 0.837270 -0.035371
N18   N     N_R   0.521100 0.021180 0.162730 -0.043014
N19   N     N_R   0.521100 0.978820 0.162730 -0.038122
N20   N     N_R   0.478900 0.021180 0.837270 -0.037636
N21   N     N_R   0.978900 0.478820 0.837270 -0.033858
N22   N     N_R   0.021100 0.521180 0.162730 -0.041095
N23   N     N_R   0.021100 0.478820 0.162730 -0.039814
N24   N     N_R   0.978900 0.521180 0.837270 -0.037550
N25   N     N_R   0.639700 0.024040 0.162340 -0.086357
N26   N     N_R   0.360300 0.975960 0.837660 -0.070335
N27   N     N_R   0.360300 0.024040 0.837660 -0.070433
N28   N     N_R   0.639700 0.975960 0.162340 -0.089637
N29   N     N_R   0.139700 0.524040 0.162340 -0.084680
N30   N     N_R   0.860300 0.475960 0.837660 -0.070150
N31   N     N_R   0.860300 0.524040 0.837660 -0.067923
N32   N     N_R   0.139700 0.475960 0.162340 -0.089894
Ni1   Ni    Ni4+2 0.550430 0.949580 0.102370 0.200601
Ni2   Ni    Ni4+2 0.449570 0.050420 0.897630 0.205062
Ni3   Ni    Ni4+2 0.449570 0.949580 0.897630 0.213609
Ni4   Ni    Ni4+2 0.550430 0.050420 0.102370 0.192411
Ni5   Ni    Ni4+2 0.050430 0.449580 0.102370 0.198614
Ni6   Ni    Ni4+2 0.949570 0.550420 0.897630 0.205805
Ni7   Ni    Ni4+2 0.949570 0.449580 0.897630 0.213348
Ni8   Ni    Ni4+2 0.050430 0.550420 0.102370 0.192149
N33   N     N_2   0.715219 0.079211 0.272710 -0.112641
H57   H     H_    0.667400 0.097185 0.249915 0.147346
C133  C     C_3   0.777716 0.104984 0.289315 -0.895032
H58   H     H_    0.785428 0.134440 0.328153 0.246603
H59   H     H_    0.767983 0.116105 0.229198 0.278488
H60   H     H_    0.829755 0.085281 0.325435 0.253738
N34   N     N_2   0.274006 0.920125 0.731342 -0.128854
H61   H     H_    0.220534 0.916913 0.677783 0.170724
C134  C     C_3   0.328866 0.898598 0.724706 -0.944998
H62   H     H_    0.310551 0.864016 0.700942 0.249851
H63   H     H_    0.383088 0.896592 0.787361 0.261748
H64   H     H_    0.334466 0.917076 0.679208 0.251629
N35   N     N_2   0.273998 0.081986 0.741107 -0.108508
H65   H     H_    0.217670 0.087491 0.699650 0.177223
C135  C     C_3   0.314664 0.097404 0.708334 -0.964525
H66   H     H_    0.293376 0.130482 0.678055 0.250296
H67   H     H_    0.307926 0.073696 0.660272 0.265306
H68   H     H_    0.374245 0.101164 0.760492 0.242190
N36   N     N_2   0.707725 0.919979 0.272551 -0.101017
H69   H     H_    0.664829 0.898665 0.231683 0.164999
C136  C     C_3   0.720049 0.920750 0.354288 -0.901518
H70   H     H_    0.717770 0.886155 0.373241 0.242028
H71   H     H_    0.676374 0.940905 0.351469 0.243375
H72   H     H_    0.775707 0.934345 0.403266 0.259591
N37   N     N_2   0.217667 0.579853 0.270294 -0.115052
H73   H     H_    0.170154 0.597432 0.250555 0.144554
C137  C     C_3   0.276841 0.605819 0.278765 -0.862265
H74   H     H_    0.283373 0.637547 0.311861 0.249404
H75   H     H_    0.264067 0.613442 0.215721 0.269315
H76   H     H_    0.330347 0.587570 0.316700 0.248414
N38   N     N_2   0.779373 0.420104 0.728765 -0.127721
H77   H     H_    0.728251 0.417048 0.671648 0.170121
C138  C     C_3   0.839046 0.399479 0.729801 -0.928640
H78   H     H_    0.821551 0.365684 0.701229 0.247519
H79   H     H_    0.889146 0.395621 0.795427 0.261243
H80   H     H_    0.852339 0.419801 0.692384 0.251027
N39   N     N_2   0.779641 0.581225 0.734011 -0.119480
H81   H     H_    0.725371 0.585861 0.683057 0.185259
C139  C     C_3   0.831892 0.596754 0.717204 -0.973874
H82   H     H_    0.816647 0.631077 0.690874 0.244220
H83   H     H_    0.830862 0.574471 0.670764 0.266074
H84   H     H_    0.888858 0.597889 0.776219 0.253484
N40   N     N_2   0.209544 0.419873 0.271792 -0.103512
H85   H     H_    0.162168 0.400678 0.236256 0.164963
C140  C     C_3   0.240776 0.418610 0.360976 -0.902090
H86   H     H_    0.230741 0.385285 0.377658 0.241480
H87   H     H_    0.214518 0.444364 0.376912 0.244508
H88   H     H_    0.301726 0.423599 0.399100 0.261141
O1    O     O_3   0.707493 0.196725 0.157380 -0.683263
C141  C     C_3   0.708917 0.217195 0.224240 0.137954
H89   H     H_    0.669760 0.245876 0.204784 0.083395
H90   H     H_    0.691323 0.191815 0.250974 0.121903
C142  C     C_3   0.788070 0.232502 0.293305 -0.253367
H91   H     H_    0.827438 0.204347 0.311998 0.212631
H92   H     H_    0.804988 0.259742 0.269090 0.189234
C143  C     C_3   0.793775 0.249410 0.370951 -1.021237
H93   H     H_    0.755791 0.278175 0.353930 0.269074
H94   H     H_    0.851556 0.260490 0.419478 0.273392
H95   H     H_    0.779264 0.222368 0.398121 0.267542
O2    O     O_3   0.266007 0.815336 0.867494 -0.669522
C144  C     C_3   0.204240 0.816160 0.781565 0.147619
H96   H     H_    0.218623 0.838216 0.747124 0.134179
H97   H     H_    0.152213 0.830074 0.770107 0.080172
C145  C     C_3   0.190102 0.769143 0.744336 -0.251017
H98   H     H_    0.240983 0.756833 0.751535 0.211167
H99   H     H_    0.177280 0.746094 0.779034 0.194461
C146  C     C_3   0.125572 0.768656 0.650950 -1.016385
H100  H     H_    0.073687 0.779943 0.642393 0.266667
H101  H     H_    0.117045 0.734170 0.625848 0.278628
H102  H     H_    0.137754 0.790876 0.614629 0.268524
O3    O     O_3   0.284847 0.193896 0.844143 -0.672355
C147  C     C_3   0.281453 0.212126 0.774627 0.151626
H103  H     H_    0.323145 0.195005 0.769198 0.104574
H104  H     H_    0.293344 0.248658 0.779843 0.086308
C148  C     C_3   0.203740 0.204488 0.694128 -0.234736
H105  H     H_    0.191163 0.168202 0.685237 0.204777
H106  H     H_    0.162242 0.221311 0.700317 0.201143
C149  C     C_3   0.196957 0.222985 0.616767 -1.028411
H107  H     H_    0.206822 0.259612 0.623192 0.273410
H108  H     H_    0.140172 0.216488 0.559434 0.276177
H109  H     H_    0.237759 0.206592 0.608990 0.266180
O4    O     O_3   0.763085 0.836119 0.149280 -0.681630
C150  C     C_3   0.740964 0.791969 0.151373 0.161903
H110  H     H_    0.769953 0.782469 0.218737 0.141598
H111  H     H_    0.756899 0.766493 0.122662 0.090329
C151  C     C_3   0.657043 0.790011 0.108800 -0.302857
H112  H     H_    0.641609 0.814754 0.138822 0.208285
H113  H     H_    0.627065 0.798431 0.040833 0.200555
C152  C     C_3   0.632836 0.743642 0.116359 -0.982813
H114  H     H_    0.646568 0.718383 0.085498 0.268080
H115  H     H_    0.571851 0.743355 0.084806 0.275433
H116  H     H_    0.660941 0.734650 0.183811 0.264070
O5    O     O_3   0.196473 0.700080 0.160069 -0.681371
C153  C     C_3   0.180023 0.718000 0.215182 0.137532
H117  H     H_    0.165745 0.689692 0.240248 0.118651
H118  H     H_    0.131204 0.741100 0.184278 0.077776
C154  C     C_3   0.248264 0.741933 0.289435 -0.250519
H119  H     H_    0.297025 0.719233 0.319957 0.208838
H120  H     H_    0.261265 0.771823 0.266529 0.187806
C155  C     C_3   0.235140 0.756802 0.354923 -1.024191
H121  H     H_    0.285145 0.774489 0.407290 0.274030
H122  H     H_    0.224397 0.727408 0.381232 0.270539
H123  H     H_    0.186984 0.779916 0.325964 0.269319
O6    O     O_3   0.759303 0.321645 0.863514 -0.670723
C156  C     C_3   0.696710 0.323631 0.778086 0.149989
H124  H     H_    0.710291 0.346762 0.744240 0.132197
H125  H     H_    0.645099 0.336941 0.768511 0.078769
C157  C     C_3   0.681994 0.277345 0.737952 -0.248499
H126  H     H_    0.732462 0.265625 0.743591 0.211463
H127  H     H_    0.669669 0.253295 0.771793 0.192807
C158  C     C_3   0.616773 0.278153 0.644875 -1.024849
H128  H     H_    0.565279 0.288865 0.637810 0.268190
H129  H     H_    0.607865 0.244171 0.617638 0.274506
H130  H     H_    0.628431 0.301422 0.609382 0.269313
O7    O     O_3   0.753360 0.679380 0.868319 -0.665698
C159  C     C_3   0.722166 0.689477 0.782860 0.161136
H131  H     H_    0.763817 0.683439 0.768961 0.098810
H132  H     H_    0.702780 0.724673 0.766742 0.093791
C160  C     C_3   0.654861 0.659304 0.726937 -0.225046
H133  H     H_    0.671515 0.623825 0.743879 0.201032
H134  H     H_    0.611975 0.666761 0.738232 0.201553
C161  C     C_3   0.621378 0.666268 0.633551 -1.041876
H135  H     H_    0.601272 0.701139 0.614770 0.272649
H136  H     H_    0.573698 0.643199 0.594955 0.276698
H137  H     H_    0.663320 0.659342 0.620624 0.269628
O8    O     O_3   0.250395 0.325630 0.145587 -0.679770
C162  C     C_3   0.224253 0.281512 0.138856 0.164962
H138  H     H_    0.245959 0.270034 0.203633 0.143301
H139  H     H_    0.244685 0.257062 0.113349 0.088768
C163  C     C_3   0.139187 0.280722 0.085457 -0.303986
H140  H     H_    0.119316 0.305096 0.111410 0.213445
H141  H     H_    0.116430 0.290401 0.019496 0.197174
C164  C     C_3   0.110156 0.234379 0.084795 -0.983163
H142  H     H_    0.128447 0.209543 0.057887 0.266585
H143  H     H_    0.048489 0.234894 0.045393 0.275993
H144  H     H_    0.130795 0.224179 0.149894 0.264654
O9    O     O_3   0.491709 0.931181 0.471995 -0.619958
C165  C     C_3   0.561089 0.944509 0.544637 0.190729
H145  H     H_    0.557185 0.977746 0.567461 0.071083
H146  H     H_    0.603591 0.945852 0.531011 0.089679
C166  C     C_3   0.585422 0.910549 0.614778 -0.216330
H147  H     H_    0.541598 0.907585 0.625993 0.210531
H148  H     H_    0.592770 0.877357 0.594919 0.196329
C167  C     C_3   0.658082 0.924403 0.696963 -1.060723
H149  H     H_    0.703040 0.927271 0.687659 0.273315
H150  H     H_    0.674307 0.898855 0.746165 0.268214
H151  H     H_    0.651197 0.956935 0.719183 0.274481
O10   O     O_3   0.450439 0.078492 0.492519 -0.618282
C168  C     C_3   0.526739 0.080031 0.526013 0.191065
H152  H     H_    0.544000 0.049228 0.509558 0.071187
H153  H     H_    0.561084 0.084024 0.595903 0.089075
C169  C     C_3   0.540502 0.119888 0.487769 -0.219543
H154  H     H_    0.505481 0.116542 0.417853 0.209751
H155  H     H_    0.524587 0.151178 0.504323 0.199258
C170  C     C_3   0.621903 0.122815 0.519920 -1.050923
H156  H     H_    0.657951 0.126790 0.589644 0.272656
H157  H     H_    0.629994 0.152131 0.491111 0.274500
H158  H     H_    0.638509 0.092222 0.502387 0.272080
O11   O     O_3   0.359704 0.925142 0.454469 -0.621889
C171  C     C_3   0.287516 0.930802 0.380034 0.192268
H159  H     H_    0.289983 0.949171 0.332128 0.085968
H160  H     H_    0.250804 0.948926 0.392773 0.073382
C172  C     C_3   0.254051 0.884765 0.343966 -0.227503
H161  H     H_    0.291473 0.865672 0.333852 0.211174
H162  H     H_    0.248950 0.866133 0.389833 0.200270
C173  C     C_3   0.177616 0.888377 0.260142 -1.054661
H163  H     H_    0.138725 0.906639 0.268857 0.275980
H164  H     H_    0.155107 0.854403 0.235776 0.273319
H165  H     H_    0.181740 0.906169 0.212857 0.267296
O12   O     O_3   0.337128 0.062383 0.326771 -0.619639
C174  C     C_3   0.265665 0.044450 0.291111 0.190677
H166  H     H_    0.264530 0.026306 0.340186 0.086885
H167  H     H_    0.248507 0.021503 0.237360 0.073230
C175  C     C_3   0.209722 0.082696 0.258158 -0.236280
H168  H     H_    0.225948 0.105956 0.310845 0.210266
H169  H     H_    0.210110 0.101432 0.209050 0.198028
C176  C     C_3   0.131351 0.065401 0.220282 -1.024013
H170  H     H_    0.113442 0.042663 0.166460 0.270193
H171  H     H_    0.092117 0.093953 0.196999 0.276606
H172  H     H_    0.129433 0.047192 0.268775 0.268472
O13   O     O_3   0.152105 0.428102 0.552267 -0.598214
C177  C     C_3   0.225498 0.436555 0.622494 0.258431
H173  H     H_    0.226140 0.458954 0.668422 0.059814
H174  H     H_    0.258900 0.451925 0.602364 0.023118
C178  C     C_3   0.262551 0.392542 0.667207 -0.294974
H175  H     H_    0.261272 0.369112 0.621993 0.195888
H176  H     H_    0.321618 0.399077 0.719400 0.142765
C179  C     C_3   0.224265 0.370871 0.703754 -0.819274
H177  H     H_    0.224929 0.393869 0.749065 0.232918
H178  H     H_    0.254000 0.339731 0.737559 0.216792
H179  H     H_    0.165837 0.362261 0.652548 0.297719
O14   O     O_3   0.158020 0.567038 0.668585 -0.620215
C180  C     C_3   0.231160 0.553160 0.701714 0.190381
H180  H     H_    0.232577 0.536279 0.651749 0.087686
H181  H     H_    0.253470 0.530314 0.756820 0.070819
C181  C     C_3   0.281215 0.594279 0.730988 -0.229727
H182  H     H_    0.259698 0.617538 0.676968 0.210416
H183  H     H_    0.280564 0.611784 0.781018 0.198607
C182  C     C_3   0.361009 0.581532 0.765691 -1.036873
H184  H     H_    0.384138 0.558887 0.820766 0.269739
H185  H     H_    0.395861 0.612092 0.786337 0.277816
H186  H     H_    0.363080 0.564651 0.716170 0.267666
O15   O     O_3   0.025213 0.426640 0.542689 -0.621507
C183  C     C_3   0.953036 0.434537 0.469510 0.185976
H187  H     H_    0.950630 0.466770 0.439536 0.073557
H188  H     H_    0.911791 0.434947 0.485092 0.089189
C184  C     C_3   0.932874 0.397124 0.406076 -0.208020
H189  H     H_    0.974999 0.395756 0.392001 0.209871
H190  H     H_    0.933311 0.364620 0.433947 0.198265
C185  C     C_3   0.856335 0.404443 0.323860 -1.064400
H191  H     H_    0.813091 0.405412 0.336140 0.273287
H192  H     H_    0.843417 0.376604 0.279508 0.271815
H193  H     H_    0.855288 0.436271 0.293858 0.271907
O16   O     O_3   0.040626 0.576105 0.503246 -0.619080
C186  C     C_3   0.965204 0.571819 0.472500 0.190128
H194  H     H_    0.954260 0.538949 0.490036 0.069232
H195  H     H_    0.928806 0.575550 0.402562 0.089688
C187  C     C_3   0.946251 0.608359 0.512021 -0.218462
H196  H     H_    0.984874 0.606150 0.581973 0.212364
H197  H     H_    0.953351 0.641618 0.492201 0.197570
C188  C     C_3   0.866632 0.603799 0.485654 -1.048256
H198  H     H_    0.826820 0.606133 0.415918 0.271576
H199  H     H_    0.854510 0.631048 0.514779 0.275148
H200  H     H_    0.859131 0.571273 0.507293 0.271360

loop_
_geom_bond_atom_site_label_1
_geom_bond_atom_site_label_2
_ccdc_geom_bond_type
C172  C173  S    
C153  H118  S    
C182  H184  S    
N8    Ni8   S    
C34   C42   A    
C76   C79   A    
C105  N37   S    
C137  H75   S    
C66   O14   S    
C148  H106  S    
C61   C69   A    
C156  H124  S    
C142  C143  S    
C2    H2    S    
C93   C117  A    
C5    N5    A    
O14   C180  S    
C82   N10   A    
C40   O4    S    
C96   N20   A    
C153  C154  S    
N40   H85   S    
C140  H88   S    
C167  H149  S    
C105  C123  A    
C163  C164  S    
C65   C91   A    
C168  C169  S    
C187  C188  S    
C18   C58   A    
C101  N25   A    
C188  H199  S    
C107  N39   S    
C86   N14   A    
C166  C167  S    
C178  H176  S    
C107  C124  A    
C41   C49   A    
C98   H30   S    
N2    N11   A    
N14   Ni5   S    
C85   C116  A    
C164  H144  S    
C136  H71   S    
C32   C109  S    
C104  N28   A    
C47   H51   S    
C48   H52   S    
N18   N19   A    
C20   C28   A    
C27   C35   A    
C151  H112  S    
C21   C29   A    
N17   Ni3   S    
C23   C31   A    
C152  H116  S    
C24   C32   A    
N33   H57   S    
C162  H138  S    
C104  N36   S    
C61   O9    S    
C79   C120  S    
C149  H107  S    
C13   C21   A    
C96   H28   S    
C5    H5    S    
C28   H48   S    
C107  N31   A    
C155  H122  S    
C183  H187  S    
C20   H40   S    
C63   C71   A    
C105  N29   A    
C36   C44   A    
C37   C45   A    
O11   C171  S    
C24   H44   S    
N3    Ni3   S    
C6    N6    A    
C32   C40   A    
C147  H103  S    
C39   C47   A    
C156  C157  S    
C72   H12   S    
C143  H93   S    
C33   C116  S    
C187  H197  S    
C12   C132  S    
C5    C113  A    
N22   Ni8   S    
C108  N40   S    
C2    N2    A    
C157  H126  S    
N38   C138  S    
C53   C58   S    
C167  H151  S    
C98   C120  A    
C63   O11   S    
C62   O10   S    
C56   C59   S    
N7    Ni7   S    
C8    H8    S    
C17   C25   A    
C179  H177  S    
C145  H99   S    
C86   H22   S    
N5    Ni5   S    
O9    C165  S    
C82   C111  A    
C81   H17   S    
C67   C92   A    
C31   C110  S    
C133  H60   S    
C161  H135  S    
C127  C131  T    
C186  H195  S    
C173  H163  S    
C8    C116  A    
N29   Ni8   S    
C125  C129  T    
C76   H16   S    
O5    C153  S    
C106  C124  A    
N11   Ni4   S    
O13   C177  S    
C176  H170  S    
C69   H9    S    
C169  H154  S    
C184  H190  S    
C6    H6    S    
C180  H180  S    
C69   C77   A    
C94   N18   A    
C144  C145  S    
C38   O2    S    
C146  H101  S    
C99   N23   A    
C182  H185  S    
C30   C38   A    
C136  H70   S    
C97   N21   A    
C95   H27   S    
N2    Ni2   S    
C138  H78   S    
N25   Ni4   S    
N20   Ni2   S    
C174  H166  S    
C66   C74   A    
C49   C57   A    
N35   H65   S    
C88   C113  A    
C154  H120  S    
C6    C114  A    
C52   C60   A    
C165  H145  S    
C183  C184  S    
N18   Ni4   S    
C171  H159  S    
C14   H34   S    
C35   C43   A    
C9    C10   T    
C3    H3    S    
C147  C148  S    
C43   O7    S    
C44   C52   A    
C80   C119  S    
C45   C53   A    
O1    C141  S    
C15   H35   S    
C64   O12   S    
C157  C158  S    
C1    H1    S    
C156  H125  S    
C179  H179  S    
C96   C117  A    
N10   Ni1   S    
O6    C156  S    
C77   C118  S    
C176  H172  S    
C91   C92   S    
C66   C92   A    
C19   C59   A    
C34   C115  S    
C73   H13   S    
C86   C115  A    
C15   C55   A    
C97   C119  A    
C16   C56   A    
C121  C125  S    
C123  C127  S    
O15   C183  S    
C81   C112  A    
C135  H68   S    
C144  H96   S    
C73   C79   A    
C83   C110  A    
C100  C119  A    
C88   N16   A    
N16   Ni7   S    
C163  H141  S    
N39   C139  S    
C165  C166  S    
C177  H173  S    
C42   C50   A    
C169  C170  S    
C99   H31   S    
C181  H182  S    
C162  H139  S    
N19   Ni1   S    
C180  C181  S    
C97   H29   S    
C150  H111  S    
C106  N38   S    
C67   C75   A    
C50   H54   S    
C175  H168  S    
C172  H162  S    
C136  H72   S    
C22   C30   A    
C14   C54   A    
N12   Ni3   S    
C155  H121  S    
C138  H80   S    
C139  H82   S    
C142  H92   S    
C84   C109  A    
C124  C128  S    
C185  H191  S    
C14   C22   A    
C143  H94   S    
C170  H158  S    
C160  C161  S    
C94   C118  A    
C171  C172  S    
C140  H87   S    
C167  H150  S    
C87   H23   S    
N31   Ni6   S    
C168  H153  S    
N26   Ni3   S    
C158  H130  S    
C49   H53   S    
C159  H131  S    
C188  H198  S    
C18   H38   S    
C141  H89   S    
C41   O5    S    
C52   H56   S    
O16   C186  S    
C137  H74   S    
C25   C33   A    
C166  H148  S    
C54   C57   S    
C1    N1    A    
C178  H175  S    
C4    N4    A    
C18   C26   A    
N3    N10   A    
C150  H110  S    
C45   H49   S    
N29   N32   A    
C164  H143  S    
C88   H24   S    
C27   H47   S    
C81   N9    A    
C25   H45   S    
C23   H43   S    
C126  C130  T    
C151  H113  S    
C135  H66   S    
N21   N24   A    
C48   C56   A    
C152  H115  S    
N28   Ni1   S    
C1    C109  A    
C102  N26   A    
C181  C182  S    
C3    C111  A    
C141  C142  S    
C149  H108  S    
N34   H61   S    
C20   C60   A    
C13   C53   A    
C85   N13   A    
C4    H4    S    
N24   Ni6   S    
C151  C152  S    
C183  H188  S    
C153  H117  S    
C137  H76   S    
C102  N34   S    
C94   H26   S    
C74   C80   A    
C55   C60   S    
C155  H123  S    
C87   N15   A    
N15   Ni8   S    
C147  H104  S    
C148  C149  S    
C83   H19   S    
N36   C136  S    
C95   N19   A    
N13   Ni6   S    
C149  H109  S    
C50   C58   A    
N4    Ni4   S    
C157  H127  S    
C146  H100  S    
C161  H137  S    
C75   H15   S    
C101  C121  A    
C185  H193  S    
C179  H178  S    
O3    C147  S    
C10   C130  S    
C185  H192  S    
C13   H33   S    
C158  H128  S    
C159  C160  S    
N36   H69   S    
C188  H200  S    
C46   C54   A    
C100  H32   S    
N4    N9    A    
C161  H136  S    
C173  H164  S    
C106  N30   A    
C178  C179  S    
C68   C76   A    
C108  C123  A    
C7    N7    A    
N27   Ni2   S    
C103  N27   A    
N30   Ni7   S    
C160  H133  S    
C169  H155  S    
N25   N28   A    
O4    C150  S    
C2    C110  A    
C44   O8    S    
C74   H14   S    
C143  H95   S    
C173  H165  S    
C33   C41   A    
N6    Ni6   S    
C68   O16   S    
N33   C133  S    
C139  H83   S    
C43   C51   A    
N37   H73   S    
C139  H84   S    
C8    N8    A    
C17   H37   S    
C154  H119  S    
C51   H55   S    
C108  N32   A    
C28   C36   A    
C171  H160  S    
C29   C37   A    
C101  N33   S    
N21   Ni7   S    
C89   C90   S    
C102  C122  A    
C103  C122  A    
C17   C57   A    
C174  C175  S    
O7    C159  S    
C187  H196  S    
C70   C78   A    
C29   C112  S    
C93   N17   A    
C172  H161  S    
N7    N14   A    
C174  H167  S    
C84   N12   A    
C98   N22   A    
N5    N16   A    
C145  H98   S    
C19   H39   S    
C176  H171  S    
N1    Ni1   S    
C68   C91   A    
C65   C73   A    
C35   C114  S    
C7    C115  A    
C40   C48   A    
C87   C114  A    
C103  N35   S    
C99   C120  A    
C26   C34   A    
C148  H105  S    
C186  C187  S    
C19   C27   A    
C75   C80   A    
C42   O6    S    
C184  C185  S    
C15   C23   A    
C4    C112  A    
C16   C24   A    
N34   C134  S    
C62   C70   A    
C152  H114  S    
C36   C113  S    
C128  C132  T    
C22   H42   S    
C61   C89   A    
C146  H102  S    
C175  H169  S    
C26   H46   S    
C95   C118  A    
C182  H186  S    
C70   H10   S    
C38   C46   A    
C78   C117  S    
C177  C178  S    
C133  H59   S    
N9    Ni2   S    
C138  H79   S    
N26   N27   A    
C104  C121  A    
C135  H67   S    
C142  H91   S    
C100  N24   A    
N35   C135  S    
C122  C126  S    
C154  C155  S    
C170  H157  S    
C72   C77   A    
C3    N3    A    
C160  H134  S    
C175  C176  S    
N37   C137  S    
C46   H50   S    
C140  H86   S    
C85   H21   S    
C93   H25   S    
C168  H152  S    
C82   H18   S    
C84   H20   S    
N1    N12   A    
C158  H129  S    
C159  H132  S    
O8    C162  S    
C134  H63   S    
C141  H90   S    
C134  H64   S    
C51   C59   A    
C83   N11   A    
N38   H77   S    
O10   C168  S    
C47   C55   A    
C166  H147  S    
N39   H81   S    
N17   N20   A    
C64   C89   A    
N40   C140  S    
C65   O13   S    
C177  H174  S    
C145  C146  S    
C67   O15   S    
C11   C131  S    
C39   O3    S    
C11   C12   T    
C9    C129  S    
C164  H142  S    
C21   H41   S    
C30   C111  S    
O2    C144  S    
N8    N13   A    
C186  H194  S    
C7    H7    S    
N30   N31   A    
C71   H11   S    
C16   H36   S    
N6    N15   A    
C62   C90   A    
C63   C90   A    
C181  H183  S    
C144  H97   S    
C31   C39   A    
N32   Ni5   S    
C64   C72   A    
C163  H140  S    
C165  H146  S    
C184  H189  S    
C162  C163  S    
C180  H181  S    
N22   N23   A    
N23   Ni5   S    
C150  C151  S    
C37   O1    S    
C133  H58   S    
O12   C174  S    
C134  H62   S    
C71   C78   A    
C170  H156  S    
