data_mof_unit_15833.cif
_audit_creation_date              2012-12-10T18:33:42-0500
_audit_creation_method            fapswitch 2.2
_symmetry_space_group_name_H-M    P1
_symmetry_Int_Tables_number       1
_space_group_crystal_system       triclinic
_cell_length_a                    10.51184
_cell_length_b                    15.065093
_cell_length_c                    15.375636
_cell_angle_alpha                 81.374434
_cell_angle_beta                  91.32705
_cell_angle_gamma                 103.685126
_cell_volume                      2338.83771998

loop_
_atom_site_label
_atom_site_type_symbol
_atom_type_description
_atom_site_fract_x
_atom_site_fract_y
_atom_site_fract_z
_atom_type_partial_charge
C1    C     C_R   0.478214 0.441881 0.662333 0.885256
C2    C     C_R   0.396034 0.492301 0.041469 0.076741
C3    C     C_R   0.331762 0.399763 0.073035 -0.315708
C4    C     C_R   0.442984 0.614949 0.917005 -0.306354
C5    C     C_R   0.298432 0.333081 0.016806 -0.020795
C6    C     C_R   0.476872 0.682473 0.972070 -0.034523
C7    C     C_R   0.719864 0.842913 0.625106 -0.286373
C8    C     C_R   0.352581 0.175463 0.335601 -0.296648
C9    C     C_R   0.674705 0.752794 0.608675 -0.007896
C10   C     C_R   0.363398 0.256671 0.370178 0.006751
C11   C     C_R   0.514672 0.796754 0.510103 0.044606
C12   C     C_R   0.515676 0.558187 0.337632 0.909577
C13   C     C_R   0.478759 0.201801 0.494130 0.060171
C14   C     C_R   0.565701 0.891414 0.517536 -0.068519
C15   C     C_R   0.482125 0.121260 0.457410 -0.061325
C16   C     C_R   0.741948 0.500653 0.499950 0.930362
C17   C     C_R   0.257826 0.498980 0.500720 0.913525
C18   C     C_R   0.665498 0.912516 0.579940 0.168372
C19   C     C_R   0.412372 0.107793 0.378504 0.175775
C20   C     C_R   0.520563 0.965477 0.467346 0.089318
C21   C     C_R   0.549862 0.053339 0.495650 0.091300
C22   C     C_R   0.654205 0.072392 0.554663 -0.197515
C23   C     C_R   0.456427 0.473209 0.811772 -0.175247
C24   C     C_R   0.458350 0.957675 0.385664 -0.209501
C25   C     C_R   0.711695 0.003273 0.595479 -0.176397
C26   C     C_R   0.405412 0.027684 0.341970 -0.180904
C27   C     C_3   0.935111 0.434163 0.564955 -0.246939
C28   C     C_3   0.063648 0.564148 0.436841 -0.229348
C29   C     C_3   0.048368 0.516392 0.578737 0.026218
C30   C     C_3   0.950679 0.481994 0.423139 0.025283
C31   C     C_3   0.122122 0.497452 0.501805 0.001804
C32   C     C_3   0.877119 0.501176 0.499905 -0.015713
C33   C     C_3   0.010758 0.414867 0.487113 -0.214981
C34   C     C_R   0.463200 0.529976 0.186701 -0.236182
C35   C     C_3   0.988380 0.583590 0.514674 -0.187696
C36   C     C_R   0.441943 0.408092 0.754829 -0.058839
C37   C     C_R   0.507604 0.593415 0.244172 -0.041972
C38   C     C_R   0.333594 0.290076 0.871381 -0.134637
C39   C     C_R   0.520186 0.718358 0.123575 -0.154694
C40   C     C_R   0.380224 0.316056 0.784813 -0.207443
C41   C     C_R   0.533622 0.687982 0.212712 -0.188922
C42   C     C_2   0.098788 0.535060 0.667781 0.411458
C43   C     C_2   0.900552 0.463587 0.333946 0.385468
C44   C     C_2   0.512703 0.209350 0.586700 0.907782
C45   C     C_R   0.400905 0.450788 0.895970 0.081013
C46   C     C_2   0.389050 0.765438 0.466836 0.942656
C47   C     C_2   0.220323 0.240382 0.055143 0.392746
C48   C     C_2   0.513790 0.779985 0.928295 0.388911
C49   C     C_R   0.443571 0.558501 0.097857 0.070665
C50   C     C_R   0.341876 0.356871 0.928133 0.126602
C51   C     C_R   0.481104 0.654423 0.063975 0.135240
C52   C     C_R   0.412668 0.519714 0.950581 0.073064
H1    H     H_    0.323797 0.311536 0.334796 0.126944
H2    H     H_    0.976858 0.652324 0.526140 0.176098
H3    H     H_    0.448412 0.457408 0.211605 0.167365
H4    H     H_    0.514359 0.542008 0.789904 0.155136
H5    H     H_    0.565046 0.738559 0.256712 0.194414
H6    H     H_    0.367493 0.264345 0.741574 0.207252
H7    H     H_    0.293450 0.217435 0.892891 0.202719
H8    H     H_    0.540218 0.791996 0.103036 0.201166
H9    H     H_    0.299734 0.379312 0.140958 0.130336
H10   H     H_    0.439770 0.638233 0.847091 0.162496
H11   H     H_    0.791759 0.020851 0.640278 0.158293
H12   H     H_    0.719933 0.699126 0.640387 0.138037
H13   H     H_    0.357908 0.018702 0.279483 0.151532
H14   H     H_    0.034103 0.549597 0.714894 0.053447
H15   H     H_    0.964857 0.447844 0.287334 0.057687
H16   H     H_    0.638500 0.269993 0.673235 0.324694
H17   H     H_    0.298501 0.725847 0.357245 0.318364
H18   H     H_    0.226631 0.216505 0.124900 0.052046
H19   H     H_    0.465474 0.800346 0.867964 0.086455
H20   H     H_    0.798380 0.858392 0.671437 0.161709
H21   H     H_    0.301122 0.166689 0.274490 0.137909
H22   H     H_    0.699244 0.141651 0.565688 0.171675
H23   H     H_    0.457458 0.900509 0.351198 0.167696
H24   H     H_    0.879698 0.381788 0.617702 0.173440
H25   H     H_    0.115639 0.615475 0.382496 0.142009
H26   H     H_    0.022474 0.346204 0.475583 0.161194
N1    N     N_R   0.574200 0.731700 0.552740 -0.133738
N2    N     N_R   0.425800 0.268300 0.447260 -0.135594
O1    O     O_R   0.462600 0.383110 0.605620 -0.602533
O2    O     O_2   0.788876 0.466615 0.312948 -0.559294
O3    O     O_2   0.445712 0.155999 0.645138 -0.641871
O4    O     O_R   0.624631 0.273226 0.607463 -0.807587
O5    O     O_2   0.287518 0.771817 0.499875 -0.626671
O6    O     O_R   0.387183 0.733824 0.385950 -0.827035
O7    O     O_2   0.142417 0.192332 0.011307 -0.559002
O8    O     O_2   0.603472 0.836682 0.954701 -0.560896
O9    O     O_R   0.537400 0.616890 0.394380 -0.581191
O10   O     O_R   0.510210 0.531900 0.639510 -0.611227
O11   O     O_R   0.489790 0.468100 0.360490 -0.616798
O12   O     O_R   0.662240 0.425610 0.483080 -0.535679
O13   O     O_R   0.337760 0.574390 0.516920 -0.562501
O14   O     O_R   0.709860 0.574400 0.516970 -0.656089
O15   O     O_R   0.290140 0.425600 0.483030 -0.651312
O16   O     O_2   0.211255 0.533764 0.688044 -0.563054
Zn1   Zn    Zn3+2 0.468210 0.400660 0.477370 0.993423
Zn2   Zn    Zn3+2 0.531790 0.599340 0.522630 0.992937

loop_
_geom_bond_atom_site_label_1
_geom_bond_atom_site_label_2
_ccdc_geom_bond_type
C39   C51   A    
C1    O10   A    
C23   C45   A    
N2    Zn1   S    
C27   C29   S    
C9    H12   S    
C14   C18   A    
N1    Zn2   S    
C44   O3    D    
C23   H4    S    
C39   C41   A    
C27   C33   S    
C15   C19   A    
C5    C47   S    
C6    C48   S    
C4    C52   A    
C42   O16   D    
C24   C26   A    
C9    N1    A    
C29   C42   S    
C11   C14   A    
C33   H26   S    
O14   Zn2   S    
C1    O1    A    
C34   C37   A    
C4    H10   S    
C25   H11   S    
C12   C37   S    
C10   H1    S    
C19   C26   A    
C12   O11   A    
C20   C24   A    
C28   C35   S    
C49   C51   A    
C22   C25   A    
C48   O8    D    
C11   N1    A    
C6    C51   A    
C30   C32   S    
C46   O5    D    
C13   N2    A    
C34   H3    S    
C21   C22   A    
C35   H2    S    
C18   C25   A    
O12   Zn1   S    
C3    H9    S    
C8    C19   A    
C40   H6    S    
H16   O4    S    
C32   C35   S    
C14   C20   A    
C12   O9    A    
C36   C40   A    
C4    C6    A    
C7    H20   S    
C10   N2    A    
C45   C52   A    
C3    C5    A    
C47   O7    D    
C47   H18   S    
C2    C49   A    
C7    C18   A    
C31   C33   S    
O11   Zn1   S    
C28   H25   S    
C2    C52   A    
C17   O15   A    
C43   H15   S    
C16   O12   A    
C13   C15   A    
C17   C31   S    
C30   C43   S    
C17   O13   A    
C22   H22   S    
C48   H19   S    
C27   H24   S    
C7    C9    A    
C34   C49   A    
C30   C33   S    
C27   C32   S    
C26   H13   S    
C28   C31   S    
C44   O4    S    
O15   Zn1   S    
C24   H23   S    
C38   C50   A    
C16   C32   S    
C29   C35   S    
C16   O14   A    
O9    Zn2   S    
C28   C30   S    
C2    C3    A    
C41   H5    S    
C29   C31   S    
C38   C40   A    
O1    Zn1   S    
C45   C50   A    
C39   H8    S    
C8    H21   S    
C37   C41   A    
C5    C50   A    
C38   H7    S    
C15   C21   A    
C20   C21   A    
C8    C10   A    
C23   C36   A    
C42   H14   S    
C43   O2    D    
C11   C46   S    
O13   Zn2   S    
O10   Zn2   S    
C13   C44   S    
H17   O6    S    
C1    C36   S    
C46   O6    S    
