data_mof_unit_28650.cif
_audit_creation_date              2012-12-10T18:04:31-0500
_audit_creation_method            fapswitch 2.2
_symmetry_space_group_name_H-M    P1
_symmetry_Int_Tables_number       1
_space_group_crystal_system       triclinic
_cell_length_a                    10.928013
_cell_length_b                    9.539936
_cell_length_c                    9.07468
_cell_angle_alpha                 89.989366
_cell_angle_beta                  90.231824
_cell_angle_gamma                 90.206251
_cell_volume                      946.044594373

loop_
_atom_site_label
_atom_site_type_symbol
_atom_type_description
_atom_site_fract_x
_atom_site_fract_y
_atom_site_fract_z
_atom_type_partial_charge
C1    C     C_R   0.262401 0.499862 0.500079 0.965332
C2    C     C_R   0.064302 0.621633 0.542393 0.282666
C3    C     C_R   0.873018 0.500870 0.501145 -0.388151
C4    C     C_R   0.128942 0.499998 0.500842 -0.373986
C5    C     C_R   0.459780 0.073998 0.380010 0.070891
C6    C     C_R   0.540218 0.925923 0.619981 0.066713
C7    C     C_R   0.539913 0.074269 0.620115 0.089736
C8    C     C_R   0.459045 0.925606 0.380335 0.029165
C9    C     C_R   0.738295 0.500309 0.500462 0.907793
C10   C     C_R   0.499946 0.500010 0.220658 0.869305
C11   C     C_R   0.500097 0.499989 0.779342 0.858914
C12   C     C_1   0.499912 0.500011 0.065548 -0.134358
C13   C     C_1   0.499972 0.499986 0.934449 -0.138591
C14   C     C_R   0.062404 0.378841 0.460324 0.313623
C15   C     C_R   0.940462 0.628625 0.505121 0.288501
C16   C     C_R   0.939148 0.373003 0.498162 0.222733
Cu1   Cu    Cu3+1 0.500000 0.640660 0.500000 1.045978
Cu2   Cu    Cu3+1 0.500000 0.359340 0.500000 1.061458
H1    H     H_    0.242694 0.242614 0.153900 0.363269
H2    H     H_    0.747073 0.861215 0.284929 0.376231
H3    H     H_    0.846789 0.296396 0.785099 0.343488
H4    H     H_    0.266285 0.754135 0.833013 0.368346
H5    H     H_    0.426759 0.128887 0.283731 0.136595
H6    H     H_    0.573528 0.870966 0.716155 0.139928
H7    H     H_    0.572060 0.129278 0.716841 0.163105
H8    H     H_    0.425079 0.870374 0.284511 0.135624
N1    N     N_R   0.500000 0.852070 0.500000 -0.172764
N2    N     N_R   0.500000 0.147930 0.500000 -0.173054
O1    O     O_R   0.319640 0.618740 0.499990 -0.534501
O2    O     O_2   0.020441 0.176679 0.258934 -0.202811
O3    O     O_3   0.219782 0.319793 0.221243 -0.561547
O4    O     O_2   0.811584 0.858966 0.568071 -0.223603
O5    O     O_2   0.984750 0.888352 0.399794 -0.134230
O6    O     O_3   0.789633 0.770420 0.297233 -0.520740
O7    O     O_2   0.805817 0.140271 0.451452 -0.195669
O8    O     O_2   0.983984 0.116832 0.613983 -0.137010
O9    O     O_3   0.793863 0.241732 0.717204 -0.534928
O10   O     O_2   0.196623 0.859181 0.573153 -0.208511
O11   O     O_2   0.028504 0.822962 0.747015 -0.187818
O12   O     O_R   0.680360 0.381260 0.500010 -0.519863
O13   O     O_3   0.224652 0.675385 0.782043 -0.552005
O14   O     O_R   0.680360 0.618740 0.500010 -0.528450
O15   O     O_R   0.319640 0.381260 0.499990 -0.532248
O16   O     O_R   0.500000 0.618760 0.288390 -0.595924
O17   O     O_R   0.500000 0.381240 0.711610 -0.592864
O18   O     O_R   0.500000 0.618760 0.711610 -0.593091
O19   O     O_R   0.500000 0.381240 0.288390 -0.587948
O20   O     O_2   0.189191 0.139061 0.432786 -0.210792
S1    S     S_3+6 0.122611 0.246816 0.342676 0.086955
S2    S     S_3+6 0.881839 0.792827 0.444454 0.130282
S3    S     S_3+6 0.881189 0.211722 0.568377 0.122899
S4    S     S_3+6 0.128098 0.751652 0.661741 0.095927

loop_
_geom_bond_atom_site_label_1
_geom_bond_atom_site_label_2
_ccdc_geom_bond_type
C5    C8    A    
C2    C4    A    
C6    C7    A    
C3    C9    S    
C5    N2    A    
Cu1   O1    S    
O13   S4    S    
C6    N1    A    
C5    H5    S    
C16   S3    S    
C1    C4    S    
C6    H6    S    
Cu2   O19   S    
C1    O1    A    
O11   S4    D    
Cu1   O16   S    
H1    O3    S    
Cu2   O15   S    
C12   C13   T    
C4    C14   A    
C2    C15   A    
C11   C13   S    
O4    S2    D    
C9    O14   A    
O8    S3    D    
C2    S4    S    
O3    S1    S    
C10   C12   S    
O10   S4    D    
O20   S1    D    
O2    S1    D    
Cu1   Cu2   S    
O7    S3    D    
C8    H8    S    
O9    S3    S    
C14   C16   A    
C11   O17   A    
H4    O13   S    
O6    S2    S    
C3    C16   A    
C10   O16   A    
H2    O6    S    
Cu1   N1    S    
Cu2   O17   S    
Cu2   N2    S    
Cu1   O18   S    
C14   S1    S    
H3    O9    S    
C15   S2    S    
C10   O19   A    
C8    N1    A    
Cu2   O12   S    
Cu1   O14   S    
C3    C15   A    
O5    S2    D    
C1    O15   A    
C9    O12   A    
C7    N2    A    
C11   O18   A    
C7    H7    S    
