data_mof_unit_15490.cif
_audit_creation_date              2013-03-05T15:45:23-0500
_audit_creation_method            fapswitch 2.2
_symmetry_space_group_name_H-M    P1
_symmetry_Int_Tables_number       1
_space_group_crystal_system       triclinic
_cell_length_a                    30.003834
_cell_length_b                    17.032595
_cell_length_c                    19.316054
_cell_angle_alpha                 90.301011
_cell_angle_beta                  140.89187
_cell_angle_gamma                 90.163746
_cell_volume                      6226.23825325

loop_
_atom_site_label
_atom_site_type_symbol
_atom_site_description
_atom_site_fract_x
_atom_site_fract_y
_atom_site_fract_z
_atom_type_partial_charge
C1    C     C_R   0.174274 0.423487 0.814108 -0.106401
C2    C     C_R   0.809796 0.605330 0.206447 -0.138937
C3    C     C_R   0.830779 0.425852 0.186206 -0.130994
C4    C     C_R   0.190597 0.604264 0.795430 -0.119861
C5    C     C_R   0.674481 0.921549 0.814503 -0.123805
C6    C     C_R   0.310412 0.100288 0.200662 -0.072205
C7    C     C_R   0.327418 0.921895 0.185305 -0.099677
C8    C     C_R   0.690329 0.102957 0.796682 -0.141740
H1    H     H_    0.223095 0.456324 0.878519 0.110216
H2    H     H_    0.759449 0.577084 0.155047 0.102911
H3    H     H_    0.786096 0.462853 0.123135 0.109872
H4    H     H_    0.239500 0.574960 0.844293 0.096844
H5    H     H_    0.717330 0.961845 0.876746 0.116336
H6    H     H_    0.259224 0.072282 0.144626 0.087484
H7    H     H_    0.280257 0.955400 0.122546 0.095454
H8    H     H_    0.739083 0.077557 0.837775 0.107453
N1    N     N_R   0.127770 0.430660 0.707120 -0.054878
N2    N     N_R   0.872230 0.569340 0.292880 -0.044339
N3    N     N_R   0.872230 0.430660 0.292880 -0.047927
N4    N     N_R   0.127770 0.569340 0.707120 -0.043170
N5    N     N_R   0.627770 0.930660 0.707120 -0.050927
N6    N     N_R   0.372230 0.069340 0.292880 -0.040763
N7    N     N_R   0.372230 0.930660 0.292880 -0.051996
N8    N     N_R   0.627770 0.069340 0.707120 -0.045557
C9    C     C_R   0.850957 0.591552 0.461430 -0.115499
C10   C     C_R   0.162069 0.397512 0.571273 -0.160783
C11   C     C_R   0.142419 0.583902 0.525115 -0.097472
C12   C     C_R   0.837962 0.397149 0.428710 -0.138222
C13   C     C_R   0.347770 0.093603 0.454452 -0.123434
C14   C     C_R   0.661601 0.898085 0.570022 -0.152473
C15   C     C_R   0.647630 0.090664 0.535545 -0.114141
C16   C     C_R   0.336871 0.895313 0.425948 -0.118179
H9    H     H_    0.802688 0.561863 0.418534 0.101562
H10   H     H_    0.213219 0.425006 0.625192 0.106068
H11   H     H_    0.187076 0.550064 0.562457 0.091402
H12   H     H_    0.787063 0.424352 0.374440 0.101625
H13   H     H_    0.298965 0.064063 0.409510 0.107100
H14   H     H_    0.712522 0.926196 0.623764 0.101505
H15   H     H_    0.695307 0.061385 0.576873 0.100186
H16   H     H_    0.286944 0.924403 0.371765 0.088644
N9    N     N_R   0.889730 0.573880 0.452970 -0.042555
N10   N     N_R   0.110270 0.426120 0.547030 -0.040600
N11   N     N_R   0.110270 0.573880 0.547030 -0.046015
N12   N     N_R   0.889730 0.426120 0.452970 -0.039085
N13   N     N_R   0.389730 0.073880 0.452970 -0.046101
N14   N     N_R   0.610270 0.926120 0.547030 -0.037712
N15   N     N_R   0.610270 0.073880 0.547030 -0.043059
N16   N     N_R   0.389730 0.926120 0.452970 -0.043187
C17   C     C_R   0.922270 0.308408 0.520240 -0.091105
C18   C     C_R   0.057086 0.671448 0.433033 -0.080489
C19   C     C_R   0.077616 0.307830 0.480326 -0.044558
C20   C     C_R   0.938509 0.679219 0.555922 -0.093936
C21   C     C_R   0.420114 0.806649 0.513687 -0.050807
C22   C     C_R   0.560244 0.176803 0.441268 -0.025932
C23   C     C_R   0.577059 0.808247 0.478799 -0.040710
C24   C     C_R   0.433800 0.183170 0.546644 -0.125346
H17   H     H_    0.949599 0.253156 0.551683 0.101437
H18   H     H_    0.020886 0.718711 0.382945 0.114716
H19   H     H_    0.050894 0.251547 0.450394 0.105437
H20   H     H_    0.973405 0.729329 0.603881 0.109198
H21   H     H_    0.446447 0.751954 0.536989 0.091888
H22   H     H_    0.524725 0.225188 0.391701 0.113620
H23   H     H_    0.549772 0.752338 0.447836 0.107708
H24   H     H_    0.465231 0.236357 0.588227 0.114487
N17   N     N_R   0.941150 0.372910 0.507880 -0.042073
N18   N     N_R   0.058850 0.627090 0.492120 -0.046088
N19   N     N_R   0.058850 0.372910 0.492120 -0.049220
N20   N     N_R   0.941150 0.627090 0.507880 -0.043606
N21   N     N_R   0.441150 0.872910 0.507880 -0.046431
N22   N     N_R   0.558850 0.127090 0.492120 -0.049301
N23   N     N_R   0.558850 0.872910 0.492120 -0.048720
N24   N     N_R   0.441150 0.127090 0.507880 -0.048251
C25   C     C_R   0.109531 0.698059 0.709231 -0.092889
C26   C     C_R   0.911465 0.329729 0.274504 -0.076856
C27   C     C_R   0.892982 0.698283 0.295638 -0.121082
C28   C     C_R   0.091769 0.326508 0.726204 -0.113762
C29   C     C_R   0.609116 0.195957 0.715628 -0.082833
C30   C     C_R   0.408954 0.827060 0.273123 -0.087705
C31   C     C_R   0.392383 0.196365 0.290002 -0.071864
C32   C     C_R   0.594972 0.821666 0.726392 -0.071509
H25   H     H_    0.082522 0.753140 0.679515 0.159193
H26   H     H_    0.940018 0.278623 0.293084 0.129733
H27   H     H_    0.921961 0.752844 0.329500 0.159387
H28   H     H_    0.065576 0.273108 0.710890 0.114007
H29   H     H_    0.583144 0.251468 0.690770 0.146325
H30   H     H_    0.437014 0.775408 0.291771 0.143592
H31   H     H_    0.417212 0.253530 0.314774 0.104331
H32   H     H_    0.567128 0.768650 0.707364 0.135758
N25   N     N_R   0.076340 0.631640 0.652210 -0.054193
N26   N     N_R   0.923660 0.368360 0.347790 -0.059648
N27   N     N_R   0.923660 0.631640 0.347790 -0.055331
N28   N     N_R   0.076340 0.368360 0.652210 -0.058695
N29   N     N_R   0.576340 0.131640 0.652210 -0.053958
N30   N     N_R   0.423660 0.868360 0.347790 -0.063587
N31   N     N_R   0.423660 0.131640 0.347790 -0.044987
N32   N     N_R   0.576340 0.868360 0.652210 -0.061363
C33   C     C_R   0.151860 0.360579 0.826436 0.196895
C34   C     C_R   0.821029 0.685841 0.207621 0.104279
C35   C     C_R   0.856744 0.366707 0.173604 0.109254
C36   C     C_R   0.181802 0.684727 0.797681 0.110879
C37   C     C_R   0.655368 0.854561 0.829333 0.134721
C38   C     C_R   0.322774 0.177087 0.197502 0.107882
C39   C     C_R   0.351970 0.861969 0.170904 0.125304
C40   C     C_R   0.681257 0.180652 0.806987 0.126355
C41   C     C_R   0.881489 0.658269 0.527266 0.063367
C42   C     C_R   0.141601 0.323493 0.527032 0.070154
C43   C     C_R   0.108557 0.644343 0.449374 0.060533
C44   C     C_R   0.857806 0.323243 0.472444 0.072401
C45   C     C_R   0.375358 0.162503 0.514515 0.071924
C46   C     C_R   0.641100 0.823896 0.525271 0.073044
C47   C     C_R   0.616374 0.155742 0.468219 0.061326
C48   C     C_R   0.353890 0.818354 0.463052 0.073041
Ni1   Ni    Ni4+2 0.119340 0.500000 0.625930 0.224474
Ni2   Ni    Ni4+2 0.880660 0.500000 0.374070 0.223399
Ni3   Ni    Ni4+2 0.619340 1.000000 0.625930 0.228537
Ni4   Ni    Ni4+2 0.380660 1.000000 0.374070 0.219813
Ni5   Ni    Ni4+2 1.000000 0.373980 0.500000 0.231570
Ni6   Ni    Ni4+2 1.000000 0.626020 0.500000 0.263358
Ni7   Ni    Ni4+2 0.500000 0.873980 0.500000 0.229319
Ni8   Ni    Ni4+2 0.500000 0.126020 0.500000 0.254714
C49   C     C_R   0.807307 0.214258 0.995240 -0.143907
C50   C     C_R   0.260283 0.869603 0.964028 -0.182958
C51   C     C_R   0.219265 0.260100 0.062568 -0.159100
C52   C     C_R   0.764659 0.841951 0.032942 -0.125167
C53   C     C_R   0.309639 0.726854 0.970985 -0.156640
C54   C     C_R   0.767758 0.371018 0.968087 -0.164318
C55   C     C_R   0.696379 0.734230 0.037934 -0.158597
C56   C     C_R   0.254592 0.279958 0.964061 -0.163386
C57   C     C_R   0.856396 0.271130 0.076156 0.282156
C58   C     C_R   0.218742 0.824806 0.867700 0.292899
C59   C     C_R   0.178558 0.309495 0.972933 0.327473
C60   C     C_R   0.796392 0.817379 0.131931 0.277588
C61   C     C_R   0.352867 0.773587 0.066309 0.305627
C62   C     C_R   0.724683 0.320677 0.875661 0.308315
C63   C     C_R   0.656113 0.777837 0.941881 0.315661
C64   C     C_R   0.295081 0.231539 0.053205 0.336931
C65   C     C_R   0.829455 0.340680 0.072092 -0.088550
C66   C     C_R   0.237721 0.746076 0.876888 -0.101112
C67   C     C_R   0.197351 0.319005 0.925698 -0.172017
C68   C     C_R   0.769559 0.748629 0.130386 -0.088400
C69   C     C_R   0.321954 0.836235 0.066554 -0.097538
C70   C     C_R   0.738565 0.238630 0.892510 -0.116791
C71   C     C_R   0.692256 0.824541 0.935411 -0.133690
C72   C     C_R   0.276808 0.222238 0.101224 -0.155509
C73   C     C_R   0.180365 0.276516 0.525558 0.078558
C74   C     C_R   0.850875 0.703523 0.545587 0.062276
C75   C     C_R   0.815840 0.274519 0.467077 0.063138
C76   C     C_R   0.128666 0.674218 0.404073 0.064951
C77   C     C_R   0.681759 0.775741 0.527980 0.079058
C78   C     C_R   0.341293 0.208395 0.525673 0.052516
C79   C     C_R   0.306234 0.760782 0.440420 0.057677
C80   C     C_R   0.645519 0.200357 0.446845 0.077242
C81   C     C_R   0.798838 0.823240 0.524223 -0.243840
C82   C     C_R   0.246023 0.161920 0.571995 -0.228299
C83   C     C_R   0.134365 0.776762 0.323704 -0.246941
C84   C     C_R   0.759373 0.153505 0.434690 -0.242410
C85   C     C_R   0.277386 0.323264 0.483447 -0.243555
C86   C     C_R   0.739198 0.656219 0.561966 -0.243197
C87   C     C_R   0.694516 0.321217 0.461978 -0.240683
C88   C     C_R   0.283107 0.640594 0.477123 -0.243625
C89   C     C_R   0.843060 0.785755 0.531358 0.020349
C90   C     C_R   0.199935 0.198609 0.562233 0.030144
C91   C     C_R   0.100309 0.742878 0.339438 0.050673
C92   C     C_R   0.805968 0.192843 0.446654 0.038281
C93   C     C_R   0.322192 0.286909 0.490853 0.050945
C94   C     C_R   0.692949 0.694807 0.550793 0.046269
C95   C     C_R   0.650983 0.283270 0.456203 0.029228
C96   C     C_R   0.327123 0.684463 0.486713 0.044454
C97   C     C_R   0.819221 0.661151 0.561087 -0.257541
C98   C     C_R   0.204600 0.316390 0.496570 -0.219539
C99   C     C_R   0.184054 0.635820 0.436207 -0.249375
C100  C     C_R   0.779952 0.315410 0.475191 -0.246638
C101  C     C_R   0.318079 0.167846 0.556092 -0.259282
C102  C     C_R   0.715467 0.816640 0.515684 -0.236993
C103  C     C_R   0.678197 0.157692 0.433403 -0.245065
C104  C     C_R   0.238077 0.786335 0.376396 -0.254286
C105  C     C_R   0.774489 0.698621 0.552755 0.163250
C106  C     C_R   0.251434 0.281270 0.508809 0.154873
C107  C     C_R   0.220311 0.672362 0.426386 0.167539
C108  C     C_R   0.731969 0.277627 0.458633 0.167216
C109  C     C_R   0.272349 0.203396 0.546621 0.160206
C110  C     C_R   0.763079 0.779667 0.531150 0.161443
C111  C     C_R   0.722387 0.195824 0.440601 0.159955
C112  C     C_R   0.196707 0.744526 0.373119 0.165950
H33   H     H_    0.188325 0.376338 0.467255 0.137577
H34   H     H_    0.826551 0.598195 0.573756 0.137773
H35   H     H_    0.788889 0.377991 0.493525 0.132907
H36   H     H_    0.203567 0.580045 0.477245 0.121055
H37   H     H_    0.705515 0.878669 0.495851 0.134865
H38   H     H_    0.333246 0.107248 0.582348 0.146765
H39   H     H_    0.218033 0.841782 0.334672 0.124586
H40   H     H_    0.672458 0.094256 0.423927 0.136940
H41   H     H_    0.261004 0.383257 0.454727 0.136165
H42   H     H_    0.748347 0.593854 0.579101 0.140576
H43   H     H_    0.701323 0.384561 0.473298 0.134365
H44   H     H_    0.300213 0.583642 0.515915 0.133729
H45   H     H_    0.790494 0.886008 0.509729 0.133428
H46   H     H_    0.262239 0.101998 0.600926 0.148442
H47   H     H_    0.114674 0.831156 0.278621 0.141660
H48   H     H_    0.751546 0.090537 0.420040 0.139820
C113  C     C_1   0.825837 0.132980 0.027079 0.196154
N33   N     N_1   0.841353 0.068219 0.054268 -0.045271
C114  C     C_1   0.243746 0.951457 0.954935 0.269813
N34   N     N_1   0.229955 0.016927 0.946352 -0.044172
C115  C     C_1   0.205034 0.251794 0.118808 0.204319
N35   N     N_1   0.193910 0.245090 0.164005 -0.063229
C116  C     C_1   0.810093 0.870903 0.033029 0.167308
N36   N     N_1   0.846633 0.893149 0.033126 -0.069006
C117  C     C_1   0.341523 0.667538 0.966061 0.216829
N37   N     N_1   0.367598 0.620534 0.962644 -0.066891
C118  C     C_1   0.753493 0.454132 0.955076 0.218473
N38   N     N_1   0.742124 0.520706 0.944471 -0.071359
C119  C     C_1   0.662203 0.682418 0.045718 0.218819
N39   N     N_1   0.634695 0.641171 0.051912 -0.067102
C120  C     C_1   0.268791 0.284419 0.907275 0.202799
N40   N     N_1   0.279932 0.287911 0.861869 -0.072201
N41   N     N_R   0.931796 0.261262 0.158397 0.231813
O1    O     O_R   0.958480 0.193845 0.173351 -0.388147
O2    O     O_R   0.973110 0.322893 0.207196 -0.395747
N42   N     N_R   0.162432 0.860952 0.761869 0.227097
O3    O     O_R   0.116506 0.905054 0.737799 -0.409635
O4    O     O_R   0.155943 0.848004 0.687865 -0.382319
N43   N     N_R   0.118630 0.349601 0.929591 0.237529
O5    O     O_R   0.072943 0.311914 0.912599 -0.386536
O6    O     O_R   0.108718 0.423605 0.904838 -0.387607
N44   N     N_R   0.849459 0.865230 0.229973 0.233358
O7    O     O_R   0.884332 0.919476 0.238801 -0.375900
O8    O     O_R   0.855109 0.862776 0.303874 -0.395010
N45   N     N_R   0.428173 0.762603 0.157482 0.224956
O9    O     O_R   0.454740 0.692811 0.195599 -0.419368
O10   O     O_R   0.470572 0.822938 0.203097 -0.382720
N46   N     N_R   0.670157 0.352542 0.766951 0.226116
O11   O     O_R   0.626450 0.404399 0.738428 -0.411465
O12   O     O_R   0.664420 0.329664 0.695905 -0.413581
N47   N     N_R   0.580171 0.775623 0.853481 0.227855
O13   O     O_R   0.546104 0.709100 0.817070 -0.415353
O14   O     O_R   0.544870 0.840762 0.811358 -0.387141
N48   N     N_R   0.355009 0.192131 0.095634 0.234930
O15   O     O_R   0.360494 0.116218 0.106186 -0.392198
O16   O     O_R   0.404381 0.232372 0.124046 -0.404351
C121  C     C_1   0.176879 0.157380 0.595679 0.094093
N49   N     N_1   0.158445 0.124368 0.622585 -0.038357
C122  C     C_1   0.875212 0.832850 0.516463 0.100793
N50   N     N_1   0.901059 0.871163 0.505075 0.006192
C123  C     C_1   0.839918 0.149116 0.432962 0.065284
N51   N     N_1   0.867012 0.113871 0.421840 -0.040168
C124  C     C_1   0.037799 0.781687 0.288707 0.065902
N52   N     N_1   0.987623 0.813620 0.247095 -0.049408
C125  C     C_1   0.660981 0.651389 0.568293 0.070801
N53   N     N_1   0.635474 0.616439 0.582475 -0.051895
C126  C     C_1   0.342828 0.329040 0.454059 0.060715
N54   N     N_1   0.359231 0.362793 0.424418 -0.067979
C127  C     C_1   0.393178 0.648741 0.547573 0.113380
N55   N     N_1   0.445757 0.618693 0.596419 -0.038018
C128  C     C_1   0.617460 0.331234 0.467942 0.128414
N56   N     N_1   0.590559 0.370337 0.476773 -0.019651

loop_
_geom_bond_atom_site_label_1
_geom_bond_atom_site_label_2
_geom_bond_distance
_ccdc_geom_bond_type
C25   C36   1.389247 A    
C114  N34   1.157724 T    
C54   C65   1.405232 A    
C64   N48   1.442573 S    
C2    N2    1.354983 A    
N47   O14   1.301393 A    
C113  N33   1.157082 T    
N32   Ni7   1.858195 S    
C91   C124  1.441006 S    
N43   O5    1.301295 A    
N9    Ni2   1.820572 S    
N5    Ni3   1.823152 S    
C46   C77   1.439026 S    
C21   N21   1.338590 A    
C47   C80   1.439561 S    
C10   C42   1.366262 A    
N42   O4    1.301706 A    
N1    Ni1   1.823152 S    
C126  N54   1.157449 T    
C88   C107  1.396051 A    
C9    N9    1.329329 A    
C119  N39   1.157535 T    
C75   C100  1.390732 A    
C87   H43   1.086514 S    
C52   C60   1.386754 A    
C125  N53   1.157406 T    
C86   H42   1.085167 S    
C42   C73   1.431862 S    
C17   N17   1.339398 A    
N14   Ni3   1.820573 S    
C98   C106  1.370767 A    
C85   H41   1.085881 S    
N2    N27   1.439079 A    
C13   C45   1.377738 A    
C86   C105  1.401366 A    
C55   C63   1.412307 A    
C97   H34   1.085671 S    
C121  N49   1.157412 T    
C54   C118  1.445905 S    
C56   C64   1.376668 A    
N4    Ni1   1.811503 S    
C82   H46   1.085163 S    
C6    H6    1.080936 S    
C73   C90   1.405786 A    
C96   C127  1.441794 S    
C100  H35   1.086516 S    
C122  N50   1.157147 T    
C6    N6    1.333842 A    
C82   C109  1.401583 A    
C101  H38   1.086105 S    
C76   C99   1.408711 A    
C17   H17   1.079078 S    
C14   H14   1.081825 S    
C77   C102  1.391051 A    
N6    N31   1.439079 A    
C97   C105  1.380318 A    
N46   O11   1.301487 A    
C57   N41   1.448261 S    
C20   H20   1.078987 S    
N20   Ni6   1.886409 S    
N7    Ni4   1.811502 S    
N48   O15   1.300935 A    
C80   C103  1.397872 A    
C21   H21   1.073041 S    
C10   H10   1.081446 S    
N22   Ni8   1.886324 S    
C102  C110  1.367980 A    
C24   N24   1.331019 A    
C23   H23   1.079101 S    
C51   C72   1.401772 A    
C12   N12   1.318821 A    
N47   O13   1.301007 A    
C24   H24   1.080327 S    
C52   C71   1.412590 A    
C3    N3    1.349015 A    
C127  N55   1.157833 T    
C58   C66   1.415637 A    
N29   Ni8   1.855927 S    
C62   N46   1.437407 S    
C32   N32   1.330286 A    
C87   C108  1.391090 A    
C5    H5    1.075599 S    
C20   N20   1.327263 A    
C108  C111  1.408014 A    
C27   N27   1.315103 A    
C88   H44   1.086056 S    
C44   C75   1.440647 S    
C30   H30   1.072125 S    
N6    Ni4   1.823149 S    
C29   H29   1.077072 S    
C6    C38   1.373167 A    
C8    H8    1.078106 S    
C7    C39   1.407547 A    
C123  N51   1.157505 T    
C32   H32   1.078934 S    
N13   N24   1.330038 A    
C16   N16   1.330683 A    
C99   C107  1.387212 A    
N12   N17   1.343572 A    
C84   H48   1.085226 S    
N1    N28   1.439080 A    
C38   C72   1.411628 S    
C26   H26   1.072764 S    
N17   Ni5   1.886327 S    
C39   C69   1.495752 S    
C25   H25   1.074462 S    
N42   O3    1.301724 A    
C84   C111  1.401582 A    
C14   N14   1.319914 A    
N9    N20   1.330038 A    
C5    C37   1.402625 A    
C105  C110  1.408540 A    
N16   N21   1.343572 A    
C74   C89   1.413570 A    
N48   O16   1.301503 A    
C28   H28   1.079200 S    
N27   Ni6   1.858197 S    
C94   C125  1.443220 S    
C95   C128  1.444691 S    
C9    C41   1.385161 A    
C116  N36   1.157567 T    
C18   H18   1.070596 S    
N26   Ni5   1.855930 S    
C12   H12   1.081900 S    
C1    H1    1.079865 S    
C1    C33   1.379901 A    
C103  H40   1.085597 S    
C59   C67   1.405769 A    
C53   C117  1.445909 S    
C83   C112  1.397113 A    
C55   C119  1.445111 S    
C104  H39   1.078044 S    
C7    H7    1.071113 S    
C22   H22   1.077686 S    
C51   C115  1.450383 S    
C83   C91   1.396394 A    
C28   C33   1.378711 A    
C115  N35   1.157444 T    
C78   C93   1.408843 A    
C50   C58   1.406533 A    
N21   Ni7   1.886327 S    
C27   C34   1.376071 A    
C13   N13   1.325493 A    
C50   C114  1.446410 S    
N15   Ni3   1.832675 S    
N28   Ni5   1.858195 S    
C25   N25   1.327745 A    
N15   N22   1.343570 A    
C31   N31   1.317261 A    
N45   O9    1.301677 A    
C60   N44   1.443158 S    
C62   C70   1.424797 A    
C18   N18   1.338576 A    
N30   Ni7   1.855930 S    
N10   Ni1   1.820573 S    
C118  N38   1.157727 T    
C22   N22   1.325094 A    
N45   O10   1.301631 A    
C11   C43   1.395513 A    
C17   C44   1.375221 A    
C13   H13   1.081393 S    
N24   Ni8   1.886409 S    
N46   O12   1.300816 A    
C117  N37   1.157824 T    
C48   C79   1.488149 S    
C5    N5    1.335613 A    
C31   C38   1.364167 A    
C19   N19   1.340749 A    
C81   C110  1.392521 A    
C90   C121  1.443820 S    
C58   N42   1.439319 S    
C92   C123  1.443139 S    
C8    C40   1.395832 A    
C54   C62   1.410548 A    
N14   N23   1.330036 A    
C31   H31   1.081545 S    
C36   C66   1.495701 S    
C28   N28   1.323273 A    
C99   H36   1.079114 S    
C21   C48   1.390242 A    
C14   C46   1.371595 A    
C20   C41   1.373097 A    
N44   O8    1.301245 A    
C4    C36   1.403216 A    
C52   C116  1.447091 S    
C19   H19   1.080035 S    
C18   C43   1.395302 A    
C53   C66   1.410894 A    
C40   C70   1.491870 S    
C56   C120  1.454745 S    
C4    H4    1.073679 S    
C55   C68   1.406213 A    
C85   C93   1.385097 A    
C128  N56   1.157454 T    
N19   Ni5   1.886406 S    
C82   C90   1.392762 A    
C24   C45   1.374473 A    
C27   H27   1.074182 S    
C16   H16   1.077716 S    
C83   H47   1.085776 S    
N2    Ni2   1.823149 S    
C10   N10   1.322659 A    
C103  C111  1.380974 A    
C107  C112  1.399429 A    
C53   C61   1.406649 A    
C104  C112  1.387222 A    
C3    C35   1.406133 A    
C73   C98   1.391610 A    
C15   C47   1.388439 A    
C79   C104  1.409496 A    
C16   C48   1.392260 A    
C51   C59   1.391636 A    
C30   C39   1.398006 A    
C93   C126  1.445370 S    
C76   C91   1.422247 A    
C1    N1    1.327120 A    
C49   C70   1.423340 A    
C56   C67   1.406304 A    
C77   C94   1.409471 A    
C49   C57   1.397821 A    
C59   N43   1.441326 S    
C124  N52   1.157449 T    
N43   O6    1.301401 A    
C26   C35   1.394163 A    
N5    N32   1.439080 A    
N23   Ni7   1.886406 S    
N31   Ni8   1.858197 S    
C60   C68   1.406150 A    
N4    N25   1.453726 A    
C61   C69   1.418206 A    
N3    Ni2   1.811502 S    
N7    N30   1.453725 A    
N16   Ni4   1.832676 S    
C32   C37   1.393570 A    
C75   C92   1.410386 A    
C11   H11   1.075471 S    
C87   C95   1.380073 A    
C26   N26   1.325055 A    
C45   C78   1.430628 S    
N41   O1    1.301081 A    
C49   C113  1.444495 S    
C23   C46   1.373587 A    
N3    N26   1.453725 A    
N8    N29   1.453726 A    
N11   Ni1   1.832675 S    
C84   C92   1.395882 A    
C43   C76   1.486910 S    
C37   C71   1.476374 S    
N13   Ni4   1.820572 S    
C100  C108  1.366392 A    
N10   N19   1.330036 A    
C30   N30   1.330280 A    
C19   C42   1.370179 A    
C7    N7    1.344479 A    
C41   C74   1.438313 S    
C98   H33   1.086968 S    
C29   N29   1.333403 A    
C63   C71   1.425059 A    
C8    N8    1.337138 A    
C15   H15   1.080890 S    
C22   C47   1.371413 A    
C63   N47   1.438642 S    
C85   C106  1.396562 A    
C88   C96   1.396420 A    
C120  N40   1.157550 T    
C101  C109  1.378080 A    
N41   O2    1.302254 A    
C12   C44   1.373901 A    
C61   N45   1.439544 S    
C89   C122  1.444157 S    
C106  C109  1.410751 A    
C3    H3    1.075602 S    
C102  H37   1.086582 S    
N12   Ni2   1.832676 S    
C4    N4    1.345269 A    
C86   C94   1.395016 A    
C11   N11   1.331273 A    
C81   H45   1.086250 S    
C78   C101  1.394282 A    
C57   C65   1.403878 A    
N25   Ni6   1.855927 S    
C2    C34   1.407039 A    
N8    Ni3   1.811503 S    
C64   C72   1.405803 A    
N44   O7    1.301338 A    
N18   Ni6   1.886324 S    
C74   C97   1.397198 A    
C34   C68   1.484924 S    
C80   C95   1.415617 A    
C35   C65   1.486252 S    
C29   C40   1.395507 A    
C15   N15   1.331243 A    
C50   C69   1.414123 A    
C33   C67   1.413877 S    
C81   C89   1.381691 A    
C23   N23   1.340275 A    
C79   C96   1.424533 A    
N11   N18   1.343570 A    
C9    H9    1.081133 S    
C2    H2    1.078141 S    
