data_mof_unit_32579.cif
_audit_creation_date              2012-12-11T17:43:57-0500
_audit_creation_method            fapswitch 2.2
_symmetry_space_group_name_H-M    P1
_symmetry_Int_Tables_number       1
_space_group_crystal_system       triclinic
_cell_length_a                    20.51758
_cell_length_b                    22.668569
_cell_length_c                    6.926828
_cell_angle_alpha                 90.578454
_cell_angle_beta                  87.793895
_cell_angle_gamma                 89.910844
_cell_volume                      3219.13862311

loop_
_atom_site_label
_atom_site_type_symbol
_atom_type_description
_atom_site_fract_x
_atom_site_fract_y
_atom_site_fract_z
_atom_type_partial_charge
O1    O     O_R   0.751270 0.447300 0.600030 -0.531257
O2    O     O_R   0.248730 0.947300 0.399970 -0.524305
O3    O     O_R   0.613530 0.440160 0.952150 -0.543422
O4    O     O_R   0.386470 0.940160 0.047850 -0.542704
O5    O     O_R   0.613050 0.552700 0.122560 -0.520795
O6    O     O_R   0.386950 0.052700 0.877440 -0.520004
C1    C     C_R   0.592196 0.425577 0.784626 0.739420
C2    C     C_R   0.407686 0.925424 0.214266 0.738544
O7    O     O_R   0.750780 0.440350 0.929820 -0.528565
O8    O     O_R   0.249220 0.940350 0.070180 -0.535848
O9    O     O_R   0.751280 0.552900 0.100070 -0.522178
O10   O     O_R   0.248720 0.052900 0.899930 -0.525318
C3    C     C_R   0.773657 0.425576 0.756931 0.754467
C4    C     C_R   0.226181 0.925903 0.240764 0.766280
O11   O     O_R   0.613040 0.447100 0.622520 -0.544740
O12   O     O_R   0.386960 0.947100 0.377480 -0.545135
O13   O     O_3   0.682160 0.536920 0.777780 -0.349624
O14   O     O_3   0.317840 0.036920 0.222220 -0.349081
V1    V     V_3+5 0.682160 0.493150 0.052630 1.594236
V2    V     V_3+5 0.317840 0.993150 0.947370 1.593453
O15   O     O_R   0.750790 0.559840 0.429870 -0.530131
O16   O     O_R   0.249210 0.059840 0.570130 -0.525547
C5    C     C_R   0.777709 0.569816 0.260227 0.830569
C6    C     C_R   0.221850 0.069140 0.741910 0.832354
O17   O     O_R   0.613540 0.559650 0.452200 -0.531556
O18   O     O_R   0.386460 0.059650 0.547800 -0.533118
C7    C     C_R   0.593998 0.576784 0.285023 0.695575
C8    C     C_R   0.405673 0.076881 0.716312 0.694439
V3    V     V_3+5 0.682160 0.506850 0.552630 1.613301
V4    V     V_3+5 0.317840 0.006850 0.447370 1.618348
O19   O     O_3   0.682150 0.463080 0.277610 -0.371410
O20   O     O_3   0.317850 0.963080 0.722390 -0.372806
C9    C     C_R   0.573095 0.870788 0.330821 -0.108493
C10   C     C_R   0.426161 0.370530 0.670130 -0.108199
H1    H     H_    0.619223 0.889392 0.370167 0.221144
H2    H     H_    0.379918 0.389031 0.631869 0.220878
C11   C     C_R   0.464390 0.886643 0.223195 -0.106750
C12   C     C_R   0.535485 0.386793 0.773593 -0.108127
C13   C     C_R   0.478472 0.598333 0.255892 -0.133242
C14   C     C_R   0.521058 0.098495 0.746063 -0.132187
C15   C     C_R   0.424087 0.634572 0.262926 -0.132721
C16   C     C_R   0.575357 0.134602 0.736191 -0.135320
C17   C     C_R   0.429833 0.695600 0.287656 -0.001479
C18   C     C_R   0.569306 0.195387 0.709901 -0.003395
C19   C     C_R   0.493022 0.722435 0.283787 0.020126
C20   C     C_R   0.506068 0.222326 0.717139 0.021163
C21   C     C_R   0.549175 0.684464 0.288278 -0.061360
C22   C     C_R   0.449892 0.184462 0.716101 -0.060389
C23   C     C_R   0.502918 0.785337 0.274527 0.048413
C24   C     C_R   0.496289 0.285273 0.725870 0.049183
C25   C     C_R   0.564182 0.809228 0.321991 0.006338
C26   C     C_R   0.434773 0.308988 0.681077 0.005383
C27   C     C_R   0.617261 0.771690 0.346114 0.342319
C28   C     C_R   0.381305 0.271444 0.661758 0.343011
C29   C     C_R   0.611190 0.711279 0.305413 -0.094136
C30   C     C_R   0.387567 0.211227 0.702899 -0.098107
C31   C     C_R   0.455203 0.825378 0.211613 -0.148186
C32   C     C_R   0.544493 0.325558 0.785924 -0.146256
C33   C     C_R   0.523985 0.909845 0.283388 -0.062810
C34   C     C_R   0.475717 0.409758 0.714313 -0.062420
C35   C     C_R   0.540729 0.621370 0.277769 -0.057417
C36   C     C_R   0.458652 0.121461 0.725942 -0.055009
H3    H     H_    0.410314 0.810140 0.152336 0.110928
H4    H     H_    0.589614 0.310446 0.843598 0.110805
H5    H     H_    0.471480 0.551078 0.242618 0.150077
H6    H     H_    0.528225 0.051311 0.758917 0.151809
H7    H     H_    0.376443 0.614033 0.260688 0.178394
H8    H     H_    0.623075 0.114015 0.736163 0.178554
C37   C     C_R   0.170683 0.882591 0.246721 -0.172869
C38   C     C_R   0.829534 0.382289 0.737468 -0.185736
C39   C     C_R   0.128971 0.882809 0.090334 -0.152245
C40   C     C_R   0.875615 0.380947 0.882696 -0.157829
C41   C     C_R   0.081081 0.839397 0.065082 -0.136902
C42   C     C_R   0.930659 0.343237 0.871179 -0.114775
C43   C     C_R   0.074073 0.793676 0.201399 0.299458
C44   C     C_R   0.938184 0.302844 0.713682 0.309188
C45   C     C_R   0.113708 0.793893 0.364603 0.334933
C46   C     C_R   0.892293 0.303536 0.567953 0.356860
C47   C     C_R   0.161001 0.838820 0.390687 -0.142667
C48   C     C_R   0.839245 0.343608 0.575525 -0.146704
C49   C     C_R   0.896354 0.686431 0.427427 -0.130479
C50   C     C_R   0.093661 0.184950 0.623806 -0.116612
C51   C     C_R   0.846827 0.644759 0.423096 -0.097672
C52   C     C_R   0.146243 0.145332 0.606955 -0.110949
C53   C     C_R   0.938471 0.695902 0.268057 0.302660
C54   C     C_R   0.054036 0.188331 0.794736 0.308683
N1    N     N_2   0.030583 0.745824 0.166438 -0.120251
N2    N     N_2   0.993827 0.264922 0.687582 -0.194310
N3    N     N_2   0.985275 0.742350 0.291117 -0.191981
N4    N     N_2   0.999149 0.227768 0.818379 -0.155240
C55   C     C_R   0.835013 0.611526 0.255292 -0.204943
C56   C     C_R   0.162508 0.108612 0.761064 -0.199170
H9    H     H_    0.816147 0.640085 0.552661 0.223495
H10   H     H_    0.175205 0.144418 0.472937 0.218984
H11   H     H_    0.901759 0.712316 0.558170 0.204748
H12   H     H_    0.084109 0.212777 0.501991 0.213989
C57   C     C_R   0.878441 0.618796 0.092841 0.262663
C58   C     C_R   0.121321 0.110392 0.931140 0.264846
C59   C     C_R   0.930076 0.660767 0.097974 0.367898
C60   C     C_R   0.067935 0.150031 0.946464 0.340932
H13   H     H_    0.133993 0.917832 0.985604 0.223728
H14   H     H_    0.870613 0.412388 0.001045 0.217070
C61   C     C_2   0.537465 0.974540 0.293660 0.748170
O21   O     O_2   0.505688 0.009458 0.201886 -0.559662
O22   O     O_R   0.588045 0.995484 0.405398 -0.652911
H15   H     H_    0.593217 0.039894 0.398316 0.311156
C62   C     C_2   0.462351 0.474412 0.702622 0.747740
O23   O     O_2   0.494358 0.509982 0.792965 -0.559904
O24   O     O_R   0.411582 0.494600 0.591225 -0.652255
H16   H     H_    0.406473 0.539084 0.597319 0.311373
Cl1   Cl    Cl    0.104116 0.736719 0.535558 -0.468015
Cl2   Cl    Cl    0.903094 0.253887 0.370470 -0.475772
C63   C     C_2   0.199379 0.838904 0.567910 0.843112
O25   O     O_2   0.199027 0.882410 0.673336 -0.545789
O26   O     O_R   0.233391 0.788396 0.619649 -0.620548
H17   H     H_    0.256370 0.793695 0.745658 0.321013
C64   C     C_2   0.796223 0.344808 0.409098 0.848921
O27   O     O_2   0.797632 0.387069 0.301123 -0.546951
O28   O     O_R   0.757637 0.295952 0.367856 -0.625800
H18   H     H_    0.731931 0.301464 0.247187 0.321003
Cl3   Cl    Cl    0.871007 0.573682 0.885052 -0.596075
Cl4   Cl    Cl    0.132736 0.061377 0.124356 -0.594312
C65   C     C_2   0.038548 0.843441 0.895378 0.924588
O29   O     O_2   0.052411 0.877585 0.764491 -0.538274
O30   O     O_R   0.981938 0.809473 0.885404 -0.610568
H19   H     H_    0.957878 0.816183 0.762337 0.329397
C66   C     C_2   0.981022 0.349963 0.019133 0.932352
O31   O     O_2   0.966596 0.372928 0.175625 -0.531858
O32   O     O_R   0.045433 0.332156 0.978770 -0.624553
H20   H     H_    0.074655 0.339248 0.091424 0.330407
Cl5   Cl    Cl    0.981895 0.667485 0.889278 -0.439244
Cl6   Cl    Cl    0.017195 0.151808 0.158135 -0.447203
Cl7   Cl    Cl    0.695059 0.801031 0.401746 -0.551087
Cl8   Cl    Cl    0.303073 0.300877 0.612469 -0.545529
C67   C     C_2   0.368557 0.727111 0.343130 0.759910
O33   O     O_2   0.367451 0.763164 0.475766 -0.547720
O34   O     O_R   0.311593 0.714195 0.246541 -0.639581
H21   H     H_    0.273042 0.739047 0.293959 0.333913
C68   C     C_2   0.629968 0.226274 0.647530 0.761029
O35   O     O_2   0.629367 0.261419 0.514834 -0.545424
O36   O     O_R   0.688277 0.213674 0.737007 -0.640185
H22   H     H_    0.726354 0.237731 0.683940 0.337075
C69   C     C_2   0.671729 0.680783 0.251914 0.787631
O37   O     O_2   0.711491 0.672771 0.374922 -0.547573
O38   O     O_R   0.686367 0.668477 0.056940 -0.641080
H23   H     H_    0.734202 0.659750 0.029443 0.306331
C70   C     C_2   0.327386 0.181105 0.762422 0.788856
O39   O     O_2   0.285061 0.174187 0.645799 -0.545900
O40   O     O_R   0.316359 0.167356 0.957153 -0.641978
H24   H     H_    0.269102 0.157828 0.990287 0.307007

loop_
_geom_bond_atom_site_label_1
_geom_bond_atom_site_label_2
_ccdc_geom_bond_type
C16   H8    S    
O13   V3    S    
O22   H15   S    
C70   O39   D    
O4    C2    A    
V1    O19   S    
O38   H23   S    
C56   C58   A    
C65   O29   D    
C15   H7    S    
O9    V1    S    
C42   C44   A    
O16   C6    A    
C70   O40   S    
C44   C46   A    
C63   O25   D    
O3    C1    A    
C64   O28   S    
C49   H11   S    
C46   C48   A    
C65   O30   S    
C3    C38   S    
O12   V4    S    
C69   O37   D    
C28   Cl8   S    
C69   O38   S    
C14   C36   A    
C29   C69   S    
C22   C30   A    
O10   C6    A    
C19   C21   A    
C37   C39   A    
O7    C3    A    
C57   Cl3   S    
C10   C26   A    
C7    C35   S    
C57   C59   A    
O5    C7    A    
O40   H24   S    
O7    V1    S    
O6    C8    A    
C18   C20   A    
C23   C25   A    
C45   Cl1   S    
C24   C26   A    
C62   O23   D    
O3    V1    S    
O14   V4    S    
C54   C60   A    
C44   N2    S    
C10   H2    S    
C27   C29   A    
C39   H13   S    
C2    O12   A    
C12   C32   A    
C10   C34   A    
C15   C17   A    
C16   C18   A    
C6    C56   S    
C49   C51   A    
C26   C28   A    
O11   V3    S    
C20   C22   A    
C45   C47   A    
O17   V3    S    
C13   C35   A    
C28   C30   A    
C50   H12   S    
C38   C48   A    
C24   C32   A    
C67   O33   D    
C27   Cl7   S    
C40   C42   A    
C54   N4    S    
O8    V2    S    
C39   C41   A    
C53   N3    S    
O13   V1    S    
C1    O11   A    
C32   H4    S    
C41   C65   S    
C50   C54   A    
O15   V3    S    
C38   C40   A    
C9    C25   A    
C25   C27   A    
C66   O32   S    
C53   C59   A    
C17   C19   A    
C22   C36   A    
C42   C66   S    
C19   C23   A    
C68   O35   D    
O10   V2    S    
O1    V3    S    
C61   O22   S    
C52   H10   S    
C55   C57   A    
C17   C67   S    
C43   C45   A    
C11   C33   A    
C34   C62   S    
C12   C34   A    
C43   N1    S    
N2    N4    D    
O18   V4    S    
C18   C68   S    
C50   C52   A    
C47   C63   S    
O8    C4    A    
O30   H19   S    
C4    C37   S    
C5    C55   S    
C37   C47   A    
O1    C3    A    
C2    C11   S    
C41   C43   A    
C66   O31   D    
C51   C55   A    
C21   C29   A    
O32   H20   S    
V2    O20   S    
C67   O34   S    
C20   C24   A    
C48   C64   S    
O16   V4    S    
O18   C8    A    
C31   H3    S    
C14   C16   A    
C21   C35   A    
C23   C31   A    
C46   Cl2   S    
O28   H18   S    
C60   Cl6   S    
O5    V1    S    
O17   C7    A    
O6    V2    S    
O34   H21   S    
C13   H5    S    
C58   C60   A    
C59   Cl5   S    
O2    V4    S    
C33   C61   S    
C30   C70   S    
O15   C5    A    
V3    O19   S    
C64   O27   D    
V4    O20   S    
C68   O36   S    
C62   O24   S    
C40   H14   S    
O9    C5    A    
C9    H1    S    
C1    C12   S    
O14   V2    S    
O2    C4    A    
C11   C31   A    
O4    V2    S    
C13   C15   A    
C58   Cl4   S    
C9    C33   A    
O24   H16   S    
C61   O21   D    
N1    N3    D    
C14   H6    S    
C52   C56   A    
O36   H22   S    
C49   C53   A    
O26   H17   S    
C8    C36   S    
C63   O26   S    
C51   H9    S    
