data_mof_unit_41299.cif
_audit_creation_date              2012-12-11T14:40:40-0500
_audit_creation_method            fapswitch 2.2
_symmetry_space_group_name_H-M    P1
_symmetry_Int_Tables_number       1
_space_group_crystal_system       monoclinic
_cell_length_a                    24.895413
_cell_length_b                    17.695992
_cell_length_c                    15.774401
_cell_angle_alpha                 90.0
_cell_angle_beta                  130.767419
_cell_angle_gamma                 90.0
_cell_volume                      5263.24050604

loop_
_atom_site_label
_atom_site_type_symbol
_atom_type_description
_atom_site_fract_x
_atom_site_fract_y
_atom_site_fract_z
_atom_type_partial_charge
C1    C     C_R   0.353161 0.357519 0.244865 -0.143286
C2    C     C_R   0.680162 0.627297 0.501417 -0.046596
C3    C     C_3   0.258140 0.095632 0.709667 -1.131514
C4    C     C_3   0.245338 0.404310 0.289311 -1.117126
C5    C     C_3   0.245339 0.595690 0.289311 -1.117126
C6    C     C_3   0.745339 0.904310 0.289311 -1.117126
C7    C     C_3   0.745339 0.095689 0.289311 -1.117125
C8    C     C_R   0.180162 0.872702 0.501417 -0.046596
C9    C     C_R   0.180162 0.127298 0.501417 -0.046596
C10   C     C_R   0.327638 0.355963 0.495043 -0.050792
C11   C     C_R   0.327638 0.644037 0.495043 -0.050792
C12   C     C_R   0.827638 0.855962 0.495043 -0.050792
C13   C     C_R   0.827638 0.144037 0.495043 -0.050792
C14   C     C_3   0.338600 0.226580 0.560897 -0.403877
C15   C     C_3   0.338600 0.773420 0.560898 -0.403877
C16   C     C_3   0.838600 0.726580 0.560898 -0.403878
C17   C     C_R   0.353161 0.642481 0.244865 -0.143285
C18   C     C_3   0.838600 0.273420 0.560898 -0.403877
C19   C     C_3   0.800150 0.664443 0.570763 -0.414611
C20   C     C_3   0.800150 0.335557 0.570763 -0.414612
C21   C     C_3   0.300150 0.164443 0.570763 -0.414611
C22   C     C_3   0.300150 0.835557 0.570763 -0.414610
C23   C     C_3   0.258773 0.323057 0.550207 -0.413225
C24   C     C_3   0.258773 0.676943 0.550206 -0.413224
C25   C     C_3   0.758773 0.823057 0.550206 -0.413224
C26   C     C_3   0.758773 0.176943 0.550206 -0.413224
C27   C     C_3   0.225774 0.266956 0.374858 -0.403166
C28   C     C_R   0.853161 0.857520 0.244865 -0.143285
C29   C     C_3   0.225774 0.733044 0.374858 -0.403168
C30   C     C_3   0.725774 0.766955 0.374858 -0.403167
C31   C     C_3   0.725774 0.233044 0.374858 -0.403168
C32   C     C_3   0.288055 0.294917 0.494771 0.413464
C33   C     C_3   0.288055 0.705083 0.494771 0.413464
C34   C     C_3   0.788055 0.794917 0.494771 0.413464
C35   C     C_3   0.788054 0.205082 0.494771 0.413463
C36   C     C_3   0.721007 0.685939 0.499848 0.429394
C37   C     C_3   0.721007 0.314060 0.499848 0.429394
C38   C     C_3   0.221007 0.185940 0.499848 0.429395
C39   C     C_R   0.853161 0.142481 0.244865 -0.143286
C40   C     C_3   0.221007 0.814061 0.499848 0.429394
C41   C     C_3   0.714853 0.760274 0.545996 -0.397066
C42   C     C_3   0.714853 0.239726 0.545997 -0.397065
C43   C     C_3   0.214853 0.260274 0.545997 -0.397065
C44   C     C_3   0.214853 0.739726 0.545997 -0.397064
C45   C     C_R   0.665584 0.386924 0.797881 -0.130167
C46   C     C_R   0.665584 0.613076 0.797881 -0.130166
C47   C     C_R   0.165584 0.886924 0.797881 -0.130166
C48   C     C_R   0.165584 0.113076 0.797881 -0.130166
C49   C     C_3   0.689413 0.700154 0.378028 -0.437096
C50   C     C_R   0.645103 0.366261 0.857885 0.143132
C51   C     C_3   0.689412 0.299845 0.378028 -0.437096
C52   C     C_3   0.189412 0.200155 0.378028 -0.437098
C53   C     C_3   0.189412 0.799845 0.378028 -0.437096
C54   C     C_2   0.691971 0.336964 0.972375 -0.222152
C55   C     C_2   0.691971 0.663036 0.972375 -0.222151
C56   C     C_2   0.191971 0.836964 0.972375 -0.222152
C57   C     C_2   0.191971 0.163036 0.972375 -0.222151
C58   C     C_2   0.762566 0.341315 0.037213 -0.110159
C59   C     C_2   0.762566 0.658685 0.037213 -0.110160
C60   C     C_2   0.262566 0.841315 0.037213 -0.110160
C61   C     C_R   0.645103 0.633738 0.857886 0.143131
C62   C     C_2   0.262566 0.158685 0.037213 -0.110159
C63   C     C_2   0.359942 0.754581 0.151831 -0.218922
C64   C     C_2   0.359942 0.245419 0.151831 -0.218923
C65   C     C_2   0.859942 0.254581 0.151831 -0.218923
C66   C     C_2   0.859942 0.745419 0.151831 -0.218923
C67   C     C_2   0.306927 0.792334 0.134449 -0.114734
C68   C     C_2   0.306927 0.207666 0.134449 -0.114734
C69   C     C_2   0.806926 0.292334 0.134449 -0.114734
C70   C     C_2   0.806927 0.707666 0.134449 -0.114734
C71   C     C_R   0.613335 0.394988 0.408394 -0.229465
C72   C     C_R   0.145103 0.866262 0.857886 0.143132
C73   C     C_R   0.613335 0.605012 0.408394 -0.229465
C74   C     C_R   0.113335 0.894988 0.408394 -0.229465
C75   C     C_R   0.113335 0.105012 0.408394 -0.229465
C76   C     C_R   0.392335 0.382735 0.590746 -0.213818
C77   C     C_R   0.392335 0.617265 0.590746 -0.213818
C78   C     C_R   0.892335 0.882735 0.590746 -0.213818
C79   C     C_R   0.892335 0.117265 0.590746 -0.213817
C80   C     C_R   0.688800 0.393989 0.593792 0.362293
C81   C     C_R   0.688800 0.606010 0.593792 0.362293
C82   C     C_R   0.188800 0.893989 0.593792 0.362293
C83   C     C_R   0.145103 0.133738 0.857886 0.143131
C84   C     C_R   0.188800 0.106011 0.593792 0.362293
C85   C     C_R   0.315247 0.387070 0.403406 0.340864
C86   C     C_R   0.315247 0.612930 0.403406 0.340865
C87   C     C_R   0.815247 0.887070 0.403406 0.340865
C88   C     C_R   0.815247 0.112929 0.403406 0.340865
C89   C     C_R   0.575785 0.388996 0.797857 -0.142952
C90   C     C_R   0.575785 0.611004 0.797857 -0.142952
C91   C     C_R   0.075785 0.888996 0.797857 -0.142953
C92   C     C_R   0.075785 0.111004 0.797857 -0.142952
C93   C     C_R   0.442828 0.358409 0.243601 -0.143279
C94   C     C_R   0.680162 0.372702 0.501417 -0.046596
C95   C     C_R   0.442828 0.641591 0.243601 -0.143280
C96   C     C_R   0.942828 0.858409 0.243601 -0.143279
C97   C     C_R   0.942828 0.141591 0.243601 -0.143279
C98   C     C_R   0.385676 0.316661 0.214016 0.145358
C99   C     C_R   0.385676 0.683339 0.214016 0.145358
C100  C     C_R   0.885676 0.816661 0.214016 0.145358
C101  C     C_R   0.885676 0.183339 0.214016 0.145358
C102  C     C_3   0.758140 0.404368 0.709667 -1.131514
C103  C     C_3   0.758140 0.595632 0.709668 -1.131515
C104  C     C_3   0.258140 0.904368 0.709667 -1.131512
H1    H     H_    0.306626 0.340843 0.230375 0.119684
H2    H     H_    0.805542 0.390811 0.543261 0.154793
H3    H     H_    0.253948 0.559042 0.242777 0.264819
H4    H     H_    0.209314 0.567028 0.297513 0.264173
H5    H     H_    0.219259 0.646313 0.235794 0.236868
H6    H     H_    0.753947 0.940958 0.242777 0.264819
H7    H     H_    0.719259 0.853686 0.235794 0.236869
H8    H     H_    0.709314 0.932971 0.297514 0.264172
H9    H     H_    0.753948 0.059042 0.242777 0.264819
H10   H     H_    0.709314 0.067028 0.297513 0.264172
H11   H     H_    0.719259 0.146313 0.235794 0.236868
H12   H     H_    0.546895 0.389826 0.827305 0.090778
H13   H     H_    0.305542 0.109189 0.543261 0.154793
H14   H     H_    0.546895 0.610174 0.827305 0.090778
H15   H     H_    0.046895 0.889826 0.827305 0.090778
H16   H     H_    0.046895 0.110174 0.827305 0.090778
H17   H     H_    0.305542 0.890811 0.543261 0.154792
H18   H     H_    0.327078 0.160552 0.660521 0.178250
H19   H     H_    0.327078 0.839448 0.660521 0.178250
H20   H     H_    0.827078 0.660552 0.660522 0.178250
H21   H     H_    0.827078 0.339448 0.660521 0.178250
H22   H     H_    0.303127 0.339045 0.638904 0.155393
H23   H     H_    0.303126 0.660954 0.638903 0.155392
H24   H     H_    0.803126 0.839046 0.638903 0.155392
H25   H     H_    0.306626 0.659157 0.230375 0.119684
H26   H     H_    0.803126 0.160954 0.638903 0.155392
H27   H     H_    0.733607 0.752259 0.631428 0.158560
H28   H     H_    0.733607 0.247740 0.631429 0.158560
H29   H     H_    0.233607 0.252260 0.631429 0.158559
H30   H     H_    0.233607 0.747741 0.631429 0.158559
H31   H     H_    0.685222 0.812179 0.327392 0.181208
H32   H     H_    0.685221 0.187819 0.327393 0.181208
H33   H     H_    0.185221 0.312181 0.327393 0.181208
H34   H     H_    0.185221 0.687820 0.327393 0.181208
H35   H     H_    0.245186 0.249082 0.331307 0.157438
H36   H     H_    0.806626 0.840843 0.230375 0.119684
H37   H     H_    0.245187 0.750918 0.331308 0.157439
H38   H     H_    0.745187 0.749081 0.331308 0.157439
H39   H     H_    0.745186 0.250918 0.331308 0.157439
H40   H     H_    0.695785 0.648960 0.344186 0.160286
H41   H     H_    0.695784 0.351038 0.344185 0.160286
H42   H     H_    0.195784 0.148961 0.344185 0.160286
H43   H     H_    0.195784 0.851039 0.344185 0.160286
H44   H     H_    0.631860 0.713965 0.322214 0.153842
H45   H     H_    0.631860 0.286034 0.322214 0.153843
H46   H     H_    0.131860 0.213966 0.322214 0.153843
H47   H     H_    0.806626 0.159157 0.230375 0.119684
H48   H     H_    0.131860 0.786034 0.322214 0.153842
H49   H     H_    0.225124 0.374076 0.506066 0.157081
H50   H     H_    0.225124 0.625924 0.506065 0.157081
H51   H     H_    0.725123 0.874075 0.506064 0.157081
H52   H     H_    0.725123 0.125924 0.506065 0.157081
H53   H     H_    0.718034 0.380715 0.827481 0.107800
H54   H     H_    0.718034 0.619285 0.827481 0.107799
H55   H     H_    0.218034 0.880715 0.827481 0.107799
H56   H     H_    0.218034 0.119285 0.827481 0.107799
H57   H     H_    0.658320 0.778229 0.491354 0.159297
H58   H     H_    0.356669 0.203924 0.517303 0.161769
H59   H     H_    0.658320 0.221771 0.491355 0.159297
H60   H     H_    0.158320 0.278229 0.491355 0.159297
H61   H     H_    0.158320 0.721771 0.491355 0.159297
H62   H     H_    0.287739 0.776907 0.177153 0.122402
H63   H     H_    0.287739 0.223093 0.177153 0.122402
H64   H     H_    0.787739 0.276907 0.177153 0.122403
H65   H     H_    0.787739 0.723093 0.177153 0.122402
H66   H     H_    0.787146 0.371113 0.010112 0.127028
H67   H     H_    0.787147 0.628887 0.010112 0.127028
H68   H     H_    0.287147 0.871113 0.010112 0.127028
H69   H     H_    0.356669 0.796076 0.517304 0.161769
H70   H     H_    0.287147 0.128887 0.010112 0.127028
H71   H     H_    0.378099 0.770591 0.107621 0.129850
H72   H     H_    0.378099 0.229409 0.107621 0.129850
H73   H     H_    0.878098 0.270591 0.107621 0.129850
H74   H     H_    0.878098 0.729409 0.107621 0.129850
H75   H     H_    0.668297 0.306981 0.001078 0.129640
H76   H     H_    0.668297 0.693019 0.001078 0.129639
H77   H     H_    0.168297 0.806981 0.001078 0.129640
H78   H     H_    0.168297 0.193019 0.001078 0.129639
H79   H     H_    0.590579 0.396586 0.322102 0.113647
H80   H     H_    0.856670 0.703924 0.517305 0.161769
H81   H     H_    0.590579 0.603413 0.322102 0.113647
H82   H     H_    0.090579 0.896586 0.322102 0.113647
H83   H     H_    0.090579 0.103414 0.322102 0.113647
H84   H     H_    0.416253 0.374786 0.677053 0.109126
H85   H     H_    0.416253 0.625214 0.677053 0.109126
H86   H     H_    0.916253 0.874786 0.677053 0.109126
H87   H     H_    0.916253 0.125213 0.677053 0.109126
H88   H     H_    0.478517 0.343170 0.229653 0.094942
H89   H     H_    0.478517 0.656830 0.229653 0.094943
H90   H     H_    0.978517 0.843170 0.229653 0.094943
H91   H     H_    0.856669 0.296075 0.517304 0.161769
H92   H     H_    0.978517 0.156830 0.229653 0.094942
H93   H     H_    0.386906 0.243424 0.646514 0.152605
H94   H     H_    0.386906 0.756576 0.646515 0.152605
H95   H     H_    0.886906 0.743424 0.646515 0.152605
H96   H     H_    0.886906 0.256576 0.646515 0.152605
H97   H     H_    0.780298 0.349318 0.753026 0.246784
H98   H     H_    0.796021 0.434335 0.706967 0.258295
H99   H     H_    0.751852 0.440869 0.758517 0.259119
H100  H     H_    0.796021 0.565665 0.706967 0.258295
H101  H     H_    0.780298 0.650682 0.753026 0.246784
H102  H     H_    0.805543 0.609189 0.543262 0.154793
H103  H     H_    0.751852 0.559131 0.758517 0.259120
H104  H     H_    0.280298 0.849318 0.753026 0.246783
H105  H     H_    0.296021 0.934335 0.706967 0.258294
H106  H     H_    0.251852 0.940869 0.758517 0.259119
H107  H     H_    0.296021 0.065665 0.706967 0.258294
H108  H     H_    0.280298 0.150682 0.753026 0.246784
H109  H     H_    0.251852 0.059131 0.758517 0.259120
H110  H     H_    0.253948 0.440958 0.242777 0.264819
H111  H     H_    0.219259 0.353687 0.235794 0.236868
H112  H     H_    0.209314 0.432972 0.297513 0.264172
N1    N     N_R   0.389430 0.421450 0.294590 -0.047330
N2    N     N_R   0.581780 0.577610 0.443390 -0.046235
N3    N     N_R   0.081780 0.922390 0.443390 -0.046235
N4    N     N_R   0.081780 0.077610 0.443390 -0.046235
N5    N     N_R   0.419850 0.423100 0.556610 -0.044554
N6    N     N_R   0.419850 0.576900 0.556610 -0.044554
N7    N     N_R   0.919850 0.923100 0.556610 -0.044554
N8    N     N_R   0.919850 0.076900 0.556610 -0.044554
N9    N     N_R   0.627410 0.423100 0.556610 -0.052253
N10   N     N_R   0.627410 0.576900 0.556610 -0.052253
N11   N     N_R   0.127410 0.923100 0.556610 -0.052253
N12   N     N_R   0.389430 0.578550 0.294590 -0.047330
N13   N     N_R   0.127410 0.076900 0.556610 -0.052253
N14   N     N_R   0.374220 0.422390 0.443390 -0.050056
N15   N     N_R   0.374220 0.577610 0.443390 -0.050056
N16   N     N_R   0.874220 0.922390 0.443390 -0.050056
N17   N     N_R   0.874220 0.077610 0.443390 -0.050056
N18   N     N_R   0.555000 0.424040 0.705410 -0.039292
N19   N     N_R   0.555000 0.575960 0.705410 -0.039292
N20   N     N_R   0.055000 0.924040 0.705410 -0.039292
N21   N     N_R   0.055000 0.075960 0.705410 -0.039292
N22   N     N_R   0.446630 0.421450 0.294590 -0.040349
N23   N     N_R   0.889430 0.921450 0.294590 -0.047330
N24   N     N_R   0.446630 0.578550 0.294590 -0.040349
N25   N     N_R   0.946630 0.921450 0.294590 -0.040349
N26   N     N_R   0.946630 0.078550 0.294590 -0.040349
N27   N     N_R   0.889430 0.078550 0.294590 -0.047330
N28   N     N_R   0.612200 0.424040 0.705410 -0.045640
N29   N     N_R   0.612200 0.575960 0.705410 -0.045640
N30   N     N_R   0.112200 0.924040 0.705410 -0.045640
N31   N     N_R   0.112200 0.075960 0.705410 -0.045640
N32   N     N_R   0.581780 0.422390 0.443390 -0.046235
Ni1   Ni    Ni4+2 0.382890 0.500000 0.370170 0.207141
Ni2   Ni    Ni4+2 0.882890 0.000000 0.370170 0.207141
Ni3   Ni    Ni4+2 0.618740 0.500000 0.629830 0.205450
Ni4   Ni    Ni4+2 0.118740 0.000000 0.629830 0.205450
Ni5   Ni    Ni4+2 0.514090 0.500000 0.370170 0.202818
Ni6   Ni    Ni4+2 0.014090 0.000000 0.370170 0.202818
Ni7   Ni    Ni4+2 0.487550 0.500000 0.629830 0.204053
Ni8   Ni    Ni4+2 0.987550 0.000000 0.629830 0.204053

loop_
_geom_bond_atom_site_label_1
_geom_bond_atom_site_label_2
_ccdc_geom_bond_type
C13   C79   A    
C10   C85   A    
C4    H112  S    
N28   Ni3   S    
C55   C59   D    
C25   H51   S    
C6    H7    S    
N21   Ni8   S    
C26   H52   S    
C78   H86   S    
C65   C101  S    
N8    N17   A    
N5    Ni7   S    
C79   N8    A    
C71   C94   A    
C47   H55   S    
N31   Ni4   S    
C61   C90   A    
C88   N17   A    
C48   H56   S    
N8    Ni8   S    
N24   Ni5   S    
C50   C54   S    
C29   C53   S    
N4    N13   A    
C8    C82   A    
C86   N15   A    
C71   N32   A    
C14   C21   S    
N3    Ni6   S    
C102  H97   S    
C103  H103  S    
C13   C35   S    
C48   N31   A    
C41   H57   S    
C19   C36   S    
C28   N23   A    
C81   C103  S    
C27   C52   S    
C37   C51   S    
C17   N12   A    
C95   C99   A    
C1    H1    S    
C38   C52   S    
C56   H77   S    
C51   H41   S    
C11   C86   A    
C66   C100  S    
C87   N16   A    
C46   H54   S    
C49   H40   S    
C29   C33   S    
C53   H43   S    
C23   C43   S    
C54   H75   S    
N21   N31   A    
C18   C20   S    
C55   H76   S    
C7    H11   S    
C37   C42   S    
C43   H29   S    
C103  H100  S    
C21   H13   S    
C28   H36   S    
C11   C77   A    
C16   C34   S    
C97   N26   A    
C10   C76   A    
N7    Ni8   S    
C15   C22   S    
C21   C38   S    
C60   C67   S    
C56   C72   S    
N4    Ni6   S    
C74   N3    A    
C37   C94   S    
C53   H48   S    
C63   C99   S    
C57   C83   S    
N12   N24   A    
C104  H106  S    
C80   N9    A    
C64   H72   S    
N14   Ni1   S    
C18   C35   S    
C39   N27   A    
C76   H84   S    
C25   C34   S    
C95   N24   A    
C43   H60   S    
C28   C100  A    
N9    N32   A    
C96   H90   S    
N29   Ni3   S    
C89   H12   S    
C22   C40   S    
C95   H89   S    
N27   Ni2   S    
C79   H87   S    
N23   Ni2   S    
C44   H30   S    
C6    H6    S    
C36   C41   S    
C93   C98   A    
N1    Ni1   S    
C104  H105  S    
C19   H102  S    
C59   H67   S    
C57   H78   S    
C24   H50   S    
N17   Ni2   S    
C39   C101  A    
C20   H2    S    
C3    H107  S    
N10   Ni3   S    
C19   H20   S    
C14   H93   S    
C63   C67   D    
C92   N21   A    
C4    H110  S    
C81   N10   A    
C30   C34   S    
C46   C61   A    
C17   H25   S    
C60   H68   S    
N20   N30   A    
C11   C33   S    
C45   H53   S    
C25   C41   S    
C41   H27   S    
C72   C91   A    
C15   H69   S    
N32   Ni5   S    
N30   Ni4   S    
C4    C85   S    
N22   Ni5   S    
C57   C62   D    
N6    Ni7   S    
C91   N20   A    
C31   H39   S    
C27   H35   S    
C6    C87   S    
C56   C60   D    
C49   H44   S    
C12   C78   A    
C89   N18   A    
C14   H58   S    
C102  H99   S    
C83   C92   A    
C71   H79   S    
C24   H23   S    
C66   H74   S    
C77   N6    A    
C50   C89   A    
C7    C88   S    
C90   H14   S    
C93   N22   A    
C29   H37   S    
C8    C74   A    
N26   N27   A    
N23   N25   A    
C27   H33   S    
N20   Ni8   S    
C12   C34   S    
C84   N13   A    
C17   C99   A    
C45   N28   A    
C5    H3    S    
C16   H95   S    
C23   H22   S    
C5    C86   S    
C5    H5    S    
C67   H62   S    
C52   H46   S    
C30   C49   S    
N6    N15   A    
C30   H31   S    
C23   H49   S    
C18   H96   S    
C24   C44   S    
C31   C35   S    
C9    C84   A    
N16   Ni2   S    
C55   C61   S    
C80   C94   A    
N15   Ni1   S    
C64   C68   D    
N5    N14   A    
C64   C98   S    
N7    N16   A    
C26   C42   S    
C22   H17   S    
C22   H19   S    
N12   Ni1   S    
C54   C58   D    
C93   H88   S    
C2    C36   S    
C3    H108  S    
C15   H94   S    
C20   H21   S    
C52   H42   S    
C12   C87   A    
C58   H66   S    
C18   H91   S    
C42   H59   S    
C6    H8    S    
C25   H24   S    
C75   H83   S    
C85   N14   A    
C103  H101  S    
C46   N29   A    
C31   C51   S    
C31   H32   S    
C15   C33   S    
C26   H26   S    
C1    C98   A    
C73   H81   S    
C16   H80   S    
C58   C69   S    
C63   H71   S    
C76   N5    A    
C3    H109  S    
C29   H34   S    
C9    C75   A    
C82   N11   A    
C78   N7    A    
C24   C33   S    
C30   H38   S    
C48   C83   A    
C62   C68   S    
C77   H85   S    
C23   C32   S    
C7    H9    S    
C21   H18   S    
C102  H98   S    
C69   H64   S    
N19   Ni7   S    
C38   C43   S    
N13   Ni4   S    
C45   C50   A    
C20   C37   S    
C66   C70   D    
C65   H73   S    
C75   N4    A    
C16   C19   S    
C65   C69   D    
C70   H65   S    
N18   Ni7   S    
C13   C88   A    
C2    C73   A    
C9    C38   S    
C97   H92   S    
N2    Ni5   S    
N2    N10   A    
C73   N2    A    
C92   H16   S    
C91   H15   S    
C44   H61   S    
C104  H104  S    
C96   C100  A    
C39   H47   S    
C96   N25   A    
N26   Ni6   S    
C27   C32   S    
C59   C70   S    
C90   N19   A    
C68   H63   S    
C10   C32   S    
C26   C35   S    
C40   C44   S    
C14   C32   S    
C47   C72   A    
C51   H45   S    
N9    Ni3   S    
C40   C53   S    
C1    N1    A    
C80   C102  S    
C3    C84   S    
C4    H111  S    
C82   C104  S    
C2    C81   A    
C42   H28   S    
N25   Ni6   S    
C8    C40   S    
N3    N11   A    
C7    H10   S    
N1    N22   A    
N19   N29   A    
C47   N30   A    
C97   C101  A    
C36   C49   S    
N18   N28   A    
N11   Ni4   S    
C74   H82   S    
C5    H4    S    
C62   H70   S    
