data_mof_unit_33453.cif
_audit_creation_date              2012-12-10T17:43:37-0500
_audit_creation_method            fapswitch 2.2
_symmetry_space_group_name_H-M    P1
_symmetry_Int_Tables_number       1
_space_group_crystal_system       triclinic
_cell_length_a                    14.996461
_cell_length_b                    10.627071
_cell_length_c                    9.915873
_cell_angle_alpha                 89.756485
_cell_angle_beta                  89.808818
_cell_angle_gamma                 91.695112
_cell_volume                      1579.56207498

loop_
_atom_site_label
_atom_site_type_symbol
_atom_type_description
_atom_site_fract_x
_atom_site_fract_y
_atom_site_fract_z
_atom_type_partial_charge
C1    C     C_R   0.502573 0.260736 0.500258 0.848820
C2    C     C_R   0.907114 0.508819 0.623494 0.121580
C3    C     C_R   0.953396 0.461603 0.257120 -0.221776
C4    C     C_R   0.046053 0.461568 0.257150 -0.219901
C5    C     C_R   0.092543 0.477096 0.378451 0.120319
C6    C     C_R   0.046192 0.491927 0.501150 0.060538
C7    C     C_R   0.092602 0.507122 0.623833 0.117661
C8    C     C_R   0.046171 0.521881 0.745205 -0.219869
C9    C     C_R   0.953545 0.522951 0.745005 -0.226959
C10   C     C_R   0.184803 0.478985 0.379155 -0.270816
C11   C     C_R   0.230685 0.495457 0.500715 -0.073556
C12   C     C_R   0.326707 0.498839 0.500226 0.878151
C13   C     C_R   0.184863 0.508371 0.622751 -0.263245
C14   C     C_R   0.650592 0.136747 0.628485 -0.175025
C15   C     C_R   0.719689 0.073613 0.690592 -0.130170
C16   C     C_R   0.719864 0.942677 0.690057 -0.141855
C17   C     C_R   0.651014 0.874421 0.627227 -0.189529
C18   C     C_R   0.579731 0.936983 0.565303 0.097418
C19   C     C_R   0.579468 0.068914 0.566011 0.096486
C20   C     C_R   0.508810 0.128651 0.500258 -0.086224
C21   C     C_R   0.442501 0.062068 0.430611 -0.213244
C22   C     C_R   0.442815 0.933574 0.429849 -0.209256
C23   C     C_R   0.502936 0.739423 0.499698 0.876689
C24   C     C_R   0.509373 0.871969 0.498855 -0.103397
C25   C     C_R   0.382562 0.335627 0.141183 -0.143262
C26   C     C_R   0.324476 0.254996 0.071609 -0.207127
C27   C     C_R   0.324561 0.254952 0.932016 -0.192173
C28   C     C_R   0.382754 0.335516 0.861218 -0.137390
C29   C     C_R   0.442285 0.418896 0.928357 0.152894
C30   C     C_R   0.442190 0.419026 0.072858 0.116117
C31   C     C_R   0.556193 0.577355 0.071148 0.250046
C32   C     C_R   0.555082 0.577779 0.927248 -0.165935
C33   C     C_R   0.673264 0.499736 0.499893 0.868787
C34   C     C_R   0.814978 0.511437 0.622100 -0.278951
C35   C     C_R   0.769143 0.497077 0.500207 -0.072774
C36   C     C_R   0.814834 0.479025 0.379059 -0.253286
C37   C     C_R   0.907019 0.477449 0.378343 0.114879
C38   C     C_R   0.953434 0.492480 0.501032 0.062415
H1    H     H_    0.779183 0.525226 0.715885 0.161435
H2    H     H_    0.654395 0.238434 0.628330 0.155296
H3    H     H_    0.773729 0.126520 0.738033 0.139542
H4    H     H_    0.774005 0.893824 0.737138 0.136000
H5    H     H_    0.655150 0.773034 0.625954 0.143526
H6    H     H_    0.389836 0.881750 0.378119 0.154145
H7    H     H_    0.378717 0.329691 0.248129 0.197285
H8    H     H_    0.279221 0.192038 0.126544 0.145776
H9    H     H_    0.279351 0.191977 0.878062 0.150358
H10   H     H_    0.379102 0.329708 0.754287 0.202331
H11   H     H_    0.778829 0.465760 0.285419 0.170200
H12   H     H_    0.598795 0.641809 0.871236 0.158487
H13   H     H_    0.918079 0.450064 0.162561 0.142076
H14   H     H_    0.081309 0.449974 0.162607 0.145520
H15   H     H_    0.220669 0.467828 0.284993 0.164939
H16   H     H_    0.220803 0.520695 0.716758 0.167253
H17   H     H_    0.081453 0.533317 0.839799 0.145600
H18   H     H_    0.918292 0.535194 0.839446 0.142697
H19   H     H_    0.389354 0.109835 0.379238 0.139765
N1    N     N_R   0.499150 0.498800 0.142780 -0.144639
N2    N     N_R   0.499120 0.498720 0.857170 -0.135731
O1    O     O_R   0.500000 0.316780 0.614690 -0.640265
O2    O     O_R   0.499990 0.316750 0.385360 -0.630923
O3    O     O_R   0.367850 0.499980 0.614680 -0.640282
O4    O     O_R   0.367840 0.499960 0.385350 -0.645815
O5    O     O_R   0.500010 0.683250 0.614640 -0.616074
O6    O     O_R   0.500000 0.683220 0.385310 -0.612980
O7    O     O_R   0.632160 0.500040 0.614650 -0.641146
O8    O     O_R   0.632150 0.500020 0.385320 -0.589363
Zn1   Zn    Zn3+2 0.500010 0.500020 0.653130 0.927428
Zn2   Zn    Zn3+2 0.499990 0.499980 0.346870 0.949192
N3    N     N_2   0.614303 0.661216 0.142567 -0.249629
H20   H     H_    0.587836 0.748525 0.157384 0.232710
C39   C     C_3   0.706614 0.667394 0.099238 -0.822330
H21   H     H_    0.748000 0.711585 0.179750 0.252886
H22   H     H_    0.714210 0.725503 0.006302 0.220967
H23   H     H_    0.731274 0.571475 0.080192 0.236684

loop_
_geom_bond_atom_site_label_1
_geom_bond_atom_site_label_2
_ccdc_geom_bond_type
C8    C9    A    
O7    Zn1   S    
C25   H7    S    
C35   C36   A    
C7    C8    A    
C26   C27   A    
C29   C30   A    
C4    H14   S    
C18   C24   A    
O5    Zn1   S    
C31   N1    A    
C36   C37   A    
C34   C35   A    
C5    C6    A    
C27   H9    S    
C15   C16   A    
C18   C19   A    
C10   H15   S    
C31   N3    S    
C28   H10   S    
O4    Zn2   S    
C16   C17   A    
C23   C24   S    
C6    C38   A    
N3    H20   S    
C2    C34   A    
C21   C22   A    
C39   H23   S    
C8    H17   S    
C33   O7    A    
C22   H6    S    
C34   H1    S    
C29   N2    A    
C15   H3    S    
C39   H22   S    
C1    O1    A    
C12   O4    A    
C3    H13   S    
C4    C5    A    
C25   C26   A    
O8    Zn2   S    
C17   H5    S    
C21   H19   S    
C37   C38   A    
N2    Zn1   S    
C12   O3    A    
C2    C38   A    
C31   C32   A    
C17   C18   A    
C9    H18   S    
C32   H12   S    
C23   O5    A    
C22   C24   A    
C3    C4    A    
C16   H4    S    
C33   O8    A    
C13   H16   S    
O2    Zn2   S    
C25   C30   A    
C28   C29   A    
C1    C20   S    
C14   C19   A    
C39   H21   S    
C1    O2    A    
C11   C12   S    
N1    Zn2   S    
C6    C7    A    
O3    Zn1   S    
C23   O6    A    
C19   C20   A    
C5    C10   A    
C11   C13   A    
O6    Zn2   S    
C30   N1    A    
C33   C35   S    
C10   C11   A    
C26   H8    S    
C14   H2    S    
C7    C13   A    
C20   C21   A    
O1    Zn1   S    
C27   C28   A    
C14   C15   A    
N3    C39   S    
C32   N2    A    
C2    C9    A    
C36   H11   S    
C3    C37   A    
