data_mof_unit_23763.cif
_audit_creation_date              2012-12-10T17:33:52-0500
_audit_creation_method            fapswitch 2.2
_symmetry_space_group_name_H-M    P1
_symmetry_Int_Tables_number       1
_space_group_crystal_system       triclinic
_cell_length_a                    10.642865
_cell_length_b                    12.039432
_cell_length_c                    12.881948
_cell_angle_alpha                 94.672304
_cell_angle_beta                  91.428232
_cell_angle_gamma                 86.929539
_cell_volume                      1642.41861549

loop_
_atom_site_label
_atom_site_type_symbol
_atom_type_description
_atom_site_fract_x
_atom_site_fract_y
_atom_site_fract_z
_atom_type_partial_charge
C1    C     C_R   0.499964 0.523364 0.700665 0.900724
C2    C     C_3   0.121323 0.498947 0.503514 0.122638
C3    C     C_3   0.073164 0.422901 0.409687 -0.405693
C4    C     C_3   0.064017 0.619417 0.490358 -0.463788
C5    C     C_R   0.527983 0.464598 0.188680 -0.100956
C6    C     C_R   0.509625 0.539350 0.812846 -0.090956
C7    C     C_R   0.558838 0.647131 0.973307 -0.313535
C8    C     C_R   0.539257 0.642104 0.866051 0.218205
C9    C     C_R   0.495710 0.445435 0.867484 -0.330605
C10   C     C_R   0.513024 0.451075 0.973812 0.157049
C11   C     C_R   0.545666 0.552489 0.028061 0.087867
C12   C     C_R   0.741886 0.500764 0.500317 0.882279
C13   C     C_R   0.560397 0.557272 0.136214 0.158163
C14   C     C_R   0.503330 0.363261 0.133557 -0.273740
C15   C     C_R   0.496951 0.356063 0.026227 -0.209304
C16   C     C_R   0.348756 0.952605 0.442381 -0.346285
C17   C     C_R   0.367489 0.837421 0.442747 0.007544
C18   C     C_R   0.566523 0.858644 0.525595 -0.033184
C19   C     C_R   0.551153 0.976117 0.526728 0.060196
C20   C     C_R   0.445781 0.023607 0.475062 0.119123
C21   C     C_R   0.442038 0.140074 0.460455 0.144695
C22   C     C_R   0.617653 0.162646 0.578526 -0.004306
C23   C     C_R   0.510036 0.477603 0.299961 0.896930
C24   C     C_R   0.636938 0.046541 0.579089 -0.345777
C25   C     C_R   0.257857 0.499616 0.501572 0.834844
C26   C     C_3   0.930230 0.459978 0.608334 0.035898
C27   C     C_3   0.075987 0.463524 0.610627 0.036360
C28   C     C_3   0.929440 0.421262 0.411611 -0.450569
C29   C     C_3   0.921193 0.620571 0.488779 -0.420213
C30   C     C_3   0.878065 0.501665 0.503033 0.081824
H1    H     H_    0.901566 0.372909 0.611260 0.168465
H2    H     H_    0.095225 0.650122 0.416349 0.189717
H3    H     H_    0.888856 0.446316 0.336062 0.169887
H4    H     H_    0.101181 0.455556 0.335667 0.161336
H5    H     H_    0.484408 0.290855 0.173233 0.172660
H6    H     H_    0.583352 0.726179 0.012266 0.150054
H7    H     H_    0.474191 0.277567 0.984513 0.142617
H8    H     H_    0.470558 0.366722 0.827274 0.171988
H9    H     H_    0.682197 0.216802 0.621257 0.136326
H10   H     H_    0.255389 0.983457 0.423078 0.145707
H11   H     H_    0.716657 0.012222 0.622076 0.142886
H12   H     H_    0.292852 0.784134 0.415698 0.131841
H13   H     H_    0.648941 0.820186 0.561526 0.119993
H14   H     H_    0.102190 0.531977 0.669437 0.092278
H15   H     H_    0.902040 0.334505 0.419627 0.179543
H16   H     H_    0.115419 0.336830 0.408716 0.193367
H17   H     H_    0.884682 0.648726 0.412998 0.193428
H18   H     H_    0.883864 0.682355 0.550835 0.171317
H19   H     H_    0.095982 0.678799 0.555318 0.177446
N1    N     N_R   0.523380 0.207800 0.519350 -0.119657
N2    N     N_R   0.476620 0.792180 0.480650 -0.092708
O1    O     O_R   0.506240 0.421700 0.658830 -0.630797
O2    O     O_R   0.491240 0.609310 0.646410 -0.585770
O3    O     O_R   0.692710 0.406190 0.506230 -0.637647
O4    O     O_R   0.677700 0.593810 0.493810 -0.627996
O5    O     O_R   0.508760 0.390690 0.353590 -0.654370
O6    O     O_R   0.493760 0.578300 0.341170 -0.588881
O7    O     O_R   0.322300 0.406190 0.506190 -0.640778
O8    O     O_R   0.307290 0.593810 0.493770 -0.641323
Zn1   Zn    Zn3+2 0.510020 0.374730 0.508290 0.910492
Zn2   Zn    Zn3+2 0.489980 0.625270 0.491710 0.949299
N3    N     N_2   0.605301 0.654414 0.193307 -0.276240
H20   H     H_    0.557736 0.728829 0.179732 0.218940
C31   C     C_3   0.740677 0.659420 0.198815 -0.793894
H21   H     H_    0.766642 0.732529 0.251599 0.232730
H22   H     H_    0.778257 0.667933 0.120330 0.232258
H23   H     H_    0.783800 0.582831 0.230339 0.233539
N4    N     N_2   0.547502 0.741186 0.813889 -0.277196
H24   H     H_    0.506587 0.810758 0.854432 0.217285
C32   C     C_3   0.672934 0.760913 0.781632 -0.791032
H25   H     H_    0.673042 0.843554 0.749234 0.220315
H26   H     H_    0.703421 0.696225 0.720060 0.264889
H27   H     H_    0.740392 0.760637 0.848935 0.226716
C33   C     C_3   0.385485 0.185099 0.360513 -0.390537
C34   C     C_3   0.275742 0.130010 0.299959 -0.452563
C35   C     C_3   0.235378 0.192326 0.204837 -0.896255
H28   H     H_    0.215976 0.282602 0.226938 0.259100
H29   H     H_    0.309626 0.181730 0.145378 0.260057
H30   H     H_    0.148254 0.157401 0.169521 0.256099
H31   H     H_    0.304267 0.043464 0.270148 0.247563
H32   H     H_    0.192789 0.132289 0.350905 0.224032
H33   H     H_    0.350590 0.270897 0.378130 0.267874
H34   H     H_    0.464820 0.184782 0.306400 0.206468
N5    N     N_2   0.875639 0.527052 0.697126 -0.334791
H35   H     H_    0.906713 0.606812 0.709405 0.219336
C36   C     C_3   0.867321 0.471670 0.792081 -0.796144
H36   H     H_    0.819344 0.529095 0.852212 0.248917
H37   H     H_    0.962963 0.447302 0.821612 0.248122
H38   H     H_    0.811135 0.396549 0.777958 0.248920
N6    N     N_2   0.137850 0.361928 0.647460 -0.299028
H39   H     H_    0.223667 0.372469 0.685011 0.234318
C37   C     C_3   0.125909 0.252641 0.592846 -0.772198
H40   H     H_    0.130764 0.188855 0.650513 0.231920
H41   H     H_    0.204990 0.233228 0.539054 0.251911
H42   H     H_    0.035946 0.245245 0.548690 0.222421

loop_
_geom_bond_atom_site_label_1
_geom_bond_atom_site_label_2
_ccdc_geom_bond_type
C7    H6    S    
C19   C20   A    
N2    Zn2   S    
C35   H30   S    
C33   H34   S    
C17   N2    A    
C6    C9    A    
C23   O5    A    
O3    Zn1   S    
C7    C11   A    
C26   C27   S    
N3    H20   S    
C29   H17   S    
C3    C28   S    
C35   H29   S    
C10   C15   A    
C36   H37   S    
O7    Zn1   S    
C27   N6    S    
C18   C19   A    
C1    O2    A    
C17   H12   S    
C15   H7    S    
N3    C31   S    
O1    Zn1   S    
O2    Zn2   S    
C27   H14   S    
C13   N3    S    
N4    H24   S    
C2    C27   S    
C34   H31   S    
C5    C13   A    
C4    C29   S    
C22   N1    A    
C26   H1    S    
C24   H11   S    
C33   H33   S    
C21   N1    A    
C18   N2    A    
C28   H15   S    
O8    Zn2   S    
C33   C34   S    
C29   H18   S    
C1    C6    S    
C31   H23   S    
C7    C8    A    
C35   H28   S    
C14   H5    S    
C36   H36   S    
C34   H32   S    
C6    C8    A    
C3    H4    S    
C21   C33   S    
C37   H42   S    
O5    Zn1   S    
C31   H22   S    
C2    C4    S    
C34   C35   S    
C29   C30   S    
N6    C37   S    
C5    C23   S    
C16   C20   A    
C32   H27   S    
C37   H41   S    
N5    H35   S    
C5    C14   A    
C4    H2    S    
C16   H10   S    
C28   H3    S    
C8    N4    S    
C22   C24   A    
C25   O7    A    
C9    H8    S    
C32   H25   S    
C9    C10   A    
C23   O6    A    
C26   N5    S    
C12   C30   S    
N5    C36   S    
C36   H38   S    
O6    Zn2   S    
C3    H16   S    
C4    H19   S    
N1    Zn1   S    
C31   H21   S    
C28   C30   S    
C19   C24   A    
C18   H13   S    
C11   C13   A    
N6    H39   S    
C16   C17   A    
C22   H9    S    
O4    Zn2   S    
C37   H40   S    
C2    C3    S    
C2    C25   S    
C1    O1    A    
C12   O4    A    
C10   C11   A    
C20   C21   A    
N4    C32   S    
C14   C15   A    
C32   H26   S    
C25   O8    A    
C12   O3    A    
C26   C30   S    
