data_mof_unit_13696.cif
_audit_creation_date              2012-12-11T15:18:41-0500
_audit_creation_method            fapswitch 2.2
_symmetry_space_group_name_H-M    P1
_symmetry_Int_Tables_number       1
_space_group_crystal_system       triclinic
_cell_length_a                    6.938674
_cell_length_b                    19.858095
_cell_length_c                    23.837166
_cell_angle_alpha                 93.610543
_cell_angle_beta                  91.499357
_cell_angle_gamma                 88.088265
_cell_volume                      3275.19829573

loop_
_atom_site_label
_atom_site_type_symbol
_atom_type_description
_atom_site_fract_x
_atom_site_fract_y
_atom_site_fract_z
_atom_type_partial_charge
O1    O     O_R   0.620100 0.812200 0.810870 -0.521806
O2    O     O_R   0.379900 0.187800 0.189130 -0.522426
O3    O     O_R   0.296960 0.671650 0.794750 -0.546605
O4    O     O_R   0.703040 0.328350 0.205250 -0.546647
O5    O     O_R   0.120160 0.687800 0.689130 -0.542891
O6    O     O_R   0.879840 0.312200 0.310870 -0.542267
C1    C     C_R   0.469868 0.646918 0.804664 0.749442
C2    C     C_R   0.530126 0.353089 0.195342 0.749753
O7    O     O_R   0.290810 0.810670 0.817290 -0.549200
O8    O     O_R   0.709190 0.189330 0.182710 -0.549388
O9    O     O_R   0.113980 0.827820 0.711840 -0.535899
O10   O     O_R   0.886020 0.172180 0.288160 -0.527524
C3    C     C_R   0.459363 0.831515 0.834341 0.737563
C4    C     C_R   0.540644 0.168461 0.165679 0.735337
O11   O     O_R   0.626290 0.672180 0.788160 -0.517013
O12   O     O_R   0.373710 0.327820 0.211840 -0.516816
O13   O     O_3   0.451520 0.755460 0.715370 -0.377416
O14   O     O_3   0.548480 0.244540 0.284630 -0.374408
V1    V     V_3+5 0.179200 0.748980 0.756420 1.455846
V2    V     V_3+5 0.820800 0.251020 0.243580 1.459099
O15   O     O_R   0.783880 0.828350 0.705250 -0.553024
O16   O     O_R   0.216120 0.171650 0.294750 -0.556265
C5    C     C_R   0.948932 0.852645 0.694780 0.777525
C6    C     C_R   0.051542 0.146767 0.304789 0.763883
O17   O     O_R   0.790030 0.689320 0.682700 -0.540604
O18   O     O_R   0.209970 0.310680 0.317300 -0.539642
C7    C     C_R   0.959325 0.668117 0.665703 0.743881
C8    C     C_R   0.040704 0.332127 0.334142 0.736474
V3    V     V_3+5 0.678400 0.751010 0.743570 1.474059
V4    V     V_3+5 0.321600 0.248990 0.256430 1.472489
O19   O     O_3   0.955950 0.744540 0.784620 -0.360359
O20   O     O_3   0.044050 0.255460 0.215380 -0.360137
C9    C     C_R   0.861442 0.422674 0.391813 -0.211982
C10   C     C_R   0.138992 0.578123 0.607671 -0.211514
C11   C     C_R   0.029441 0.381815 0.383302 -0.070991
C12   C     C_R   0.970842 0.618853 0.616285 -0.067811
C13   C     C_R   0.185774 0.388943 0.421822 -0.219422
C14   C     C_R   0.814908 0.612063 0.577589 -0.228742
C15   C     C_R   0.174270 0.435515 0.468594 0.086668
C16   C     C_R   0.826635 0.565660 0.530695 0.088515
C17   C     C_R   0.006298 0.476821 0.476328 0.054255
C18   C     C_R   0.994593 0.524341 0.522952 0.055531
C19   C     C_R   0.849835 0.470592 0.437600 0.088598
C20   C     C_R   0.150949 0.530479 0.561724 0.088014
C21   C     C_R   0.327728 0.441489 0.507888 -0.178335
C22   C     C_R   0.673322 0.559765 0.491344 -0.183152
C23   C     C_R   0.316398 0.488673 0.553906 -0.190172
C24   C     C_R   0.684557 0.512509 0.445359 -0.191317
H1    H     H_    0.740284 0.417807 0.362371 0.122959
H2    H     H_    0.259979 0.582826 0.637190 0.122282
H3    H     H_    0.438081 0.492810 0.583091 0.124834
H4    H     H_    0.562856 0.508359 0.416187 0.123864
C25   C     C_R   0.944858 0.913341 0.661977 -0.189531
C26   C     C_R   0.062282 0.084607 0.336212 -0.193453
C27   C     C_R   0.849753 0.031479 0.657354 0.475944
C28   C     C_R   0.228815 0.976720 0.348084 0.461500
C29   C     C_R   0.881756 0.974479 0.688143 -0.341934
C30   C     C_R   0.189481 0.032874 0.316969 -0.348296
C31   C     C_R   0.980549 0.908845 0.603761 0.384252
C32   C     C_R   0.971545 0.080154 0.388181 0.369198
C33   C     C_R   0.971991 0.968624 0.572547 -0.081664
C34   C     C_R   0.034442 0.028709 0.425253 -0.079158
C35   C     C_R   0.896632 0.029165 0.599967 -0.014762
C36   C     C_R   0.157669 0.975436 0.402832 -0.004207
C37   C     C_R   0.032087 0.970670 0.515266 0.095025
C38   C     C_R   0.985317 0.028591 0.483724 0.090883
C39   C     C_R   0.909598 0.086738 0.513302 -0.184269
C40   C     C_R   0.152840 0.919555 0.490327 -0.180541
C41   C     C_R   0.868744 0.087144 0.569972 -0.174959
C42   C     C_R   0.214340 0.922076 0.435745 -0.179694
H5    H     H_    0.814585 0.134005 0.590421 0.171352
H6    H     H_    0.310838 0.881811 0.419639 0.169390
H7    H     H_    0.260520 0.036263 0.277310 0.149604
H8    H     H_    0.850193 0.977439 0.732550 0.144685
H9    H     H_    0.893757 0.134764 0.494937 0.188115
H10   H     H_    0.215550 0.879170 0.513525 0.185619
C43   C     C_R   0.495885 0.584870 0.835604 -0.143961
C44   C     C_R   0.504066 0.415145 0.164411 -0.144236
C45   C     C_R   0.646984 0.473666 0.841546 -0.238532
C46   C     C_R   0.352717 0.526309 0.158443 -0.241820
C47   C     C_R   0.595185 0.528713 0.810129 0.461330
C48   C     C_R   0.404414 0.471242 0.189858 0.463158
C49   C     C_R   0.445963 0.584514 0.892411 -0.303581
C50   C     C_R   0.554286 0.415552 0.107630 -0.304135
C51   C     C_R   0.502274 0.529502 0.925592 0.091644
C52   C     C_R   0.497958 0.470559 0.074445 0.091774
C53   C     C_R   0.602912 0.473720 0.898574 0.072241
C54   C     C_R   0.397137 0.526310 0.101446 0.073655
C55   C     C_R   0.467359 0.528506 0.984714 0.072637
C56   C     C_R   0.532949 0.471567 0.015328 0.072189
C57   C     C_R   0.629845 0.417368 0.985706 -0.190427
C58   C     C_R   0.370429 0.582700 0.014332 -0.190526
C59   C     C_R   0.663586 0.418612 0.928702 -0.170228
C60   C     C_R   0.336534 0.581430 0.071324 -0.173252
H11   H     H_    0.628934 0.370973 0.090243 0.120134
H12   H     H_    0.371526 0.629126 0.909814 0.119886
H13   H     H_    0.727253 0.431428 0.821426 0.135032
H14   H     H_    0.272122 0.568495 0.178524 0.131075
C61   C     C_R   0.654491 0.063518 0.112354 -0.282756
C62   C     C_R   0.345444 0.936427 0.887696 -0.282053
C63   C     C_R   0.530300 0.120550 0.115478 -0.177067
C64   C     C_R   0.469692 0.879410 0.884556 -0.177436
C65   C     C_R   0.395322 0.131238 0.071173 0.419102
C66   C     C_R   0.604676 0.868720 0.928862 0.419883
C67   C     C_R   0.377790 0.082129 0.025270 -0.092301
C68   C     C_R   0.622158 0.917814 0.974779 -0.091275
C69   C     C_R   0.505173 0.024504 0.022976 -0.053816
C70   C     C_R   0.494756 0.975434 0.977078 -0.053148
C71   C     C_R   0.643491 0.015819 0.066556 0.052882
C72   C     C_R   0.356426 0.984117 0.933502 0.052273
C73   C     C_R   0.236600 0.088680 0.981612 0.460038
C74   C     C_R   0.763317 0.911254 0.018447 0.459228
C75   C     C_R   0.229976 0.040492 0.936083 -0.264537
C76   C     C_R   0.769914 0.959438 0.063981 -0.268105
H15   H     H_    0.759221 0.055995 0.146155 0.138618
H16   H     H_    0.240698 0.943952 0.853900 0.139505
H17   H     H_    0.123846 0.047360 0.902564 0.143907
H18   H     H_    0.876015 0.952562 0.097507 0.138304
H19   H     H_    0.740184 0.375915 0.907992 0.131285
H20   H     H_    0.259831 0.624109 0.092025 0.127424
O21   O     O_3   0.341792 0.469772 0.244313 -0.553115
C77   C     C_3   0.472003 0.505389 0.280431 -0.276278
H21   H     H_    0.473774 0.559607 0.271199 0.140966
H22   H     H_    0.620091 0.482140 0.278097 0.129312
H23   H     H_    0.423418 0.502941 0.324141 0.162775
O22   O     O_3   0.657152 0.530026 0.755597 -0.553453
C78   C     C_3   0.524880 0.495196 0.719609 -0.270535
H24   H     H_    0.377787 0.519224 0.722172 0.128378
H25   H     H_    0.520875 0.441002 0.728787 0.144584
H26   H     H_    0.572982 0.497448 0.675832 0.162496
H27   H     H_    0.682981 0.372863 0.005373 0.122035
H28   H     H_    0.317293 0.627206 0.994666 0.121471
O23   O     O_3   0.278326 0.189128 0.073713 -0.532024
C79   C     C_3   0.378905 0.241548 0.051347 -0.156268
H29   H     H_    0.414952 0.229075 0.006577 0.142352
H30   H     H_    0.512402 0.253224 0.076416 0.070756
H31   H     H_    0.284892 0.287890 0.052954 0.161099
O24   O     O_3   0.721713 0.810841 0.926312 -0.531722
C80   C     C_3   0.621166 0.758406 0.948666 -0.158219
H32   H     H_    0.487725 0.746713 0.923578 0.071124
H33   H     H_    0.585028 0.770872 0.993430 0.140406
H34   H     H_    0.715236 0.712078 0.947073 0.161143
O25   O     O_3   0.109978 0.143893 0.981201 -0.535441
C81   C     C_3   0.932694 0.125433 0.002312 -0.155195
H35   H     H_    0.832290 0.170138 0.003596 0.148584
H36   H     H_    0.951200 0.109242 0.046020 0.153171
H37   H     H_    0.865042 0.085071 0.974684 0.114520
O26   O     O_3   0.889912 0.856033 0.018865 -0.537117
C82   C     C_3   0.067284 0.874499 0.997814 -0.161842
H38   H     H_    0.048942 0.890670 0.954097 0.155616
H39   H     H_    0.167714 0.829801 0.996576 0.147946
H40   H     H_    0.134816 0.914875 0.025454 0.113316
H41   H     H_    0.315468 0.357602 0.415863 0.128882
H42   H     H_    0.685317 0.643458 0.583558 0.125299
H43   H     H_    0.457482 0.410027 0.502791 0.137451
H44   H     H_    0.543624 0.591261 0.496424 0.135833
O27   O     O_3   0.824426 0.126489 0.401604 -0.571151
C83   C     C_3   0.646906 0.095892 0.388389 -0.190840
H45   H     H_    0.626244 0.052039 0.414239 0.141935
H46   H     H_    0.634213 0.080062 0.342817 0.145729
H47   H     H_    0.528291 0.133364 0.397965 0.154378
O28   O     O_3   0.011784 0.845153 0.578060 -0.568908
C84   C     C_3   0.835462 0.822322 0.554326 -0.281040
H48   H     H_    0.780719 0.854858 0.520669 0.151345
H49   H     H_    0.724597 0.819412 0.586931 0.140537
H50   H     H_    0.859968 0.770613 0.534873 0.165860
O29   O     O_3   0.782347 0.090973 0.684443 -0.552735
C85   C     C_3   0.581331 0.087210 0.690413 -0.241753
H51   H     H_    0.546023 0.047601 0.719169 0.138721
H52   H     H_    0.505934 0.078100 0.648918 0.135097
H53   H     H_    0.525572 0.136285 0.709279 0.172419
O30   O     O_3   0.357275 0.926822 0.327697 -0.557259
C86   C     C_3   0.262269 0.886240 0.285645 -0.258283
H54   H     H_    0.224443 0.915028 0.248125 0.139380
H55   H     H_    0.131059 0.864092 0.301999 0.139067
H56   H     H_    0.361487 0.843787 0.271890 0.164985

loop_
_geom_bond_atom_site_label_1
_geom_bond_atom_site_label_2
_ccdc_geom_bond_type
C83   H46   S    
C62   C72   A    
O27   C83   S    
C47   O22   S    
C69   C71   A    
C17   C18   A    
C84   H48   S    
C62   H16   S    
C27   O29   S    
O4    C2    A    
V1    O19   S    
C79   H31   S    
C45   C53   A    
C25   C31   A    
C15   C17   A    
C68   C74   A    
C86   H54   S    
C16   C22   A    
C67   C69   A    
O9    V1    S    
O22   C78   S    
C84   H49   S    
C50   C52   A    
O28   C84   S    
O3    C1    A    
C82   H39   S    
C61   H15   S    
C80   H34   S    
C52   C54   A    
C85   H52   S    
C57   H27   S    
C43   C49   A    
C6    C26   S    
O25   C81   S    
C61   C71   A    
C46   C54   A    
O13   V3    S    
C32   C34   A    
C41   H5    S    
O7    C3    A    
C34   C36   A    
C83   H47   S    
C9    C11   A    
O5    C7    A    
C60   H20   S    
O7    V1    S    
C85   H53   S    
O6    C8    A    
C73   C75   A    
C35   C41   A    
C8    C11   S    
C66   O24   S    
C27   C35   A    
C69   C70   A    
C28   C36   A    
O3    V1    S    
C21   H43   S    
C36   C42   A    
V4    O20   S    
C19   C24   A    
C48   O21   S    
O14   V2    S    
C56   C57   A    
C20   C23   A    
C73   O25   S    
C1    C43   S    
C21   C23   A    
C38   C39   A    
C67   C73   A    
C2    O12   A    
C66   C68   A    
C28   O30   S    
C2    C44   S    
C17   C19   A    
C18   C20   A    
C81   H37   S    
C74   C76   A    
V2    O20   S    
O11   V3    S    
C54   C60   A    
C86   H55   S    
O17   V3    S    
C22   C24   A    
C10   H2    S    
C31   C33   A    
C34   C38   A    
C51   C53   A    
C9    C19   A    
C13   H41   S    
C84   H50   S    
C10   C20   A    
O26   C82   S    
C46   C48   A    
C52   C56   A    
C82   H40   S    
O8    V2    S    
O29   C85   S    
C45   C47   A    
C25   C29   A    
C81   H35   S    
C4    C63   S    
C26   C32   A    
C1    O11   A    
O15   V3    S    
C74   O26   S    
C58   H28   S    
C50   H11   S    
C29   H8    S    
C78   H25   S    
C23   H3    S    
C57   C59   A    
C44   C48   A    
C43   C47   A    
V3    O19   S    
C37   C40   A    
O10   V2    S    
O1    V3    S    
C65   C67   A    
C32   O27   S    
C55   C58   A    
C64   C66   A    
C72   C75   A    
O21   C77   S    
C76   H18   S    
C71   C76   A    
C75   H17   S    
C81   H36   S    
C85   H51   S    
C49   C51   A    
O18   V4    S    
C27   C29   A    
O8    C4    A    
C83   H45   S    
O16   C6    A    
O1    C3    A    
C14   H42   S    
O12   V4    S    
C77   H22   S    
C78   H24   S    
C55   C56   A    
O6    V2    S    
O30   C86   S    
C11   C13   A    
C62   C64   A    
C26   C30   A    
C86   H56   S    
C51   C55   A    
O16   V4    S    
C46   H14   S    
C45   H13   S    
C33   C35   A    
C16   C18   A    
C79   H30   S    
C80   H32   S    
C70   C72   A    
C79   H29   S    
O5    V1    S    
C7    C12   S    
C40   H10   S    
C22   H44   S    
O10   C6    A    
O18   C8    A    
C15   C21   A    
O2    V4    S    
C77   H23   S    
O15   C5    A    
C65   O23   S    
C78   H26   S    
C13   C15   A    
C31   O28   S    
C82   H38   S    
C12   C14   A    
C14   C16   A    
C80   H33   S    
C58   C60   A    
O23   C79   S    
C68   C70   A    
C49   H12   S    
C53   C59   A    
C5    C25   S    
O9    C5    A    
O13   V1    S    
C28   C30   A    
C10   C12   A    
C33   C37   A    
O2    C4    A    
O24   C80   S    
O14   V4    S    
O4    V2    S    
C44   C50   A    
C24   H4    S    
C39   H9    S    
C63   C65   A    
C37   C38   A    
C77   H21   S    
C40   C42   A    
C42   H6    S    
C59   H19   S    
C39   C41   A    
C3    C64   S    
C9    H1    S    
C61   C63   A    
C30   H7    S    
O17   C7    A    
