data_mof_unit_9445.cif
_audit_creation_date              2012-12-11T14:28:13-0500
_audit_creation_method            fapswitch 2.2
_symmetry_space_group_name_H-M    P1
_symmetry_Int_Tables_number       1
_space_group_crystal_system       triclinic
_cell_length_a                    11.101081
_cell_length_b                    19.180153
_cell_length_c                    18.565454
_cell_angle_alpha                 90.084814
_cell_angle_beta                  89.417712
_cell_angle_gamma                 89.941574
_cell_volume                      3952.75390365

loop_
_atom_site_label
_atom_site_type_symbol
_atom_type_description
_atom_site_fract_x
_atom_site_fract_y
_atom_site_fract_z
_atom_type_partial_charge
C1    C     C_R   0.321497 0.969405 0.646635 0.575983
C2    C     C_R   0.317835 0.965826 0.854030 0.584924
C3    C     C_R   0.318747 0.030376 0.353467 0.597791
C4    C     C_R   0.316242 0.058759 0.138359 0.549690
C5    C     C_R   0.821500 0.469403 0.646632 0.579573
C6    C     C_R   0.817603 0.465465 0.854088 0.600231
C7    C     C_R   0.818746 0.530368 0.353460 0.591895
C8    C     C_R   0.818594 0.535965 0.144718 0.607876
C9    C     C_3   0.208518 0.728565 0.454148 0.033696
C10   C     C_3   0.177137 0.711668 0.030533 0.071557
C11   C     C_3   0.207845 0.225891 0.549432 0.020428
C12   C     C_3   0.178982 0.287211 0.967136 0.075304
C13   C     C_3   0.708631 0.228627 0.454087 0.032460
C14   C     C_3   0.717646 0.257475 0.052899 0.032551
C15   C     C_3   0.707929 0.725867 0.549477 0.021043
C16   C     C_3   0.713634 0.746127 0.947065 0.037246
C17   C     C_3   0.084762 0.748332 0.426153 0.021038
C18   C     C_3   0.083610 0.749908 0.075243 0.037399
C19   C     C_3   0.084168 0.252119 0.572764 0.021633
C20   C     C_3   0.081556 0.251504 0.924668 0.029762
C21   C     C_3   0.584836 0.248361 0.426119 0.020092
C22   C     C_3   0.587180 0.248416 0.074411 0.028084
C23   C     C_3   0.584240 0.752091 0.572794 0.021036
C24   C     C_3   0.582851 0.753370 0.926582 0.024476
C25   C     C_R   0.321155 0.995364 0.424745 0.018805
C26   C     C_R   0.317626 0.033511 0.066132 0.015544
C27   C     C_R   0.332407 0.004192 0.575854 0.084710
C28   C     C_R   0.316677 0.995279 0.924294 0.016056
C29   C     C_R   0.821149 0.495341 0.424727 0.019276
C30   C     C_R   0.818458 0.515034 0.071072 0.034214
C31   C     C_R   0.832415 0.504171 0.575839 0.084282
C32   C     C_R   0.815949 0.491122 0.925686 0.038865
C33   C     C_R   0.537208 0.967628 0.420207 0.369295
C34   C     C_R   0.534096 0.992723 0.064623 0.382657
C35   C     C_R   0.555571 0.004135 0.565525 0.369566
C36   C     C_R   0.535127 0.027492 0.919192 0.378838
C37   C     C_R   0.037182 0.467593 0.420169 0.368871
C38   C     C_R   0.037578 0.487660 0.067874 0.348916
C39   C     C_R   0.055581 0.504102 0.565491 0.368947
C40   C     C_R   0.033654 0.519031 0.921734 0.352995
C41   C     C_R   0.648566 0.966165 0.453651 0.373638
C42   C     C_R   0.642097 0.993730 0.025856 0.335906
C43   C     C_R   0.658136 0.985899 0.525746 0.341315
C44   C     C_R   0.643782 0.017445 0.954683 0.353129
C45   C     C_R   0.148549 0.466137 0.453601 0.374616
C46   C     C_R   0.143998 0.490742 0.028366 0.377604
C47   C     C_R   0.158136 0.485871 0.525698 0.341666
C48   C     C_R   0.142470 0.511038 0.956103 0.390632
C49   C     C_R   0.440259 0.998884 0.534443 -0.127142
C50   C     C_R   0.425447 0.015397 0.956467 -0.148054
C51   C     C_R   0.432833 0.987637 0.459156 -0.154542
C52   C     C_R   0.426374 0.014236 0.031031 -0.145347
C53   C     C_R   0.940262 0.498852 0.534420 -0.126848
C54   C     C_R   0.925246 0.506296 0.959460 -0.141342
C55   C     C_R   0.932823 0.487603 0.459131 -0.153408
C56   C     C_R   0.927228 0.502152 0.034192 -0.142094
C57   C     C_R   0.223013 0.014963 0.540683 0.008097
C58   C     C_R   0.206754 0.993522 0.965611 -0.002057
C59   C     C_R   0.214027 0.998118 0.467540 -0.032312
C60   C     C_R   0.206040 0.029924 0.028903 -0.005120
C61   C     C_R   0.723020 0.514940 0.540671 0.008196
C62   C     C_R   0.705517 0.489040 0.965824 -0.007076
C63   C     C_R   0.714029 0.498097 0.467526 -0.031294
C64   C     C_R   0.707195 0.517546 0.032970 -0.009272
C65   C     C_R   0.120355 0.040376 0.578314 -0.071724
C66   C     C_R   0.097366 0.958378 0.947651 -0.105137
C67   C     C_R   0.097018 0.991689 0.438696 -0.115063
C68   C     C_R   0.092355 0.054410 0.054847 -0.112974
C69   C     C_R   0.620364 0.540353 0.578303 -0.072215
C70   C     C_R   0.592429 0.460773 0.943368 -0.111646
C71   C     C_R   0.597024 0.491667 0.438685 -0.114907
C72   C     C_R   0.596007 0.546058 0.058396 -0.117201
C73   C     C_R   0.007569 0.037672 0.547509 -0.067137
C74   C     C_R   0.987674 0.977637 0.977567 -0.056816
C75   C     C_R   0.995611 0.010911 0.478577 -0.065951
C76   C     C_R   0.984806 0.029756 0.028251 -0.069407
C77   C     C_R   0.507573 0.537621 0.547511 -0.068018
C78   C     C_R   0.486622 0.481285 0.974779 -0.034774
C79   C     C_R   0.495617 0.510849 0.478584 -0.065992
C80   C     C_R   0.488774 0.522236 0.034486 -0.045382
C81   C     C_R   0.184052 0.771307 0.635864 0.542975
C82   C     C_R   0.137676 0.759731 0.858416 0.571476
C83   C     C_R   0.184628 0.228750 0.363455 0.548327
C84   C     C_R   0.138680 0.240291 0.141299 0.577933
C85   C     C_R   0.684086 0.271315 0.635860 0.549246
C86   C     C_R   0.686656 0.272143 0.863633 0.539608
C87   C     C_R   0.684659 0.728741 0.363457 0.553240
C88   C     C_R   0.685082 0.728622 0.135824 0.538412
C89   C     C_R   0.542474 0.769610 0.644911 0.556282
C90   C     C_R   0.540109 0.770536 0.855599 0.556286
C91   C     C_R   0.543087 0.230848 0.354435 0.554229
C92   C     C_R   0.542025 0.230058 0.145003 0.554474
C93   C     C_R   0.042439 0.269624 0.644892 0.553564
C94   C     C_R   0.046946 0.267662 0.852064 0.556339
C95   C     C_R   0.043047 0.730832 0.354458 0.551465
C96   C     C_R   0.047771 0.732604 0.147966 0.563423
C97   C     C_3   0.088856 0.818514 0.464516 -0.125538
C98   C     C_3   0.110301 0.818440 0.036121 -0.150563
C99   C     C_3   0.020357 0.205747 0.518062 -0.139200
C100  C     C_3   0.103807 0.182762 0.963286 -0.150672
C101  C     C_3   0.588882 0.318541 0.464489 -0.125851
C102  C     C_3   0.549303 0.309470 0.027829 -0.102958
C103  C     C_3   0.520450 0.705710 0.518092 -0.139645
C104  C     C_3   0.546888 0.691979 0.973649 -0.120911
C105  C     C_3   0.215320 0.799404 0.493858 -0.165952
C106  C     C_3   0.206857 0.779228 0.990159 -0.143374
C107  C     C_3   0.145936 0.178147 0.493752 -0.150882
C108  C     C_3   0.204381 0.219112 0.007348 -0.148172
C109  C     C_3   0.715382 0.299464 0.493816 -0.166764
C110  C     C_3   0.681678 0.318524 0.003771 -0.177013
C111  C     C_3   0.646037 0.678119 0.493787 -0.150833
C112  C     C_3   0.679977 0.684482 0.995988 -0.178872
C113  C     C_3   0.152294 0.764638 0.559181 0.026186
C114  C     C_3   0.109098 0.759312 0.935460 0.043193
C115  C     C_3   0.152538 0.237801 0.439403 0.021868
C116  C     C_3   0.109518 0.241702 0.064117 0.036634
C117  C     C_3   0.652395 0.264664 0.559148 0.024861
C118  C     C_3   0.660107 0.266182 0.941826 -0.000942
C119  C     C_3   0.652628 0.737772 0.439430 0.020272
C120  C     C_3   0.656151 0.736132 0.058408 -0.003279
C121  C     C_3   0.027744 0.784375 0.530593 -0.095047
C122  C     C_3   0.013765 0.799608 0.979517 -0.122328
C123  C     C_3   0.029426 0.265568 0.462872 -0.093989
C124  C     C_3   0.009987 0.204330 0.021677 -0.118565
C125  C     C_3   0.527813 0.284372 0.530567 -0.094341
C126  C     C_3   0.528606 0.256998 0.965332 -0.080496
C127  C     C_3   0.529508 0.765527 0.462902 -0.093228
C128  C     C_3   0.524256 0.744084 0.036485 -0.091025
C129  C     C_3   0.023346 0.713641 0.490908 -0.128003
C130  C     C_3   0.986810 0.731379 0.019997 -0.134818
C131  C     C_3   0.092144 0.311793 0.518184 -0.087026
C132  C     C_3   0.987785 0.273196 0.981543 -0.133470
C133  C     C_3   0.523467 0.213640 0.490876 -0.127465
C134  C     C_3   0.567669 0.196014 0.013175 -0.120248
C135  C     C_3   0.592216 0.811761 0.518208 -0.087510
C136  C     C_3   0.561141 0.805713 0.988160 -0.105871
C137  C     C_3   0.148321 0.693624 0.519721 -0.085269
C138  C     C_3   0.081786 0.692205 0.975440 -0.094505
C139  C     C_3   0.217165 0.285241 0.493881 -0.094488
C140  C     C_3   0.086850 0.309551 0.024341 -0.087301
C141  C     C_3   0.648481 0.193651 0.519667 -0.085234
C142  C     C_3   0.700473 0.204961 0.990314 -0.115276
C143  C     C_3   0.717245 0.785216 0.493916 -0.095144
C144  C     C_3   0.694201 0.798042 0.009890 -0.097454
Cr1   Cr    Cr6+3 0.488160 0.884660 0.750000 1.198130
Cr2   Cr    Cr6+3 0.488160 0.115340 0.250000 1.175961
Cr3   Cr    Cr6+3 0.988160 0.384660 0.750000 1.190236
Cr4   Cr    Cr6+3 0.988160 0.615340 0.250000 1.172428
Cr5   Cr    Cr6+3 0.173480 0.883120 0.750000 1.070075
Cr6   Cr    Cr6+3 0.173480 0.116880 0.250000 1.048219
Cr7   Cr    Cr6+3 0.673480 0.383120 0.750000 1.044050
Cr8   Cr    Cr6+3 0.673480 0.616880 0.250000 1.028338
Cr9   Cr    Cr6+3 0.333410 0.727260 0.750000 1.105984
Cr10  Cr    Cr6+3 0.333410 0.272740 0.250000 1.129238
Cr11  Cr    Cr6+3 0.833410 0.227260 0.750000 1.100583
Cr12  Cr    Cr6+3 0.833410 0.772740 0.250000 1.127315
H1    H     H_    0.293666 0.835103 0.497318 0.101157
H2    H     H_    0.297848 0.799012 0.975899 0.101895
H3    H     H_    0.175030 0.127658 0.472724 0.142723
H4    H     H_    0.294305 0.196846 0.019250 0.094953
H5    H     H_    0.793703 0.335187 0.497265 0.101191
H6    H     H_    0.738552 0.365340 0.001567 0.138723
H7    H     H_    0.675148 0.627638 0.472751 0.143282
H8    H     H_    0.741149 0.639481 0.996559 0.141423
H9    H     H_    0.930367 0.057139 0.577219 0.201903
H10   H     H_    0.905996 0.952178 0.960875 0.223067
H11   H     H_    0.908327 0.007648 0.454636 0.252533
H12   H     H_    0.900762 0.049659 0.049499 0.209420
H13   H     H_    0.430368 0.557072 0.577230 0.201488
H14   H     H_    0.404807 0.466288 0.950915 0.269121
H15   H     H_    0.408332 0.507540 0.454660 0.252487
H16   H     H_    0.409996 0.535704 0.064157 0.245460
H17   H     H_    0.054949 0.864799 0.436796 0.150181
H18   H     H_    0.123334 0.869040 0.063986 0.159710
H19   H     H_    0.938583 0.175275 0.531579 0.156082
H20   H     H_    0.111081 0.132742 0.933569 0.158209
H21   H     H_    0.554882 0.364804 0.436754 0.150014
H22   H     H_    0.498321 0.352884 0.052728 0.215555
H23   H     H_    0.438683 0.675230 0.531605 0.156339
H24   H     H_    0.494163 0.648321 0.951463 0.214772
H25   H     H_    0.956812 0.810612 0.563012 0.192239
H26   H     H_    0.944504 0.835076 0.958338 0.142302
H27   H     H_    0.963634 0.289136 0.425992 0.185638
H28   H     H_    0.939210 0.169963 0.043672 0.138658
H29   H     H_    0.456856 0.310607 0.562971 0.191924
H30   H     H_    0.454284 0.252259 0.926504 0.173221
H31   H     H_    0.463673 0.789066 0.426030 0.188039
H32   H     H_    0.449172 0.747725 0.075792 0.185189
H33   H     H_    0.945268 0.678079 0.485241 0.135315
H34   H     H_    0.899538 0.709212 0.036556 0.099712
H35   H     H_    0.060189 0.364263 0.532520 0.105205
H36   H     H_    0.903118 0.298500 0.965935 0.104011
H37   H     H_    0.445400 0.178062 0.485216 0.134891
H38   H     H_    0.518096 0.146360 0.019270 0.095081
H39   H     H_    0.560273 0.864239 0.532528 0.105014
H40   H     H_    0.510593 0.855421 0.983059 0.118148
H41   H     H_    0.174033 0.642438 0.542733 0.190225
H42   H     H_    0.067908 0.642886 0.947660 0.190173
H43   H     H_    0.295857 0.318460 0.480581 0.179629
H44   H     H_    0.078797 0.359557 0.052251 0.205990
H45   H     H_    0.674238 0.142459 0.542664 0.190126
H46   H     H_    0.762047 0.162193 0.973647 0.172602
H47   H     H_    0.795913 0.818450 0.480610 0.179618
H48   H     H_    0.755850 0.840666 0.025663 0.193514
H49   H     H_    0.082384 0.970931 0.385277 0.163043
H50   H     H_    0.082854 0.093410 0.095055 0.182029
H51   H     H_    0.127721 0.062519 0.631836 0.162301
H52   H     H_    0.093061 0.913850 0.913043 0.179628
H53   H     H_    0.582392 0.470919 0.385260 0.162304
H54   H     H_    0.586630 0.588603 0.095181 0.173700
H55   H     H_    0.627734 0.562507 0.631821 0.163927
H56   H     H_    0.579658 0.419217 0.905462 0.173152
O1    O     O_R   0.575450 0.828820 0.667950 -0.452412
O2    O     O_R   0.575450 0.828820 0.832050 -0.466861
O3    O     O_R   0.575450 0.171180 0.332050 -0.477437
O4    O     O_R   0.575450 0.171180 0.167950 -0.478937
O5    O     O_R   0.075450 0.328820 0.667950 -0.453828
O6    O     O_R   0.075450 0.328820 0.832050 -0.459310
O7    O     O_R   0.075450 0.671180 0.332050 -0.478296
O8    O     O_R   0.075450 0.671180 0.167950 -0.460513
O9    O     O_R   0.416860 0.942890 0.674680 -0.433013
O10   O     O_R   0.416860 0.942890 0.825320 -0.438257
O11   O     O_R   0.416860 0.057110 0.325320 -0.434356
O12   O     O_R   0.416860 0.057110 0.174680 -0.406105
O13   O     O_R   0.916860 0.442890 0.674680 -0.431026
O14   O     O_R   0.916860 0.442890 0.825320 -0.433903
O15   O     O_R   0.916860 0.557110 0.325320 -0.434748
O16   O     O_R   0.916860 0.557110 0.174680 -0.424280
O17   O     O_R   0.213790 0.953680 0.668330 -0.535728
O18   O     O_R   0.213790 0.953680 0.831670 -0.545672
O19   O     O_R   0.213790 0.046320 0.331670 -0.550265
O20   O     O_R   0.213790 0.046320 0.168330 -0.521204
O21   O     O_R   0.713790 0.453680 0.668330 -0.535482
O22   O     O_R   0.713790 0.453680 0.831670 -0.557688
O23   O     O_R   0.713790 0.546320 0.331670 -0.553004
O24   O     O_R   0.713790 0.546320 0.168330 -0.556682
O25   O     O_R   0.121360 0.817890 0.672660 -0.478791
O26   O     O_R   0.121360 0.817890 0.827340 -0.511057
O27   O     O_R   0.121360 0.182110 0.327340 -0.477157
O28   O     O_R   0.121360 0.182110 0.172660 -0.524721
O29   O     O_R   0.621360 0.317890 0.672660 -0.476702
O30   O     O_R   0.621360 0.317890 0.827340 -0.516328
O31   O     O_R   0.621360 0.682110 0.327340 -0.473541
O32   O     O_R   0.621360 0.682110 0.172660 -0.511168
O33   O     O_R   0.206850 0.711370 0.665820 -0.470951
O34   O     O_R   0.206850 0.711370 0.834180 -0.448103
O35   O     O_R   0.206850 0.288630 0.334180 -0.419584
O36   O     O_R   0.206850 0.288630 0.165820 -0.445769
O37   O     O_R   0.706850 0.211370 0.665820 -0.460492
O38   O     O_R   0.706850 0.211370 0.834180 -0.426328
O39   O     O_R   0.706850 0.788630 0.334180 -0.411421
O40   O     O_R   0.706850 0.788630 0.165820 -0.422866
O41   O     O_R   0.457710 0.733190 0.672630 -0.543838
O42   O     O_R   0.457710 0.733190 0.827370 -0.507664
O43   O     O_R   0.457710 0.266810 0.327370 -0.528792
O44   O     O_R   0.457710 0.266810 0.172630 -0.511053
O45   O     O_R   0.957710 0.233190 0.672630 -0.545227
O46   O     O_R   0.957710 0.233190 0.827370 -0.528216
O47   O     O_R   0.957710 0.766810 0.327370 -0.530906
O48   O     O_R   0.957710 0.766810 0.172630 -0.530044
O49   O     O_3   0.331690 0.831680 0.750000 -0.350447
O50   O     O_3   0.331690 0.168320 0.250000 -0.366680
O51   O     O_3   0.831690 0.331680 0.750000 -0.364405
O52   O     O_3   0.831690 0.668320 0.250000 -0.367884
C145  C     C_2   0.297254 0.695421 0.403029 0.577832
O53   O     O_2   0.327643 0.726237 0.348166 -0.468571
O54   O     O_R   0.337894 0.627819 0.415470 -0.717387
H57   H     H_    0.394850 0.610930 0.376112 0.354312
C146  C     C_2   0.267948 0.661798 0.055081 0.553178
O55   O     O_2   0.311813 0.623311 0.010201 -0.523636
O56   O     O_R   0.304744 0.660425 0.126892 -0.653774
H58   H     H_    0.371994 0.626118 0.136189 0.330937
C147  C     C_2   0.297396 0.207184 0.606246 0.543096
O57   O     O_2   0.343720 0.149572 0.606729 -0.517702
O58   O     O_R   0.325489 0.255786 0.659646 -0.654945
H59   H     H_    0.386587 0.237329 0.695107 0.374090
C148  C     C_2   0.273039 0.334768 0.941810 0.560249
O59   O     O_2   0.325738 0.366932 0.987574 -0.531570
O60   O     O_R   0.304316 0.340991 0.869018 -0.650497
H60   H     H_    0.372737 0.375006 0.860525 0.339628
C149  C     C_2   0.797353 0.195548 0.402899 0.579302
O61   O     O_2   0.827613 0.226402 0.348027 -0.465103
O62   O     O_R   0.838149 0.127966 0.415307 -0.717153
H61   H     H_    0.895125 0.111125 0.375936 0.356242
C150  C     C_2   0.806812 0.264433 0.112896 0.556211
O63   O     O_2   0.827111 0.214820 0.152233 -0.473060
O64   O     O_R   0.861072 0.328884 0.125847 -0.685498
H62   H     H_    0.916796 0.327755 0.168745 0.385514
C151  C     C_2   0.797422 0.707135 0.606334 0.543053
O65   O     O_2   0.843741 0.649523 0.606812 -0.520570
O66   O     O_R   0.825464 0.755704 0.659774 -0.646299
H63   H     H_    0.886586 0.737236 0.695212 0.369024
C152  C     C_2   0.805954 0.741818 0.887521 0.550893
O67   O     O_2   0.827959 0.793096 0.850677 -0.483149
O68   O     O_R   0.861002 0.677963 0.871886 -0.687843
H64   H     H_    0.918021 0.680754 0.829012 0.368948
F1    F     F_    0.745183 0.940786 0.416953 -0.602293
F2    F     F_    0.743085 0.969959 0.057578 -0.631492
F3    F     F_    0.764425 0.979854 0.559860 -0.611367
F4    F     F_    0.748898 0.026817 0.918434 -0.604665
F5    F     F_    0.245158 0.440767 0.416888 -0.602894
F6    F     F_    0.245940 0.471289 0.061167 -0.584835
F7    F     F_    0.264427 0.479817 0.559805 -0.612867
F8    F     F_    0.243840 0.524510 0.918018 -0.574162
F9    F     F_    0.529867 0.942743 0.351821 -0.532287
F10   F     F_    0.533331 0.960501 0.129703 -0.520272
F11   F     F_    0.570284 0.029102 0.633355 -0.524139
F12   F     F_    0.537259 0.050640 0.850081 -0.531268
F13   F     F_    0.029815 0.442707 0.351780 -0.540046
F14   F     F_    0.042434 0.460759 0.135481 -0.543854
F15   F     F_    0.070312 0.529066 0.633321 -0.528571
F16   F     F_    0.034578 0.546307 0.854135 -0.543310

loop_
_geom_bond_atom_site_label_1
_geom_bond_atom_site_label_2
_ccdc_geom_bond_type
C6    C32   S    
C7    C29   S    
C119  C143  S    
O66   H63   S    
C120  C144  S    
C110  C118  S    
Cr5   O18   S    
C4    O20   A    
C121  H25   S    
C16   C144  S    
Cr8   O32   S    
C57   C59   A    
Cr1   O9    S    
C14   C150  S    
C58   C60   A    
O56   H58   S    
Cr6   O20   S    
C62   C70   A    
C1    O9    A    
C61   C63   A    
C11   C147  S    
C91   O3    A    
C144  H48   S    
C23   C103  S    
C49   C51   A    
C34   C42   A    
C50   C52   A    
C23   C89   S    
C69   H55   S    
C67   H49   S    
C88   O40   A    
C97   C105  S    
C73   C75   A    
C42   C44   A    
C20   C132  S    
Cr5   O49   S    
Cr3   O14   S    
C83   O27   A    
Cr10  O43   S    
C45   C47   A    
C112  H8    S    
C46   C48   A    
C115  C123  S    
C27   C57   A    
C57   C65   A    
C112  C120  S    
Cr11  O46   S    
C19   C99   S    
C29   C55   A    
C96   O8    A    
Cr7   O22   S    
C30   C56   A    
C100  C124  S    
Cr3   O5    S    
C15   C111  S    
C91   O43   A    
C104  C128  S    
C86   O30   A    
Cr9   O34   S    
C12   C20   S    
C120  C128  S    
C13   C21   S    
C85   C117  S    
C93   O45   A    
C137  H41   S    
C146  O56   S    
C113  C137  S    
C36   C44   A    
C33   C51   A    
C80   H16   S    
C37   C45   A    
C130  C138  S    
C90   O2    A    
C36   C50   A    
C39   C47   A    
C40   C48   A    
Cr9   O41   S    
C133  C141  S    
C39   F15   S    
C40   F16   S    
C24   C90   S    
Cr8   O24   S    
C28   C58   A    
C98   C106  S    
C140  H44   S    
C33   C41   A    
C150  O64   S    
C4    O12   A    
C7    O15   A    
C10   C18   S    
C5    O13   A    
C76   H12   S    
Cr4   O7    S    
C34   F10   S    
C2    C28   S    
C32   C62   A    
Cr1   O2    S    
C134  H38   S    
C129  C137  S    
C126  C134  S    
Cr6   O27   S    
C83   O35   A    
C10   C138  S    
C130  H34   S    
C143  H47   S    
C14   C142  S    
C85   O37   A    
C70   H56   S    
C69   C77   A    
Cr4   O16   S    
C71   C79   A    
C8    O16   A    
Cr12  O39   S    
C87   O39   A    
C74   C76   A    
C110  H6    S    
C105  C113  S    
C124  H28   S    
C78   C80   A    
C9    C105  S    
C66   C74   A    
C78   H14   S    
C124  C132  S    
C93   O5    A    
C20   C94   S    
C97   C121  S    
C59   C67   A    
Cr12  O52   S    
C87   O31   A    
C71   H53   S    
C10   C146  S    
C129  H33   S    
C35   C49   A    
C62   C64   A    
C44   F4    S    
Cr2   O50   S    
C45   F5    S    
C35   C43   A    
C132  H36   S    
C24   C136  S    
C135  C143  S    
C90   O42   A    
C84   C116  S    
C148  O59   D    
C9    C137  S    
C100  C108  S    
C82   O34   A    
C83   C115  S    
C103  C127  S    
C73   H9    S    
C3    O19   A    
C104  C112  S    
C87   C119  S    
C152  O67   D    
Cr7   O29   S    
Cr2   O12   S    
C127  H31   S    
C151  O65   D    
Cr4   O52   S    
C145  O54   S    
C15   C143  S    
C40   C54   A    
Cr1   O49   S    
C102  H22   S    
C10   C106  S    
C67   C75   A    
C14   C110  S    
C3    O11   A    
C102  C126  S    
C79   H15   S    
O54   H57   S    
C65   H51   S    
C38   F14   S    
C149  O62   S    
C113  C121  S    
C84   O36   A    
Cr5   O17   S    
C14   C22   S    
Cr11  O51   S    
C72   C80   A    
C68   H50   S    
C13   C149  S    
C94   O46   A    
C147  O58   S    
C81   O25   A    
C114  C138  S    
C38   C46   A    
C131  C139  S    
C2    O18   A    
C37   C55   A    
C95   O7    A    
C38   C56   A    
Cr10  O35   S    
C133  H37   S    
O62   H61   S    
C22   C92   S    
C25   C59   A    
C17   C97   S    
C12   C148  S    
C27   C49   A    
C119  C127  S    
C29   C63   A    
C30   C64   A    
C41   C43   A    
C31   C61   A    
O58   H59   S    
Cr3   O13   S    
C109  C117  S    
Cr10  O44   S    
C11   C19   S    
C142  H46   S    
C127  C135  S    
C136  H40   S    
C128  C136  S    
C35   F11   S    
Cr11  O45   S    
C101  C109  S    
Cr7   O21   S    
C2    O10   A    
C103  C111  S    
C21   C133  S    
C11   C139  S    
C41   F1    S    
C105  H1    S    
Cr9   O33   S    
C100  H20   S    
O60   H60   S    
C12   C140  S    
C17   C95   S    
C13   C141  S    
C88   C120  S    
Cr2   O3    S    
C19   C93   S    
Cr7   O51   S    
Cr12  O47   S    
Cr8   O52   S    
C77   C79   A    
C146  O55   D    
C32   C54   A    
Cr11  O37   S    
C7    O23   A    
C123  H27   S    
C3    C25   S    
C97   H17   S    
Cr8   O31   S    
O68   H64   S    
Cr1   O10   S    
C42   F2    S    
C118  C142  S    
C15   C151  S    
Cr6   O19   S    
C117  C141  S    
C150  O63   D    
Cr10  O50   S    
C134  C142  S    
C66   H52   S    
C107  H3    S    
O64   H62   S    
C20   C100  S    
C126  H30   S    
C96   O48   A    
C85   O29   A    
Cr5   O26   S    
C86   C118  S    
Cr4   O8    S    
C63   C71   A    
Cr6   O50   S    
Cr1   O1    S    
C92   O44   A    
C22   C134  S    
Cr6   O28   S    
C102  C110  S    
C68   C76   A    
C74   H10   S    
C16   C112  S    
C89   O1    A    
C21   C91   S    
C116  C124  S    
C123  C131  S    
C128  H32   S    
C121  C129  S    
C88   O32   A    
C4    C26   S    
Cr12  O40   S    
C132  C140  S    
C99   C107  S    
C34   C52   A    
C36   F12   S    
C23   C135  S    
C8    C30   S    
C108  C116  S    
C136  C144  S    
Cr3   O6    S    
C39   C53   A    
C9    C145  S    
C6    O14   A    
C92   O4    A    
C103  H23   S    
C101  H21   S    
C135  H39   S    
C60   C68   A    
C81   C113  S    
Cr5   O25   S    
C86   O38   A    
Cr9   O42   S    
C70   C78   A    
C18   C96   S    
Cr8   O23   S    
C95   O47   A    
C106  C114  S    
C125  H29   S    
C141  H45   S    
C98   H18   S    
C139  H43   S    
C94   O6    A    
C65   C73   A    
C5    C31   S    
C28   C50   A    
C58   C66   A    
C72   H54   S    
C13   C109  S    
C145  O53   D    
C21   C101  S    
C15   C23   S    
C12   C108  S    
C16   C24   S    
C5    O21   A    
C84   O28   A    
Cr4   O15   S    
Cr11  O38   S    
C53   C55   A    
C19   C131  S    
C54   C56   A    
C17   C129  S    
C81   O33   A    
C111  H7    S    
C82   C114  S    
C149  O61   D    
C106  H2    S    
C24   C104  S    
C46   F6    S    
C26   C52   A    
C101  C125  S    
C125  C133  S    
C147  O57   D    
C99   H19   S    
C31   C53   A    
C107  C115  S    
C98   C122  S    
C138  H42   S    
C111  C119  S    
C9    C17   S    
Cr10  O36   S    
C148  O60   S    
C11   C107  S    
C33   F9    S    
C8    O24   A    
Cr9   O49   S    
C99   C123  S    
C61   C69   A    
C43   F3    S    
C47   F7    S    
C115  C139  S    
C48   F8    S    
C75   H11   S    
C108  H4    S    
C131  H35   S    
C118  C126  S    
C25   C51   A    
C22   C102  S    
C16   C152  S    
C37   F13   S    
C152  O68   S    
C109  H5    S    
Cr7   O30   S    
Cr2   O11   S    
C104  H24   S    
C26   C60   A    
C82   O26   A    
C151  O66   S    
C64   C72   A    
C6    O22   A    
C18   C130  S    
C114  C122  S    
C1    O17   A    
C122  H26   S    
C77   H13   S    
C1    C27   S    
C89   O41   A    
C18   C98   S    
C116  C140  S    
C117  C125  S    
Cr3   O51   S    
C122  C130  S    
Cr2   O4    S    
Cr12  O48   S    
