data_mof_unit_57268.cif
_audit_creation_date              2012-12-10T17:11:00-0500
_audit_creation_method            fapswitch 2.2
_symmetry_space_group_name_H-M    P1
_symmetry_Int_Tables_number       1
_space_group_crystal_system       triclinic
_cell_length_a                    11.752236
_cell_length_b                    13.015769
_cell_length_c                    13.457338
_cell_angle_alpha                 93.050849
_cell_angle_beta                  76.558061
_cell_angle_gamma                 99.483761
_cell_volume                      1974.50016206

loop_
_atom_site_label
_atom_site_type_symbol
_atom_type_description
_atom_site_fract_x
_atom_site_fract_y
_atom_site_fract_z
_atom_type_partial_charge
C1    C     C_R   0.519199 0.700528 0.504262 0.809763
C2    C     C_R   0.446399 0.454518 0.972909 0.047526
C3    C     C_R   0.481601 0.449663 0.864927 0.081862
C4    C     C_R   0.535749 0.469239 0.030648 0.044503
C5    C     C_R   0.656762 0.473313 0.979712 0.149657
C6    C     C_R   0.684909 0.447120 0.876046 -0.172128
C7    C     C_R   0.597855 0.431205 0.820679 -0.178650
C8    C     C_R   0.509033 0.483559 0.136962 -0.245299
C9    C     C_R   0.716724 0.515156 0.139869 -0.210751
C10   C     C_R   0.398917 0.461689 0.805444 -0.069406
C11   C     C_R   0.460276 0.188168 0.523269 -0.099534
C12   C     C_R   0.436487 0.485828 0.695018 0.834697
C13   C     C_R   0.527995 0.813998 0.509201 -0.125009
C14   C     C_R   0.647857 0.980890 0.460535 0.156986
C15   C     C_R   0.637008 0.873460 0.466923 -0.278076
C16   C     C_R   0.428682 0.863051 0.553625 0.113880
C17   C     C_R   0.440077 0.973092 0.553827 0.095023
C18   C     C_R   0.548828 0.030584 0.500660 0.109929
C19   C     C_R   0.556982 0.136886 0.486561 -0.245743
C20   C     C_R   0.353725 0.134484 0.582611 -0.100377
C21   C     C_R   0.345016 0.027543 0.601352 -0.072461
C22   C     C_R   0.941332 0.580722 0.608114 -0.302458
C23   C     C_R   0.477250 0.299923 0.504845 0.849796
C24   C     C_R   0.824206 0.577508 0.597029 0.147864
C25   C     C_R   0.863122 0.464915 0.451277 0.287921
C26   C     C_R   0.981165 0.467633 0.461754 0.086747
C27   C     C_R   0.020130 0.526798 0.540706 -0.024869
C28   C     C_R   0.138666 0.532591 0.549218 0.044473
C29   C     C_R   0.179220 0.421644 0.404608 0.066564
C30   C     C_R   0.062570 0.413951 0.393369 -0.267797
C31   C     C_R   0.563206 0.504781 0.304158 0.817454
C32   C     C_R   0.747296 0.501626 0.033645 0.182398
C33   C     C_R   0.597969 0.501857 0.192025 -0.091803
C34   C     C_R   0.278442 0.453614 0.853350 -0.230273
C35   C     C_R   0.240041 0.439383 0.958489 0.045826
C36   C     C_R   0.323661 0.444127 0.018274 -0.161894
Cu1   Cu    Cu3+1 0.386470 0.492430 0.492410 0.960155
Cu2   Cu    Cu3+1 0.613530 0.507570 0.507590 0.918482
H1    H     H_    0.785700 0.536522 0.181341 0.150444
H2    H     H_    0.713346 0.835951 0.434055 0.167964
H3    H     H_    0.169737 0.578904 0.609669 0.115464
H4    H     H_    0.240842 0.380313 0.351608 0.128064
H5    H     H_    0.972273 0.627374 0.668632 0.190409
H6    H     H_    0.037348 0.366529 0.331071 0.201191
H7    H     H_    0.774588 0.438762 0.836870 0.173888
H8    H     H_    0.419018 0.481033 0.179086 0.158699
H9    H     H_    0.213504 0.457220 0.808627 0.164936
H10   H     H_    0.289810 0.435731 0.099387 0.162689
H11   H     H_    0.623847 0.402491 0.743432 0.182844
H12   H     H_    0.638727 0.180535 0.443826 0.186295
N1    N     N_R   0.215880 0.481050 0.481000 -0.177677
N2    N     N_R   0.784100 0.518950 0.519000 -0.239431
O1    O     O_R   0.419710 0.645650 0.494620 -0.590177
O2    O     O_R   0.611450 0.658430 0.507430 -0.610903
O3    O     O_R   0.357340 0.490460 0.641450 -0.560137
O4    O     O_R   0.549080 0.503250 0.654260 -0.630567
O5    O     O_R   0.388550 0.341570 0.492570 -0.560825
O6    O     O_R   0.580290 0.354350 0.505380 -0.609527
O7    O     O_R   0.450920 0.496750 0.345740 -0.590592
O8    O     O_R   0.642660 0.509540 0.358550 -0.597779
C37   C     C_2   0.253694 0.189968 0.632085 0.387683
H13   H     H_    0.163966 0.157646 0.627179 0.042168
O9    O     O_2   0.270128 0.269298 0.682626 -0.541989
N3    N     N_3   0.759689 0.039279 0.411808 -0.602730
H14   H     H_    0.823186 0.025697 0.450515 0.226257
H15   H     H_    0.783497 0.010763 0.336983 0.228592
C38   C     C_2   0.242192 0.978839 0.680261 0.441114
H16   H     H_    0.152490 0.983934 0.675294 0.036478
O10   O     O_2   0.257798 0.936743 0.753906 -0.508575
N4    N     N_3   0.315118 0.801932 0.593464 -0.569946
H17   H     H_    0.281215 0.764654 0.533417 0.231334
H18   H     H_    0.322919 0.748105 0.645542 0.241921
C39   C     C_2   0.749612 0.641634 0.671348 0.380136
H19   H     H_    0.672710 0.666508 0.656567 0.135482
O11   O     O_2   0.774994 0.669758 0.752645 -0.575661
N5    N     N_3   0.832282 0.409467 0.364243 -0.590375
H20   H     H_    0.752723 0.359119 0.383381 0.259700
H21   H     H_    0.832481 0.462722 0.309305 0.243226
N6    N     N_3   0.869670 0.518733 0.980068 -0.615223
H22   H     H_    0.881627 0.581983 0.931925 0.240520
H23   H     H_    0.924040 0.541755 0.031273 0.233104
C40   C     C_2   0.111612 0.420027 0.004794 0.349089
H24   H     H_    0.048961 0.408419 0.955889 0.100336
O12   O     O_2   0.074229 0.415544 0.097326 -0.562894

loop_
_geom_bond_atom_site_label_1
_geom_bond_atom_site_label_2
_ccdc_geom_bond_type
C24   N2    A    
C23   O6    A    
C6    H7    S    
C29   H4    S    
C39   H19   S    
C14   C18   A    
C35   C36   A    
C4    C8    A    
C11   C19   A    
C26   C27   A    
C29   C30   A    
N5    H21   S    
C18   C19   A    
C3    C7    A    
C5    C6    A    
Cu1   N1    S    
C28   N1    A    
C24   C39   S    
Cu2   N2    S    
C28   H3    S    
C9    H1    S    
C34   C35   A    
C31   O7    A    
C20   C37   S    
C37   O9    D    
C1    O1    A    
C9    C32   A    
Cu2   O6    S    
C16   C17   A    
C31   C33   S    
N4    H17   S    
C5    C32   A    
Cu1   O1    S    
C21   C38   S    
C9    C33   A    
C39   O11   D    
C30   H6    S    
C35   C40   S    
C11   C20   A    
C38   H16   S    
C16   N4    S    
N5    H20   S    
C7    H11   S    
N6    H23   S    
C25   C26   A    
C17   C21   A    
C38   O10   D    
N3    H15   S    
C31   O8    A    
C2    C4    A    
C1    O2    A    
Cu1   Cu2   S    
C22   H5    S    
Cu2   O2    S    
C14   N3    S    
C17   C18   A    
C10   C34   A    
C12   O4    A    
Cu1   O7    S    
C10   C12   S    
Cu2   O8    S    
C26   C30   A    
C40   O12   D    
C22   C27   A    
C13   C15   A    
C22   C24   A    
C1    C13   S    
C29   N1    A    
C2    C36   A    
C23   O5    A    
C4    C5    A    
C6    C7    A    
C25   N5    S    
N3    H14   S    
C2    C3    A    
C25   N2    A    
C3    C10   A    
C32   N6    S    
C19   H12   S    
C11   C23   S    
C36   H10   S    
C8    C33   A    
C37   H13   S    
C8    H8    S    
C15   H2    S    
C12   O3    A    
N6    H22   S    
Cu1   O3    S    
Cu2   O4    S    
C20   C21   A    
C40   H24   S    
C13   C16   A    
C27   C28   A    
C14   C15   A    
N4    H18   S    
C34   H9    S    
Cu1   O5    S    
