data_mof_unit_22698.cif
_audit_creation_date              2012-12-10T18:05:42-0500
_audit_creation_method            fapswitch 2.2
_symmetry_space_group_name_H-M    P1
_symmetry_Int_Tables_number       1
_space_group_crystal_system       triclinic
_cell_length_a                    10.890714
_cell_length_b                    10.827144
_cell_length_c                    9.54999
_cell_angle_alpha                 89.963282
_cell_angle_beta                  90.978342
_cell_angle_gamma                 89.581941
_cell_volume                      1125.89574839

loop_
_atom_site_label
_atom_site_type_symbol
_atom_type_description
_atom_site_fract_x
_atom_site_fract_y
_atom_site_fract_z
_atom_type_partial_charge
C1    C     C_R   0.499927 0.262181 0.499987 0.782965
C2    C     C_R   0.500076 0.737818 0.500013 0.782883
C3    C     C_R   0.871729 0.502052 0.504060 -0.086204
C4    C     C_R   0.128270 0.498077 0.495937 -0.086213
C5    C     C_R   0.941492 0.526517 0.626782 -0.004661
C6    C     C_R   0.058504 0.473650 0.373208 -0.004705
C7    C     C_R   0.493934 0.064004 0.372809 -0.194982
C8    C     C_R   0.506078 0.935995 0.627192 -0.195031
C9    C     C_R   0.494138 0.936235 0.372796 -0.194138
C10   C     C_R   0.505873 0.063764 0.627205 -0.194130
C11   C     C_R   0.500144 0.871719 0.499985 -0.012530
C12   C     C_R   0.499864 0.128280 0.500015 -0.012549
C13   C     C_R   0.541796 0.399867 0.075064 -0.026900
C14   C     C_R   0.458213 0.600137 0.924936 -0.026964
C15   C     C_R   0.541946 0.399947 0.926671 -0.016680
C16   C     C_R   0.458064 0.600057 0.073329 -0.016884
C17   C     C_R   0.262235 0.498676 0.498491 0.793433
C18   C     C_R   0.737764 0.501365 0.501509 0.793406
C19   C     C_R   0.172225 0.519175 0.006963 -0.133689
C20   C     C_R   0.827928 0.480996 0.993079 -0.133740
C21   C     C_R   0.122274 0.542973 0.137717 -0.116446
C22   C     C_R   0.878024 0.457268 0.862391 -0.116670
C23   C     C_R   0.112936 0.447643 0.236140 0.135805
C24   C     C_R   0.887039 0.552510 0.763842 0.135555
C25   C     C_R   0.153230 0.328059 0.202472 -0.123577
C26   C     C_R   0.846281 0.671940 0.797327 -0.123122
C27   C     C_R   0.202533 0.304392 0.070825 -0.150987
C28   C     C_R   0.796863 0.695552 0.928929 -0.150781
C29   C     C_R   0.211655 0.399829 0.972919 -0.105548
C30   C     C_R   0.788076 0.600208 0.026963 -0.105598
C31   C     C_R   0.931540 0.475989 0.379169 -0.245777
C32   C     C_R   0.068462 0.524165 0.620830 -0.245813
Cu1   Cu    Cu3+1 0.500000 0.500020 0.640660 0.938676
Cu2   Cu    Cu3+1 0.500000 0.499980 0.359340 0.938671
H1    H     H_    0.250298 0.381516 0.871336 0.149960
H2    H     H_    0.749337 0.618470 0.128507 0.150017
H3    H     H_    0.181733 0.594138 0.933317 0.113060
H4    H     H_    0.818619 0.406060 0.066779 0.113131
H5    H     H_    0.091567 0.635646 0.162710 0.118022
H6    H     H_    0.909069 0.364702 0.837532 0.118201
H7    H     H_    0.146303 0.253728 0.277834 0.112487
H8    H     H_    0.852907 0.746185 0.721847 0.112398
H9    H     H_    0.233840 0.212241 0.044790 0.117417
H10   H     H_    0.765179 0.787573 0.954816 0.117346
H11   H     H_    0.879178 0.455657 0.285280 0.155030
H12   H     H_    0.120823 0.544492 0.714729 0.155036
H13   H     H_    0.488930 0.112136 0.273368 0.139851
H14   H     H_    0.511082 0.887863 0.726633 0.139815
H15   H     H_    0.576847 0.319849 0.130841 0.110625
H16   H     H_    0.423170 0.680158 0.869159 0.110614
N1    N     N_R   0.500030 0.500030 0.852070 -0.153238
N2    N     N_R   0.499970 0.499970 0.147930 -0.153272
O1    O     O_R   0.499990 0.319660 0.618740 -0.598920
O2    O     O_R   0.500010 0.680340 0.381260 -0.598941
O3    O     O_R   0.499990 0.319630 0.381170 -0.592196
O4    O     O_R   0.500010 0.680370 0.618830 -0.592233
O5    O     O_R   0.319650 0.500020 0.618780 -0.596458
O6    O     O_R   0.680350 0.499980 0.381220 -0.596473
O7    O     O_R   0.319640 0.500000 0.381210 -0.562908
O8    O     O_R   0.680360 0.500000 0.618790 -0.562902
H17   H     H_    0.577152 0.320022 0.872340 0.111721
H18   H     H_    0.422865 0.679986 0.127660 0.111733
H19   H     H_    0.489358 0.888299 0.273353 0.136996
H20   H     H_    0.510652 0.111701 0.726648 0.137009

loop_
_geom_bond_atom_site_label_1
_geom_bond_atom_site_label_2
_ccdc_geom_bond_type
C17   O5    A    
C9    H19   S    
Cu1   O5    S    
C8    H14   S    
C28   C30   A    
C15   N1    A    
Cu1   N1    S    
C13   N2    A    
C20   H4    S    
C29   H1    S    
Cu2   N2    S    
C14   N1    A    
C21   H5    S    
C30   H2    S    
C5    C32   A    
C22   H6    S    
C7    C9    A    
Cu1   O4    S    
C23   C25   A    
C6    C31   A    
C15   H17   S    
Cu2   O3    S    
C20   C30   A    
C3    C31   A    
C9    C11   A    
C24   C26   A    
C14   H16   S    
C1    C12   S    
C16   H18   S    
C17   O7    A    
C8    C11   A    
C13   H15   S    
C2    C11   S    
C10   C12   A    
C18   O8    A    
C19   C21   A    
Cu1   Cu2   S    
Cu2   O2    S    
Cu1   O8    S    
C22   C24   A    
C13   C15   A    
C21   C23   A    
C1    O3    A    
C7    C12   A    
C14   C16   A    
C2    O2    A    
C4    C6    A    
C27   C29   A    
C32   H12   S    
C4    C17   S    
C4    C32   A    
C19   C29   A    
C27   H9    S    
Cu1   O1    S    
C26   H8    S    
C3    C18   S    
C8    C10   A    
C31   H11   S    
C25   H7    S    
Cu2   O6    S    
C1    O1    A    
C5    C24   S    
C2    O4    A    
C19   H3    S    
C6    C23   S    
Cu2   O7    S    
C26   C28   A    
C28   H10   S    
C10   H20   S    
C16   N2    A    
C20   C22   A    
C18   O6    A    
C3    C5    A    
C25   C27   A    
C7    H13   S    
