data_mof_unit_34933.cif
_audit_creation_date              2013-03-05T16:45:21-0500
_audit_creation_method            fapswitch 2.2
_symmetry_space_group_name_H-M    P1
_symmetry_Int_Tables_number       1
_space_group_crystal_system       triclinic
_cell_length_a                    8.907688
_cell_length_b                    10.672589
_cell_length_c                    9.877763
_cell_angle_alpha                 90.157582
_cell_angle_beta                  89.952445
_cell_angle_gamma                 89.92951
_cell_volume                      939.055502733

loop_
_atom_site_label
_atom_site_type_symbol
_atom_site_description
_atom_site_fract_x
_atom_site_fract_y
_atom_site_fract_z
_atom_type_partial_charge
O1    O     O_R   0.500020 0.316790 0.614690 -0.622998
O2    O     O_R   0.500000 0.316760 0.385350 -0.634279
C1    C     C_R   0.497391 0.260130 0.499997 0.935934
O3    O     O_R   0.285350 0.500020 0.614650 -0.624420
O4    O     O_R   0.285340 0.499980 0.385310 -0.602016
C2    C     C_R   0.218733 0.499984 0.500021 0.941231
Zn1   Zn    Zn3+2 0.500010 0.500020 0.653130 0.998772
Zn2   Zn    Zn3+2 0.499990 0.499980 0.346870 1.008326
O5    O     O_R   0.500000 0.683240 0.614650 -0.622305
O6    O     O_R   0.499980 0.683210 0.385310 -0.590816
O7    O     O_R   0.714660 0.500020 0.614690 -0.591211
O8    O     O_R   0.714650 0.499980 0.385350 -0.623657
C3    C     C_R   0.491269 0.739636 0.500183 0.959342
C4    C     C_R   0.781261 0.500217 0.499988 0.985424
C5    C     C_1   0.065408 0.500168 0.500056 -0.125924
C6    C     C_1   0.934598 0.500255 0.499973 -0.103355
C7    C     C_R   0.513944 0.063703 0.618908 -0.048859
C8    C     C_R   0.478219 0.128715 0.501943 -0.065264
C9    C     C_R   0.410412 0.066722 0.392842 -0.252767
H1    H     H_    0.367427 0.118991 0.307345 0.183120
C10   C     C_R   0.400441 0.936406 0.393572 0.319708
C11   C     C_R   0.466657 0.871127 0.503012 -0.142925
C12   C     C_R   0.510615 0.936358 0.618600 -0.095429
C13   C     C_3   0.647343 0.927250 0.707102 0.079817
C14   C     C_3   0.649692 0.070108 0.707847 0.455198
H2    H     H_    0.623028 0.886276 0.808148 0.077520
H3    H     H_    0.625553 0.112566 0.808429 0.056440
C15   C     C_R   0.438642 0.402282 0.070896 0.210071
N1    N     N_R   0.499010 0.499140 0.142800 -0.110438
C16   C     C_R   0.572746 0.590489 0.072151 -0.060495
H4    H     H_    0.629171 0.664885 0.126462 0.169916
C17   C     C_R   0.572958 0.590351 0.928271 -0.086409
H5    H     H_    0.629961 0.664281 0.874321 0.172994
N2    N     N_R   0.499010 0.499180 0.857150 -0.113699
C18   C     C_R   0.438691 0.402300 0.928495 0.199046
C19   C     C_3   0.279671 0.359459 0.922559 -0.467585
C20   C     C_3   0.279448 0.359610 0.076374 -0.477504
H6    H     H_    0.203338 0.430851 0.878148 0.234743
H7    H     H_    0.269674 0.264073 0.878002 0.216811
H8    H     H_    0.203094 0.431171 0.120986 0.236206
H9    H     H_    0.268871 0.264306 0.120353 0.213756
N3    N     N_R   0.325983 0.873227 0.283871 0.219333
O9    O     O_R   0.232639 0.782490 0.308960 -0.361036
O10   O     O_R   0.332145 0.918853 0.161947 -0.395323
N4    N     N_R   0.776971 0.869935 0.639173 0.258519
O11   O     O_R   0.856200 0.786126 0.702545 -0.389821
O12   O     O_R   0.812456 0.899257 0.515313 -0.316818
F1    F     F_    0.772287 0.122382 0.642547 -0.606874

loop_
_geom_bond_atom_site_label_1
_geom_bond_atom_site_label_2
_geom_bond_distance
_ccdc_geom_bond_type
O4    Zn2   1.949062 S    
Zn1   O7    1.949063 S    
C12   C13   1.502982 S    
N1    C16   1.368742 A    
C14   H3    1.111575 S    
C18   C19   1.490151 S    
C16   H4    1.081637 S    
Zn2   O8    1.949846 S    
C7    C14   1.496756 S    
C17   H5    1.080377 S    
C19   H6    1.111926 S    
O2    C1    1.285318 A    
O1    Zn1   1.991035 S    
C10   C11   1.416371 A    
C16   C17   1.421206 A    
C14   F1    1.386415 S    
C7    C12   1.359453 A    
N3    O10   1.301437 A    
C15   C20   1.490906 S    
O3    Zn1   1.949846 S    
Zn2   N1    2.015777 S    
O3    C2    1.278789 A    
C15   N1    1.363885 A    
C9    C10   1.393789 A    
C13   H2    1.112043 S    
C3    C11   1.420299 S    
C7    C8    1.386365 A    
C20   H8    1.111965 S    
N4    O12   1.302469 A    
C20   H9    1.111196 S    
O4    C2    1.278592 A    
N2    C18   1.363505 A    
Zn1   N2    2.015318 S    
C4    C6    1.365880 S    
N3    O9    1.301352 A    
C13   N4    1.467114 S    
C5    C6    1.165219 T    
C13   C14   1.524827 S    
C1    C8    1.413284 S    
Zn2   O6    1.991034 S    
C8    C9    1.400747 A    
O7    C4    1.278490 A    
Zn1   O5    1.993056 S    
O5    C3    1.284725 A    
C11   C12   1.392346 A    
C19   C20   1.519342 S    
C10   N3    1.437713 S    
C2    C5    1.365764 S    
N4    O11   1.300857 A    
C19   H7    1.111678 S    
O2    Zn2   1.993057 S    
C9    H1    1.083341 S    
C15   C18   1.406603 A    
O8    C4    1.278841 A    
O1    C1    1.282969 A    
O6    C3    1.285371 A    
C17   N2    1.368504 A    
