data_mof_unit_11749.cif
_audit_creation_date              2012-12-11T14:33:07-0500
_audit_creation_method            fapswitch 2.2
_symmetry_space_group_name_H-M    P1
_symmetry_Int_Tables_number       1
_space_group_crystal_system       triclinic
_cell_length_a                    6.987066
_cell_length_b                    14.118341
_cell_length_c                    17.907718
_cell_angle_alpha                 113.687145
_cell_angle_beta                  95.577858
_cell_angle_gamma                 90.134739
_cell_volume                      1608.37467425

loop_
_atom_site_label
_atom_site_type_symbol
_atom_type_description
_atom_site_fract_x
_atom_site_fract_y
_atom_site_fract_z
_atom_type_partial_charge
O1    O     O_R   0.484560 0.544530 0.414330 -0.542664
O2    O     O_R   0.197040 0.638810 0.585080 -0.533930
O3    O     O_R   0.026800 0.455470 0.585670 -0.552950
C1    C     C_R   0.374296 0.676681 0.613053 0.690169
O4    O     O_R   0.155000 0.556150 0.414940 -0.536563
O5    O     O_R   0.984450 0.372220 0.414320 -0.544731
C2    C     C_R   0.317716 0.565036 0.386690 0.700747
O6    O     O_R   0.526900 0.627780 0.585680 -0.544071
O7    O     O_3   0.339170 0.439750 0.499990 -0.381255
V1    V     V_3+5 0.064350 0.511180 0.500000 1.357068
O8    O     O_R   0.654880 0.361190 0.414920 -0.532749
C3    C     C_R   0.818044 0.322771 0.388151 0.747828
O9    O     O_R   0.696930 0.443850 0.585060 -0.548889
C4    C     C_R   0.872964 0.433119 0.612002 0.696144
V2    V     V_3+5 0.564340 0.488820 0.500000 1.353537
O10   O     O_3   0.839390 0.560250 0.500010 -0.376713
C5    C     C_R   0.037797 0.869676 0.827259 -0.048625
C6    C     C_R   0.904137 0.392239 0.677094 -0.043982
C7    C     C_R   0.913796 0.834337 0.686987 -0.132072
C8    C     C_R   0.971525 0.799750 0.747239 0.095538
C9    C     C_R   0.039058 0.978464 0.846579 0.089618
C10   C     C_R   0.990832 0.014534 0.781535 0.065730
C11   C     C_R   0.917575 0.938733 0.703464 0.083198
C12   C     C_R   0.004030 0.120551 0.788555 0.089483
C13   C     C_R   0.927747 0.146553 0.721328 0.073926
C14   C     C_R   0.826619 0.068287 0.653552 -0.224140
C15   C     C_R   0.832813 0.966384 0.642181 -0.178744
C16   C     C_R   0.095262 0.201166 0.858416 -0.203928
C17   C     C_R   0.086280 0.302849 0.868609 -0.215562
C18   C     C_R   0.014281 0.328405 0.804477 0.093971
C19   C     C_R   0.946302 0.250996 0.726301 0.065704
C20   C     C_R   0.018629 0.432355 0.818755 -0.137371
C21   C     C_R   0.960206 0.463133 0.756896 -0.218399
C22   C     C_R   0.903762 0.284330 0.659313 0.129265
H1    H     H_    0.761932 0.908517 0.585487 0.113137
H2    H     H_    0.965076 0.543849 0.773010 0.128600
H3    H     H_    0.147338 0.362454 0.926451 0.128321
H4    H     H_    0.857571 0.778713 0.626420 0.135760
H5    H     H_    0.736697 0.083246 0.608246 0.154643
H6    H     H_    0.183562 0.189314 0.905651 0.159697
H7    H     H_    0.068578 0.491162 0.878811 0.148074
H8    H     H_    0.113967 0.224747 0.313226 0.150161
C23   C     C_2   0.128449 0.041182 0.179131 0.012132
C24   C     C_2   0.013388 0.063320 0.240585 0.231119
C25   C     C_2   0.818746 0.212909 0.327258 -0.042460
C26   C     C_2   0.986667 0.173332 0.297047 -0.140203
C27   C     C_R   0.409116 0.779981 0.683663 -0.075764
C28   C     C_R   0.546411 0.464368 0.841457 -0.058677
C29   C     C_R   0.512159 0.878850 0.827341 -0.104776
C30   C     C_R   0.460882 0.784293 0.761910 -0.173327
C31   C     C_R   0.417427 0.872894 0.672274 -0.154115
C32   C     C_R   0.450962 0.973268 0.739707 0.078710
C33   C     C_R   0.504710 0.973448 0.818005 0.083267
C34   C     C_R   0.441267 0.072257 0.732119 0.028302
C35   C     C_R   0.509764 0.168374 0.800653 -0.003465
C36   C     C_R   0.575159 0.159423 0.874474 -0.212925
C37   C     C_R   0.557455 0.067178 0.885620 0.163606
C38   C     C_R   0.368268 0.077718 0.657815 0.154041
C39   C     C_R   0.398629 0.167185 0.644873 0.149152
C40   C     C_R   0.453538 0.263982 0.711620 0.054419
C41   C     C_R   0.507336 0.268514 0.792546 -0.010708
C42   C     C_R   0.447043 0.357528 0.699286 0.121006
C43   C     C_R   0.498060 0.453285 0.762550 -0.214428
C44   C     C_R   0.550270 0.373601 0.858691 0.162145
H9    H     H_    0.494113 0.523058 0.750883 0.099107
H10   H     H_    0.559330 0.876785 0.885673 0.177876
H11   H     H_    0.466804 0.713761 0.772188 0.099223
H12   H     H_    0.413896 0.861075 0.609293 0.136376
H13   H     H_    0.643930 0.222195 0.926048 0.137636
H14   H     H_    0.336354 0.668317 0.194340 0.194506
H15   H     H_    0.611797 0.592003 0.307826 0.117483
C45   C     C_2   0.312340 0.602502 0.319034 0.020605
C46   C     C_2   0.474270 0.611741 0.285245 -0.110395
H16   H     H_    0.771006 0.636550 0.206013 0.154406
C47   C     C_2   0.634075 0.656476 0.183375 -0.358412
C48   C     C_2   0.472795 0.647933 0.217183 -0.100509
O11   O     O_R   0.421600 0.630430 0.917010 -0.544105
O12   O     O_R   0.793840 0.702190 0.087630 -0.534574
O13   O     O_R   0.964010 0.886170 0.088190 -0.532964
C49   C     C_R   0.631078 0.693544 0.115997 0.771631
O14   O     O_R   0.751460 0.619510 0.917500 -0.544121
O15   O     O_R   0.921330 0.802900 0.916840 -0.549682
C50   C     C_R   0.576836 0.575437 0.904190 0.732284
O16   O     O_R   0.464290 0.713700 0.088350 -0.543170
O17   O     O_3   0.609200 0.818520 0.002630 -0.380895
V3    V     V_3+5 0.884140 0.747190 0.002530 1.400285
O18   O     O_R   0.251150 0.814630 0.917340 -0.540659
C51   C     C_R   0.074326 0.827545 0.891850 0.721360
O19   O     O_R   0.293530 0.897310 0.087470 -0.543846
C52   C     C_R   0.130983 0.933852 0.115762 0.746644
V4    V     V_3+5 0.384070 0.769710 0.002370 1.396792
O20   O     O_3   0.109180 0.698190 0.002460 -0.376321
N1    N     N_3   0.935922 0.979782 0.256860 -0.681867
H17   H     H_    0.793242 0.962678 0.230713 0.235601
H18   H     H_    0.940088 0.002683 0.320249 0.230012
C53   C     C_3   0.633609 0.147414 0.302067 -0.756243
H19   H     H_    0.505885 0.195121 0.318229 0.229685
H20   H     H_    0.615794 0.102876 0.234710 0.215146
H21   H     H_    0.635331 0.093870 0.333548 0.203268
N2    N     N_3   0.220111 0.123709 0.166203 -0.707184
H22   H     H_    0.355212 0.100769 0.146932 0.239477
H23   H     H_    0.138766 0.132923 0.117644 0.228443
N3    N     N_3   0.585987 0.069801 0.967340 -0.697854
H24   H     H_    0.615145 0.145364 0.011359 0.223760
H25   H     H_    0.704637 0.027407 0.972086 0.233467
N4    N     N_3   0.587887 0.394518 0.943862 -0.722432
H26   H     H_    0.481786 0.359344 0.962617 0.232154
H27   H     H_    0.728532 0.376270 0.956832 0.233432
N5    N     N_3   0.384440 0.155965 0.560934 -0.717499
H28   H     H_    0.474031 0.098525 0.527795 0.218407
H29   H     H_    0.244771 0.133852 0.532830 0.236682
C54   C     C_3   0.880478 0.212462 0.568779 -0.850587
H30   H     H_    0.944588 0.137272 0.555460 0.199592
H31   H     H_    0.727610 0.203023 0.544429 0.228787
H32   H     H_    0.954810 0.244154 0.531383 0.192319
N6    N     N_3   0.262162 0.991855 0.593087 -0.691104
H33   H     H_    0.340082 0.963721 0.542151 0.213485
H34   H     H_    0.131611 0.015783 0.575221 0.244315
C55   C     C_3   0.368270 0.361943 0.620811 -0.549416
H35   H     H_    0.354454 0.443249 0.628847 0.210583
H36   H     H_    0.460821 0.323135 0.571732 0.236056
H37   H     H_    0.225179 0.323573 0.601997 0.203961
N7    N     N_3   0.130680 0.628036 0.288787 -0.678321
H38   H     H_    0.037816 0.562314 0.267934 0.226830
H39   H     H_    0.073576 0.685910 0.337917 0.231264
C56   C     C_3   0.946384 0.687192 0.726043 -0.740697
H40   H     H_    0.088413 0.657900 0.737815 0.178217
H41   H     H_    0.836859 0.676144 0.763025 0.182588
H42   H     H_    0.891761 0.643189 0.660928 0.239134
C57   C     C_3   0.064478 0.050119 0.936898 -0.838640
H43   H     H_    0.216947 0.076004 0.957421 0.244867
H44   H     H_    0.969243 0.116302 0.950320 0.214720
H45   H     H_    0.023903 0.012050 0.976667 0.179000

loop_
_geom_bond_atom_site_label_1
_geom_bond_atom_site_label_2
_ccdc_geom_bond_type
C13   C19   A    
C35   C36   A    
C43   H9    S    
N1    H17   S    
O18   V4    S    
C5    C51   S    
C22   C54   S    
C4    C6    S    
C7    C11   A    
C7    C8    A    
C1    O6    A    
C21   H2    S    
C54   H31   S    
O17   V4    S    
N7    H38   S    
O17   V3    S    
N6    H33   S    
C14   C15   A    
C17   C18   A    
C16   C17   A    
N5    H29   S    
O5    C3    A    
C18   C19   A    
O12   C49   A    
C14   H5    S    
N7    H39   S    
N4    H26   S    
O11   C50   A    
V2    O10   S    
C53   H21   S    
C5    C8    A    
C36   C37   A    
C40   C42   A    
H8    C26   S    
O13   C52   A    
C24   N1    S    
O8    V2    S    
C24   C26   S    
C53   H20   S    
C20   H7    S    
C57   H44   S    
O1    V2    S    
O16   V4    S    
C11   C15   A    
O19   V4    S    
C30   H11   S    
O14   V3    S    
C49   O16   A    
O12   V3    S    
C39   C40   A    
N1    H18   S    
O9    C4    A    
C38   N6    S    
C54   H30   S    
O14   C50   A    
C32   C34   A    
C27   C30   A    
C55   H36   S    
C37   N3    S    
C23   C52   S    
H16   C47   S    
C31   C32   A    
C23   N2    S    
C29   H10   S    
V4    O20   S    
O4    C2    A    
C33   C37   A    
C45   C46   D    
C28   C43   A    
C27   C31   A    
C56   H42   S    
C15   H1    S    
C13   C14   A    
O15   V3    S    
C5    C9    A    
C40   C41   A    
C41   C44   A    
O2    C1    A    
C47   C48   D    
C8    C56   S    
C42   C43   A    
C7    H4    S    
C55   H35   S    
C53   H19   S    
N2    H23   S    
C19   C22   A    
N3    H25   S    
C12   C13   A    
C6    C22   A    
C42   C55   S    
O3    C4    A    
C36   H13   S    
O6    V2    S    
O9    V2    S    
C23   C24   D    
H14   C48   S    
C34   C38   A    
C46   C48   S    
C10   C12   A    
C57   H45   S    
O2    V1    S    
C2    C45   S    
C32   C33   A    
H15   C46   S    
O7    V1    S    
C55   H37   S    
C34   C35   A    
O11   V4    S    
C56   H41   S    
O1    C2    A    
C12   C16   A    
C3    C25   S    
O5    V1    S    
O8    C3    A    
C44   N4    S    
C28   C50   S    
C20   C21   A    
C57   H43   S    
C38   C39   A    
O4    V1    S    
C45   N7    S    
O3    V1    S    
V1    O10   S    
N5    H28   S    
C18   C20   A    
N4    H27   S    
C56   H40   S    
O15   C51   A    
C35   C41   A    
N2    H22   S    
C39   N5    S    
N6    H34   S    
C31   H12   S    
C54   H32   S    
O7    V2    S    
C6    C21   A    
C9    C57   S    
C29   C33   A    
C28   C44   A    
C25   C26   D    
C47   C49   S    
O18   C51   A    
C29   C30   A    
C17   H3    S    
N3    H24   S    
C16   H6    S    
C10   C11   A    
V3    O20   S    
O19   C52   A    
C9    C10   A    
C25   C53   S    
O13   V3    S    
C1    C27   S    
