data_mof_unit_35104.cif
_audit_creation_date              2013-03-05T15:57:38-0500
_audit_creation_method            fapswitch 2.2
_symmetry_space_group_name_H-M    P1
_symmetry_Int_Tables_number       1
_space_group_crystal_system       triclinic
_cell_length_a                    19.493331
_cell_length_b                    17.767572
_cell_length_c                    12.611006
_cell_angle_alpha                 90.20859
_cell_angle_beta                  98.560973
_cell_angle_gamma                 91.081615
_cell_volume                      4318.28374405

loop_
_atom_site_label
_atom_site_type_symbol
_atom_site_description
_atom_site_fract_x
_atom_site_fract_y
_atom_site_fract_z
_atom_type_partial_charge
O1    O     O_R   0.448200 0.076800 0.373930 -0.552643
O2    O     O_R   0.448200 0.923200 0.373930 -0.571593
O3    O     O_R   0.948200 0.576800 0.373930 -0.560427
O4    O     O_R   0.948200 0.423200 0.373930 -0.572641
O5    O     O_R   0.414750 0.076790 0.542400 -0.639690
O6    O     O_R   0.414750 0.923210 0.542400 -0.625244
O7    O     O_R   0.914750 0.576790 0.542400 -0.633501
O8    O     O_R   0.914750 0.423210 0.542400 -0.624125
C1    C     C_R   0.408669 0.099506 0.442591 0.883303
C2    C     C_R   0.407274 0.900609 0.442176 0.903058
C3    C     C_R   0.912858 0.604312 0.445548 0.869090
C4    C     C_R   0.913915 0.393950 0.445481 0.883465
Zn1   Zn    Zn3+2 0.522330 1.000000 0.387520 1.087524
Zn2   Zn    Zn3+2 0.022330 0.500000 0.387520 1.090402
Zn3   Zn    Zn3+2 0.477660 0.000000 0.612480 0.937084
Zn4   Zn    Zn3+2 0.977660 0.500000 0.612480 0.926442
O9    O     O_R   0.585240 0.923200 0.457600 -0.506839
O10   O     O_R   0.585240 0.076800 0.457600 -0.581932
O11   O     O_R   0.085240 0.423200 0.457600 -0.510256
O12   O     O_R   0.085240 0.576800 0.457600 -0.574407
O13   O     O_R   0.551780 0.923190 0.626070 -0.651498
O14   O     O_R   0.551780 0.076810 0.626070 -0.643393
O15   O     O_R   0.051780 0.423190 0.626070 -0.654397
O16   O     O_R   0.051780 0.576810 0.626070 -0.646441
C5    C     C_R   0.588707 0.897169 0.555193 0.904198
C6    C     C_R   0.589505 0.101993 0.556929 0.918098
C7    C     C_R   0.090170 0.399455 0.556871 0.898647
C8    C     C_R   0.085168 0.606647 0.552300 0.847124
C9    C     C_R   0.744079 0.182054 0.730162 -0.181447
C10   C     C_R   0.715474 0.778182 0.728013 -0.196441
C11   C     C_R   0.167723 0.784427 0.684108 -0.189821
C12   C     C_R   0.256277 0.336340 0.705228 -0.190018
H1    H     H_    0.663567 0.104554 0.754854 0.163915
H2    H     H_    0.632783 0.848587 0.756395 0.179108
H3    H     H_    0.117107 0.687149 0.740743 0.178720
H4    H     H_    0.177204 0.408738 0.742431 0.157153
H5    H     H_    0.235216 0.918515 0.678429 0.136083
H6    H     H_    0.384942 0.294061 0.701549 0.154100
H7    H     H_    0.870895 0.242258 0.757029 0.163478
H8    H     H_    0.843932 0.725907 0.763121 0.163331
H9    H     H_    0.772663 0.172721 0.809388 0.160393
H10   H     H_    0.734866 0.773640 0.812727 0.149951
H11   H     H_    0.174825 0.812317 0.761617 0.150013
H12   H     H_    0.292358 0.355507 0.774280 0.149312
C13   C     C_R   0.643783 0.155663 0.597353 -0.146192
C14   C     C_R   0.637605 0.836866 0.586154 -0.155251
C15   C     C_R   0.120689 0.680055 0.569906 -0.165706
C16   C     C_R   0.145802 0.348333 0.593510 -0.137400
C17   C     C_R   0.357720 0.791363 0.328580 0.295437
C18   C     C_R   0.299091 0.111322 0.319289 0.269006
C19   C     C_R   0.848770 0.305096 0.305819 0.295288
C20   C     C_R   0.830773 0.666243 0.304449 0.296334
C21   C     C_R   0.302463 0.742460 0.292305 -0.244337
C22   C     C_R   0.228297 0.118253 0.320670 -0.218247
C23   C     C_R   0.784467 0.268288 0.278299 -0.264155
C24   C     C_R   0.759128 0.674974 0.280660 -0.242151
C25   C     C_R   0.243058 0.742041 0.340494 -0.220747
C26   C     C_R   0.204847 0.160980 0.399592 -0.173839
C27   C     C_R   0.744186 0.249821 0.356860 -0.190867
C28   C     C_R   0.721092 0.690312 0.362542 -0.153263
C29   C     C_R   0.237207 0.790618 0.426997 0.105075
C30   C     C_R   0.251281 0.206053 0.470993 0.079739
C31   C     C_R   0.770422 0.260659 0.466641 0.102227
C32   C     C_R   0.755481 0.709718 0.465818 0.099291
C33   C     C_R   0.287209 0.848866 0.451992 0.067048
C34   C     C_R   0.323161 0.193253 0.476661 0.038294
C35   C     C_R   0.837421 0.292039 0.494183 0.045084
C36   C     C_R   0.825408 0.691478 0.493581 0.053990
C37   C     C_R   0.735371 0.233725 0.549476 -0.008842
C38   C     C_R   0.722526 0.748369 0.541392 -0.022366
C39   C     C_R   0.189355 0.776297 0.499192 0.007250
C40   C     C_R   0.228931 0.260213 0.541106 -0.027863
C41   C     C_R   0.773346 0.223316 0.653671 0.126297
C42   C     C_R   0.751293 0.746837 0.651166 0.130356
C43   C     C_R   0.197172 0.814944 0.598384 0.149538
C44   C     C_R   0.277367 0.287933 0.629119 0.127780
C45   C     C_R   0.235205 0.882436 0.608985 -0.224497
C46   C     C_R   0.347367 0.270868 0.637123 -0.215774
C47   C     C_R   0.841403 0.249985 0.678030 -0.230493
C48   C     C_R   0.818935 0.722411 0.680454 -0.223919
C49   C     C_R   0.275803 0.902075 0.530846 -0.156354
C50   C     C_R   0.370508 0.227866 0.558463 -0.133019
C51   C     C_R   0.872968 0.284606 0.599468 -0.139446
C52   C     C_R   0.857631 0.702175 0.601067 -0.141241
C53   C     C_R   0.665220 0.210808 0.530135 0.194028
C54   C     C_R   0.669697 0.799343 0.507929 0.265413
C55   C     C_R   0.138669 0.719453 0.480507 0.192438
C56   C     C_R   0.162337 0.292661 0.522979 0.244064
C57   C     C_R   0.681226 0.144594 0.699891 -0.241898
C58   C     C_R   0.657493 0.821323 0.695458 -0.245898
C59   C     C_R   0.134233 0.713867 0.671939 -0.232177
C60   C     C_R   0.190402 0.365974 0.687889 -0.267933
C61   C     C_R   0.349240 0.848050 0.404685 -0.212811
C62   C     C_R   0.346459 0.142130 0.404618 -0.204277
C63   C     C_R   0.869139 0.327400 0.414429 -0.189087
C64   C     C_R   0.860594 0.661098 0.413480 -0.199147
H13   H     H_    0.695645 0.220424 0.330576 0.169541
H14   H     H_    0.665300 0.691964 0.343056 0.206683
H15   H     H_    0.205549 0.698420 0.315401 0.184959
H16   H     H_    0.150281 0.156149 0.404509 0.208824
H17   H     H_    0.308076 0.699065 0.233865 0.183571
H18   H     H_    0.191058 0.088697 0.261998 0.203120
H19   H     H_    0.765885 0.251945 0.196102 0.196939
H20   H     H_    0.732676 0.671263 0.198965 0.179493
H21   H     H_    0.301377 0.956502 0.536942 0.159560
H22   H     H_    0.425909 0.220204 0.563644 0.177128
H23   H     H_    0.927062 0.301233 0.620027 0.181371
H24   H     H_    0.912706 0.694433 0.624861 0.174887
C65   C     C_R   0.642614 0.987704 0.131300 0.269025
C66   C     C_R   0.140415 0.481642 0.129250 0.260352
H25   H     H_    0.667471 0.998219 0.929330 0.181261
H26   H     H_    0.166301 0.489513 0.929279 0.186472
N1    N     N_R   0.552340 0.000000 0.237260 -0.173721
N2    N     N_R   0.052340 0.500000 0.237260 -0.154736
C67   C     C_R   0.379239 0.007147 0.762707 -0.078083
C68   C     C_R   0.878698 0.502634 0.759348 -0.048401
C69   C     C_R   0.352064 0.998952 0.857026 -0.320438
C70   C     C_R   0.850969 0.507676 0.853266 -0.342554
C71   C     C_R   0.396098 0.983159 0.951503 0.523852
C72   C     C_R   0.894695 0.507988 0.951945 0.520660
C73   C     C_R   0.469669 0.988348 0.953680 -0.077321
C74   C     C_R   0.968579 0.505165 0.954193 -0.030510
C75   C     C_R   0.493915 0.994232 0.853498 0.192396
C76   C     C_R   0.993306 0.501435 0.854098 0.171771
C77   C     C_R   0.520058 0.989408 0.048095 -0.057301
C78   C     C_R   0.019300 0.503352 0.048402 -0.050648
C79   C     C_R   0.592153 0.989507 0.039075 -0.000152
C80   C     C_R   0.090821 0.493561 0.038657 0.011324
C81   C     C_R   0.613162 0.993867 0.938515 -0.246383
C82   C     C_R   0.112119 0.493949 0.938507 -0.217795
C83   C     C_R   0.564731 0.996033 0.847657 -0.192953
C84   C     C_R   0.064026 0.499213 0.848059 -0.193826
C85   C     C_R   0.502500 0.995064 0.151369 -0.095008
C86   C     C_R   0.002915 0.508403 0.152418 -0.017933
C87   C     C_R   0.621254 0.998103 0.231312 0.567407
C88   C     C_R   0.119923 0.486721 0.230014 0.545929
N3    N     N_R   0.448170 0.000000 0.762060 -0.125026
N4    N     N_R   0.948170 0.500000 0.762060 -0.134639
H27   H     H_    0.450385 0.997503 0.167621 0.256042
H28   H     H_    0.952435 0.517999 0.171749 0.225669
H29   H     H_    0.345061 0.016973 0.688985 0.158344
H30   H     H_    0.844874 0.502690 0.683137 0.182290
H31   H     H_    0.296419 0.000113 0.855755 0.175521
H32   H     H_    0.795431 0.512708 0.849336 0.168903
H33   H     H_    0.584193 0.000973 0.773328 0.201665
H34   H     H_    0.083535 0.499766 0.773465 0.208071
O17   O     O_3   0.712474 0.979682 0.124950 -0.651251
C89   C     C_3   0.725051 0.903864 0.100604 0.101750
H35   H     H_    0.700302 0.889017 0.017823 0.137208
H36   H     H_    0.704081 0.864395 0.156825 0.201396
C90   C     C_3   0.803378 0.892842 0.109491 -0.346862
H37   H     H_    0.828604 0.943585 0.079696 0.246668
H38   H     H_    0.825543 0.884631 0.194952 0.239265
C91   C     C_3   0.819754 0.824790 0.044403 -0.837524
H39   H     H_    0.787079 0.775710 0.060978 0.285384
H40   H     H_    0.875352 0.810729 0.065623 0.307559
H41   H     H_    0.809300 0.837643 0.957493 0.234523
O18   O     O_3   0.208368 0.465056 0.119561 -0.660524
C92   C     C_3   0.215276 0.386037 0.119895 0.104811
H42   H     H_    0.184569 0.360761 0.046318 0.146799
H43   H     H_    0.197487 0.360612 0.191918 0.218211
C93   C     C_3   0.291638 0.367341 0.122148 -0.376125
H44   H     H_    0.309732 0.389074 0.048285 0.226711
H45   H     H_    0.323026 0.395247 0.192798 0.246495
C94   C     C_3   0.302740 0.282580 0.129278 -0.825570
H46   H     H_    0.286313 0.260138 0.203909 0.275535
H47   H     H_    0.358620 0.270818 0.130702 0.284682
H48   H     H_    0.272535 0.253387 0.058809 0.265771
O19   O     O_3   0.364951 0.961419 0.038058 -0.605605
C95   C     C_3   0.362027 0.881867 0.043485 0.154889
H49   H     H_    0.352670 0.867505 0.125700 0.217009
H50   H     H_    0.412142 0.855879 0.032348 0.143445
C96   C     C_3   0.301922 0.848342 0.963271 -0.420193
H51   H     H_    0.253833 0.880006 0.968095 0.253249
H52   H     H_    0.314461 0.852955 0.880437 0.210203
C97   C     C_3   0.288656 0.765452 0.985580 -0.863059
H53   H     H_    0.336920 0.733047 0.986556 0.283074
H54   H     H_    0.248420 0.741851 0.921935 0.254066
H55   H     H_    0.269585 0.759426 0.063718 0.273769
O20   O     O_3   0.864716 0.520806 0.042654 -0.621368
C98   C     C_3   0.819357 0.461075 0.062656 0.106320
H56   H     H_    0.839596 0.438128 0.142563 0.188408
H57   H     H_    0.815508 0.413718 0.003418 0.160416
C99   C     C_3   0.747070 0.491374 0.068292 -0.347799
H58   H     H_    0.750860 0.536650 0.129954 0.250996
H59   H     H_    0.725177 0.515556 0.989714 0.223942
C100  C     C_3   0.698136 0.429386 0.097702 -0.902899
H60   H     H_    0.693304 0.383136 0.037377 0.268466
H61   H     H_    0.645961 0.452835 0.099822 0.275924
H62   H     H_    0.717791 0.406471 0.178101 0.277030
N5    N     N_R   0.615299 0.250766 0.455205 0.192248
O21   O     O_R   0.552931 0.223726 0.425044 -0.407022
O22   O     O_R   0.627768 0.320760 0.433003 -0.377406
N6    N     N_R   0.662043 0.825853 0.399073 0.212350
O23   O     O_R   0.605305 0.812060 0.332884 -0.341838
O24   O     O_R   0.715746 0.854423 0.362434 -0.420794
N7    N     N_R   0.089699 0.723556 0.383037 0.221118
O25   O     O_R   0.085139 0.671576 0.309311 -0.387952
O26   O     O_R   0.056075 0.785556 0.361649 -0.341710
N8    N     N_R   0.114029 0.277702 0.427412 0.198098
O27   O     O_R   0.051365 0.254118 0.435103 -0.394343
O28   O     O_R   0.129476 0.296837 0.334184 -0.367546
N9    N     N_R   0.424400 0.776176 0.298771 0.213929
O29   O     O_R   0.428890 0.750756 0.203203 -0.425252
O30   O     O_R   0.477323 0.769037 0.373820 -0.359246
N10   N     N_R   0.321925 0.067745 0.236122 0.212746
O31   O     O_R   0.289755 0.004992 0.204295 -0.392151
O32   O     O_R   0.364077 0.098664 0.177460 -0.380271
N11   N     N_R   0.894765 0.311384 0.226438 0.194757
O33   O     O_R   0.870647 0.300431 0.125554 -0.460176
O34   O     O_R   0.961491 0.307807 0.255381 -0.287653
N12   N     N_R   0.872147 0.663690 0.219153 0.213611
O35   O     O_R   0.842413 0.653826 0.120705 -0.408051
O36   O     O_R   0.935869 0.689129 0.235664 -0.298976
O37   O     O_3   0.667562 0.994511 0.325603 -0.564198
C101  C     C_3   0.717529 0.053957 0.335037 0.119041
H63   H     H_    0.704784 0.094066 0.396256 0.136729
H64   H     H_    0.719562 0.086353 0.259926 0.131827
C102  C     C_3   0.788994 0.021978 0.374868 -0.279761
H65   H     H_    0.787029 0.990409 0.450362 0.239643
H66   H     H_    0.803225 0.982322 0.314063 0.258435
C103  C     C_3   0.844898 0.083657 0.395821 -0.913961
H67   H     H_    0.846703 0.117631 0.322514 0.287464
H68   H     H_    0.896270 0.057733 0.419227 0.280592
H69   H     H_    0.834568 0.120683 0.462420 0.265393
O38   O     O_3   0.164724 0.467050 0.320765 -0.596122
C104  C     C_3   0.213449 0.525801 0.350635 0.094564
H70   H     H_    0.186911 0.579743 0.357131 0.160734
H71   H     H_    0.250270 0.531741 0.291670 0.173535
C105  C     C_3   0.254541 0.507992 0.460231 -0.329190
H72   H     H_    0.218183 0.498951 0.519239 0.225596
H73   H     H_    0.283792 0.455382 0.454416 0.237256
C106  C     C_3   0.305177 0.572028 0.500289 -0.936493
H74   H     H_    0.341671 0.583054 0.442099 0.282653
H75   H     H_    0.335512 0.556435 0.578448 0.273143
H76   H     H_    0.276459 0.624114 0.511786 0.261835

loop_
_geom_bond_atom_site_label_1
_geom_bond_atom_site_label_2
_geom_bond_distance
_ccdc_geom_bond_type
C7    C16   1.451090 S    
C3    C64   1.462391 S    
N6    O24   1.301051 A    
N5    O22   1.302097 A    
C17   N9    1.435840 S    
C8    C15   1.465576 S    
C26   C30   1.412863 A    
C94   H46   1.111287 S    
C23   C27   1.389246 A    
C65   C87   1.398510 A    
O19   C95   1.415831 S    
C13   C53   1.396149 A    
O17   C89   1.414535 S    
O10   C6    1.319050 A    
C101  C102  1.529539 S    
C10   C58   1.389382 A    
C9    C57   1.384910 A    
C20   C64   1.414858 A    
Zn3   O14   1.956926 S    
H3    C59   1.083020 S    
C96   H51   1.111567 S    
C35   C51   1.411145 A    
N9    O30   1.300490 A    
C104  H70   1.106189 S    
C36   C64   1.413679 A    
C11   H11   1.083396 S    
Zn1   O10   1.937086 S    
C32   C36   1.400384 A    
C76   N4    1.347923 A    
C69   H31   1.083018 S    
C44   C46   1.392452 A    
C93   H44   1.111979 S    
C70   H32   1.081768 S    
C69   C71   1.393604 A    
C86   H28   1.065019 S    
C10   C42   1.396115 A    
C100  H61   1.110290 S    
N10   O32   1.300440 A    
C98   C99   1.529261 S    
C102  H66   1.108237 S    
C95   H49   1.108990 S    
N7    O25   1.300524 A    
C25   H15   1.069299 S    
C23   H19   1.082632 S    
C53   N5    1.449531 S    
C99   H58   1.110558 S    
C76   C84   1.393238 A    
C105  C106  1.526096 S    
C90   C91   1.524138 S    
N7    O26   1.301015 A    
O2    Zn1   1.956946 S    
C46   C50   1.382738 A    
C100  H62   1.110774 S    
O13   C5    1.316043 A    
C6    C13   1.444463 S    
C52   H24   1.082371 S    
O6    Zn3   1.936966 S    
C33   C49   1.413870 A    
C65   C79   1.407897 A    
C97   H55   1.108607 S    
C87   O37   1.384216 S    
C67   N3    1.353294 A    
C51   H23   1.082902 S    
N8    O27   1.301299 A    
C67   C69   1.379343 A    
C19   C63   1.420893 A    
C12   C44   1.398133 A    
C38   C42   1.414696 A    
C90   H37   1.112010 S    
C16   C56   1.401585 A    
C4    C63   1.472825 S    
C37   C41   1.423429 A    
C32   C38   1.409539 A    
O4    C4    1.304154 A    
O11   C7    1.313038 A    
C106  H74   1.110943 S    
C91   H40   1.110391 S    
C66   O18   1.385323 S    
C40   C44   1.425640 A    
C34   C62   1.410374 A    
C75   C83   1.393076 A    
C74   C78   1.428937 A    
H4    C60   1.082990 S    
C71   C73   1.431533 A    
N6    O23   1.301326 A    
Zn4   O16   1.956926 S    
C42   C48   1.393254 A    
C90   H38   1.111033 S    
C35   C63   1.401316 A    
C94   H47   1.110561 S    
C65   O17   1.385980 S    
C79   C81   1.391437 A    
C31   C37   1.410997 A    
C40   C56   1.417971 A    
H25   C81   1.083363 S    
O7    C3    1.312985 A    
C68   N4    1.351276 A    
C96   H52   1.110662 S    
C41   C47   1.390263 A    
C84   H34   1.065878 S    
C31   C35   1.404721 A    
C73   C75   1.416817 A    
C30   C34   1.415081 A    
C20   C24   1.395822 A    
C48   C52   1.390331 A    
C36   C52   1.417120 A    
O1    C1    1.309263 A    
Zn2   O12   1.937086 S    
C89   C90   1.530603 S    
C26   H16   1.076487 S    
C67   H29   1.076972 S    
C24   H20   1.082455 S    
C91   H41   1.109976 S    
C98   H57   1.117152 S    
C21   H17   1.082902 S    
C102  H65   1.111941 S    
C21   C25   1.385466 A    
N10   O31   1.301118 A    
C18   C62   1.411035 A    
O12   C8    1.305153 A    
C103  H69   1.109079 S    
Zn2   N2    2.064707 S    
H5    C45   1.083384 S    
N5    O21   1.300977 A    
C15   C55   1.413523 A    
C98   H56   1.108179 S    
C82   C84   1.369090 A    
O37   C101  1.415701 S    
H2    C58   1.083296 S    
O5    C1    1.312376 A    
H1    C57   1.081862 S    
C34   C50   1.408807 A    
C93   C94   1.526575 S    
C43   C45   1.393308 A    
C19   N11   1.443181 S    
C11   C43   1.403394 A    
C92   H42   1.114628 S    
C45   C49   1.394044 A    
O8    C4    1.324215 A    
C92   H43   1.113613 S    
N11   O33   1.301607 A    
C12   H12   1.084167 S    
C92   C93   1.527444 S    
C30   C40   1.421960 A    
H8    C48   1.084111 S    
C18   C22   1.390473 A    
C101  H63   1.106976 S    
C105  H73   1.111904 S    
C106  H75   1.110225 S    
C91   H39   1.108973 S    
O3    Zn2   1.995477 S    
N1    C87   1.357598 A    
C71   O19   1.378708 S    
C68   H30   1.081578 S    
C18   N10   1.429591 S    
N8    O28   1.301145 A    
O7    Zn4   1.973759 S    
C104  H71   1.111706 S    
N12   O36   1.300668 A    
C73   C77   1.426111 A    
C85   H27   1.067493 S    
Zn4   O15   1.995458 S    
O15   C7    1.305016 A    
O14   C6    1.297151 A    
O18   C92   1.412917 S    
C27   H13   1.079222 S    
C39   C55   1.393945 A    
C27   C31   1.413822 A    
O1    Zn1   1.995477 S    
C55   N7    1.442709 S    
C74   C76   1.418390 A    
C38   C54   1.402657 A    
C14   C54   1.415535 A    
Zn3   N3    2.052229 S    
C37   C53   1.405064 A    
O20   C98   1.415864 S    
C72   C74   1.438128 A    
C20   N12   1.438369 S    
N2    C86   1.339772 A    
C22   C26   1.385265 A    
C96   C97   1.524908 S    
C77   C85   1.398751 A    
C49   H21   1.076759 S    
C88   O38   1.382575 S    
C103  H68   1.110196 S    
C78   C80   1.431483 A    
C13   C57   1.403511 A    
C9    H9    1.084045 S    
C15   C59   1.404832 A    
Zn2   O11   1.973884 S    
C22   H18   1.083086 S    
Zn4   N4    2.052229 S    
O16   C8    1.319446 A    
C89   H36   1.113835 S    
C80   C82   1.386944 A    
C66   C88   1.390720 A    
C25   C29   1.407793 A    
C14   C58   1.405113 A    
C94   H48   1.111224 S    
H6    C46   1.084175 S    
C75   N3    1.354083 A    
C11   C59   1.399757 A    
C2    C61   1.474136 S    
C99   C100  1.526164 S    
Zn1   O9    1.973884 S    
C28   C32   1.411598 A    
C17   C61   1.417522 A    
C56   N8    1.435358 S    
C97   H53   1.110792 S    
C72   O20   1.379908 S    
O9    C5    1.309113 A    
C105  H72   1.111506 S    
C99   H59   1.110333 S    
C93   H45   1.112233 S    
C54   N6    1.440495 S    
C102  C103  1.524929 S    
C39   C43   1.411568 A    
C29   C39   1.417520 A    
C12   C60   1.384479 A    
Zn3   O13   1.995458 S    
C95   H50   1.115656 S    
C17   C21   1.392683 A    
C1    C62   1.462148 S    
C33   C61   1.426045 A    
N11   O34   1.300411 A    
C68   C70   1.376465 A    
C83   H33   1.065603 S    
C19   C23   1.399015 A    
C89   H35   1.111488 S    
C50   H22   1.083380 S    
C29   C33   1.410167 A    
O4    Zn2   1.956946 S    
C103  H67   1.110507 S    
C106  H76   1.110677 S    
C70   C72   1.399709 A    
O5    Zn3   1.973759 S    
O3    C3    1.313030 A    
O6    C2    1.311198 A    
C47   C51   1.382094 A    
C24   C28   1.387029 A    
C100  H60   1.110897 S    
C104  C105  1.528118 S    
C9    C41   1.395216 A    
N12   O35   1.299382 A    
C78   C86   1.398468 A    
O8    Zn4   1.936966 S    
O38   C104  1.409569 S    
C16   C60   1.396293 A    
C28   H14   1.079710 S    
C66   C80   1.401907 A    
C77   C79   1.426713 A    
N2    C88   1.359051 A    
C10   H10   1.082712 S    
N1    C85   1.344480 A    
N9    O29   1.301192 A    
H26   C82   1.083943 S    
C5    C14   1.462786 S    
Zn1   N1    2.064707 S    
C101  H64   1.115516 S    
H7    C47   1.084121 S    
C97   H54   1.110365 S    
C81   C83   1.373056 A    
C95   C96   1.538596 S    
O2    C2    1.316485 A    
