data_mof_unit_47322.cif
_audit_creation_date              2013-03-05T16:14:05-0500
_audit_creation_method            fapswitch 2.2
_symmetry_space_group_name_H-M    P1
_symmetry_Int_Tables_number       1
_space_group_crystal_system       triclinic
_cell_length_a                    8.48445
_cell_length_b                    17.302155
_cell_length_c                    22.907102
_cell_angle_alpha                 99.425356
_cell_angle_beta                  90.301486
_cell_angle_gamma                 98.730803
_cell_volume                      3277.34329885

loop_
_atom_site_label
_atom_site_type_symbol
_atom_site_description
_atom_site_fract_x
_atom_site_fract_y
_atom_site_fract_z
_atom_type_partial_charge
P1    P     P_3+3 0.055640 0.433080 0.366120 0.543013
O1    O     O_2   0.889310 0.456460 0.358460 -0.373027
O2    O     O_3   0.129890 0.457280 0.429550 -0.294731
O3    O     O_3   0.674650 0.600620 0.400940 -0.384345
O4    O     O_2   0.797585 0.567985 0.294599 -0.431161
O5    O     O_3   0.027846 0.328212 0.357372 -0.512459
O6    O     O_3   0.636717 0.691687 0.308909 -0.555484
H1    H     H_    0.860100 0.720942 0.348494 0.154873
C1    C     C_3   0.822110 0.807259 0.293654 0.207277
H2    H     H_    0.812703 0.776236 0.247126 0.165631
P2    P     P_3+3 0.671420 0.681950 0.554390 0.510612
P3    P     P_3+3 0.154258 0.743041 0.433707 0.491120
O7    O     O_2   0.849130 0.693580 0.537840 -0.295485
O8    O     O_3   0.093680 0.641380 0.431770 -0.361075
O9    O     O_2   0.042263 0.785353 0.476600 -0.332878
O10   O     O_3   0.678382 0.701390 0.631561 -0.574796
O11   O     O_3   0.121599 0.770154 0.363770 -0.589315
C2    C     C_3   0.236077 0.745747 0.322416 0.225294
H3    H     H_    0.345461 0.737513 0.345954 0.044605
C3    C     C_3   0.299262 0.811066 0.284624 0.993586
C4    C     C_3   0.282020 0.713549 0.633469 0.773718
H4    H     H_    0.345133 0.677089 0.599773 -0.048152
C5    C     C_3   0.395323 0.753199 0.685579 0.078543
H5    H     H_    0.446593 0.706981 0.704077 0.064052
H6    H     H_    0.492877 0.795077 0.670534 0.136050
Ba1   Ba    Ba6+2 0.857050 0.537370 0.474190 1.649428
C6    C     C_3   0.909636 0.289120 0.314256 0.437203
H7    H     H_    0.810748 0.323819 0.312250 0.081535
C7    C     C_3   0.836645 0.210107 0.333084 0.115913
H8    H     H_    0.754951 0.173252 0.297801 0.108645
H9    H     H_    0.766360 0.221643 0.372951 0.125136
C8    C     C_3   0.745025 0.643938 0.654846 0.231198
H10   H     H_    0.857371 0.633856 0.633164 0.147220
H11   H     H_    0.659056 0.587962 0.648090 0.051978
C9    C     C_3   0.778937 0.673057 0.721180 0.105056
H12   H     H_    0.856551 0.636533 0.739424 0.069165
H13   H     H_    0.665939 0.668872 0.745405 0.087385
P4    P     P_3+3 0.134070 0.566990 0.633890 0.510246
O12   O     O_2   0.300380 0.543560 0.641570 -0.403931
O13   O     O_3   0.059830 0.542790 0.570460 -0.287695
O14   O     O_3   0.515070 0.399440 0.599070 -0.304853
O15   O     O_3   0.149135 0.670148 0.654918 -0.573732
P5    P     P_3+3 0.058183 0.254661 0.563102 0.539345
O16   O     O_3   0.612780 0.404640 0.465950 -0.304052
O17   O     O_3   0.096040 0.358680 0.568240 -0.296106
O18   O     O_2   0.186705 0.218862 0.524687 -0.347520
O19   O     O_3   0.086071 0.227084 0.632168 -0.560296
Ba2   Ba    Ba6+2 0.332790 0.462700 0.525820 1.694655
P6    P     P_3+3 0.647797 0.595387 0.324506 0.429935
C10   C     C_3   0.760603 0.750203 0.336939 0.383698
H14   H     H_    0.946686 0.828932 0.306793 0.141138
O20   O     O_3   0.576930 0.595420 0.534060 -0.388553
C11   C     C_3   0.454102 0.336684 0.341302 0.297206
H15   H     H_    0.329206 0.337636 0.354917 0.135252
H16   H     H_    0.525694 0.396423 0.354776 0.082111
C12   C     C_3   0.454492 0.315662 0.273643 -0.577893
H17   H     H_    0.376220 0.351458 0.254437 0.198977
H18   H     H_    0.576690 0.332282 0.258190 0.195080
P7    P     P_3+3 0.520135 0.305289 0.444018 0.539262
O21   O     O_2   0.340570 0.306450 0.462190 -0.307103
O22   O     O_3   0.520046 0.280263 0.366935 -0.594203
C13   C     C_3   0.100704 0.294875 0.675876 0.393206
H19   H     H_    0.204092 0.338011 0.667178 0.183311
H20   H     H_    0.991300 0.322951 0.677273 0.053691
C14   C     C_3   0.128316 0.271722 0.735866 -0.837058
H21   H     H_    0.226320 0.235689 0.733787 0.261845
H22   H     H_    0.162181 0.325899 0.769341 0.244347
H23   H     H_    0.018151 0.236610 0.749455 0.255590
P8    P     P_3+3 0.540102 0.416336 0.677064 0.487858
C15   C     C_3   0.596396 0.272911 0.675325 0.298447
H24   H     H_    0.719332 0.302556 0.669350 0.068140
O23   O     O_2   0.398119 0.456017 0.701174 -0.398867
O24   O     O_3   0.499705 0.326114 0.703094 -0.539288
H25   H     H_    0.541469 0.244104 0.631432 0.099870
C16   C     C_3   0.606329 0.210481 0.714892 -0.423464
H26   H     H_    0.483876 0.185554 0.726204 0.220852
H27   H     H_    0.672661 0.239779 0.756658 0.235443
H28   H     H_    0.987944 0.291683 0.919852 0.185478
C17   C     C_R   0.347564 0.508937 0.332329 -0.513253
C18   C     C_R   0.057154 0.561171 0.951921 -0.142654
C19   C     C_R   0.998277 0.561631 0.893938 0.572251
O25   O     O_2   0.975884 0.624080 0.879451 -0.562249
N1    N     N_R   0.967699 0.492033 0.853376 -0.156943
C20   C     C_R   0.970544 0.420209 0.872434 0.526543
O26   O     O_2   0.930457 0.358409 0.838005 -0.622817
C21   C     C_R   0.019197 0.417642 0.931559 -0.084625
C22   C     C_R   0.066735 0.488580 0.971104 -0.003529
C23   C     C_R   0.110155 0.632063 0.990443 -0.181847
C24   C     C_R   0.175646 0.632201 0.046527 0.526559
C25   C     C_R   0.182479 0.559531 0.067413 -0.212850
C26   C     C_R   0.122768 0.487181 0.029874 -0.061831
C27   C     C_R   0.024379 0.345383 0.951120 -0.130369
C28   C     C_R   0.075067 0.341368 0.009380 0.190586
C29   C     C_R   0.121783 0.413787 0.050446 -0.106730
C30   C     C_R   0.167338 0.416176 0.111331 0.524238
N2    N     N_R   0.227483 0.486980 0.147392 -0.163831
C31   C     C_R   0.247138 0.556755 0.124212 0.561504
C32   C     C_2   0.775688 0.470274 0.770953 -0.260172
C33   C     C_3   0.729762 0.480875 0.709434 0.023124
C34   C     C_1   0.012668 0.517300 0.689920 0.104342
C35   C     C_2   0.054101 0.523354 0.748459 -0.020889
C36   C     C_2   0.928488 0.493982 0.791261 0.141693
C37   C     C_R   0.427555 0.519515 0.232014 -0.231686
C38   C     C_R   0.463864 0.531700 0.293200 0.274008
C39   C     C_R   0.194040 0.474081 0.311917 0.189502
C40   C     C_R   0.154325 0.465897 0.250734 -0.304296
C41   C     C_R   0.270904 0.488539 0.209827 0.160999
O27   O     O_2   0.154831 0.355373 0.132365 -0.645995
O28   O     O_2   0.321847 0.616534 0.153154 -0.503421
C42   C     C_2   0.870667 0.477431 0.669861 0.083125
H29   H     H_    0.517846 0.539509 0.202301 0.179516
H30   H     H_    0.104884 0.688476 0.976368 0.220990
H31   H     H_    0.683730 0.451158 0.800577 0.175008
H32   H     H_    0.033095 0.443092 0.235103 0.162307
H33   H     H_    0.377032 0.518955 0.379266 0.168941
C43   C     C_2   0.436109 0.723258 0.492445 -0.351249
C44   C     C_3   0.365283 0.777009 0.458380 0.145822
C45   C     C_2   0.403816 0.863678 0.483993 -0.082726
C46   C     C_2   0.528714 0.889333 0.522880 0.135774
C47   C     C_2   0.611677 0.829097 0.545249 -0.287864
C48   C     C_1   0.563711 0.752352 0.526997 0.226310
C49   C     C_R   0.777447 0.141348 0.540903 -0.374948
C50   C     C_R   0.857959 0.213973 0.530061 0.208456
C51   C     C_R   0.618854 0.238421 0.481916 0.118517
C52   C     C_R   0.538129 0.165643 0.492508 -0.275158
C53   C     C_R   0.617843 0.115069 0.520344 0.116892
C54   C     C_2   0.603770 0.974132 0.535704 -0.186584
C55   C     C_2   0.531676 0.034557 0.524132 -0.097669
C56   C     C_R   0.781151 0.259305 0.497320 0.208377
H34   H     H_    0.405691 0.023429 0.511864 0.146200
H35   H     H_    0.713894 0.848914 0.575702 0.178407
H36   H     H_    0.840422 0.106706 0.565424 0.172919
H37   H     H_    0.728036 0.984768 0.550020 0.142856
H38   H     H_    0.346220 0.904242 0.463135 0.156668
H39   H     H_    0.415477 0.147043 0.476885 0.200257
H40   H     H_    0.397550 0.659856 0.480477 0.156040
Cl1   Cl    Cl    0.296977 0.807162 0.743825 -0.448940
C57   C     C_3   0.981621 0.271636 0.252506 -0.421758
C58   C     C_3   0.860025 0.269828 0.202691 -0.919523
H41   H     H_    0.824891 0.329332 0.203952 0.250875
H42   H     H_    0.913004 0.252084 0.159392 0.298363
H43   H     H_    0.752449 0.225910 0.206556 0.259531
H44   H     H_    0.086700 0.316021 0.248133 0.221653
H45   H     H_    0.025151 0.213587 0.245804 0.246374
Cl2   Cl    Cl    0.985384 0.153941 0.351000 -0.528495
Cl3   Cl    Cl    0.877767 0.773195 0.735270 -0.410784
C59   C     C_3   0.705752 0.794578 0.394885 -0.373342
C60   C     C_3   0.820360 0.869247 0.423571 -0.683084
H46   H     H_    0.831206 0.871702 0.471934 0.238709
H47   H     H_    0.942094 0.871539 0.406237 0.282302
H48   H     H_    0.773734 0.923707 0.416622 0.283877
H49   H     H_    0.588896 0.811970 0.386446 0.222763
H50   H     H_    0.691888 0.752141 0.426138 0.199030
C61   C     C_3   0.397316 0.227102 0.251417 -0.122441
C62   C     C_3   0.368592 0.210131 0.184427 -0.866690
H51   H     H_    0.269809 0.239956 0.171832 0.291511
H52   H     H_    0.478172 0.231274 0.161706 0.262091
H53   H     H_    0.335147 0.145288 0.169535 0.279675
H54   H     H_    0.488784 0.192074 0.263016 0.220564
H55   H     H_    0.285469 0.207146 0.273217 0.233241
Cl4   Cl    Cl    0.741578 0.897206 0.295570 -0.419605
Cl5   Cl    Cl    0.448873 0.778216 0.236813 -0.439199
C63   C     C_3   0.689379 0.142774 0.684713 -0.435938
C64   C     C_3   0.710328 0.084539 0.726394 -0.691141
H56   H     H_    0.785709 0.114979 0.765716 0.250235
H57   H     H_    0.592428 0.058460 0.741103 0.268889
H58   H     H_    0.769548 0.035882 0.702917 0.256031
H59   H     H_    0.616244 0.110284 0.645513 0.232754
H60   H     H_    0.808415 0.167076 0.670148 0.238826
C65   C     C_3   0.176236 0.662817 0.286702 -0.399935
C66   C     C_3   0.055301 0.656879 0.236112 -0.653345
H61   H     H_    0.948667 0.680723 0.252234 0.235546
H62   H     H_    0.106024 0.687191 0.200155 0.312374
H63   H     H_    0.017742 0.593701 0.216576 0.230377
H64   H     H_    0.281326 0.639142 0.267709 0.233258
H65   H     H_    0.124025 0.623677 0.317638 0.235995
C67   C     C_3   0.084002 0.260425 0.026934 -0.301909
C68   C     C_3   0.051932 0.187831 0.977854 -0.892580
H66   H     H_    0.926614 0.178865 0.960723 0.265782
H67   H     H_    0.136139 0.194219 0.941347 0.266163
H68   H     H_    0.069975 0.134113 0.996181 0.282421
H69   H     H_    0.205982 0.261183 0.045202 0.229391
H70   H     H_    0.996031 0.250417 0.061594 0.223912
Cl6   Cl    Cl    0.240748 0.726892 0.088528 -0.450887
C69   C     C_3   0.207174 0.575903 0.775452 -0.199201
C70   C     C_3   0.307052 0.534875 0.813555 -0.809751
H71   H     H_    0.274006 0.469380 0.804122 0.261424
H72   H     H_    0.435891 0.550235 0.804995 0.250395
H73   H     H_    0.293028 0.555622 0.861301 0.230267
H74   H     H_    0.286088 0.597944 0.741900 0.202569
H75   H     H_    0.176394 0.630654 0.802167 0.235035
Cl7   Cl    Cl    0.837550 0.425404 0.597928 -0.572841
Cl8   Cl    Cl    0.893455 0.337826 0.470032 -0.445118
Cl9   Cl    Cl    0.163617 0.840452 0.236078 -0.502273
Cl10  Cl    Cl    0.379577 0.899442 0.333595 -0.551318
Cl11  Cl    Cl    0.211951 0.788750 0.600442 -0.560343

loop_
_geom_bond_atom_site_label_1
_geom_bond_atom_site_label_2
_geom_bond_distance
_ccdc_geom_bond_type
C10   C59   1.532703 S    
C63   H60   1.108471 S    
C66   H61   1.091812 S    
C34   C42   1.332879 D    
C28   C29   1.439210 A    
N1    C36   1.466458 S    
C22   C26   1.430531 A    
C6    C7    1.541886 S    
C47   H35   1.086902 S    
C58   H42   1.107672 S    
C30   N2    1.384869 Am   
C1    H14   1.089827 S    
C60   H48   1.109665 S    
O19   C13   1.401239 S    
C68   H66   1.110937 S    
C69   C70   1.536757 S    
Ba1   O16   2.830873 S    
C69   H74   1.099252 S    
C65   H65   1.107446 S    
C11   H15   1.107941 S    
C43   C44   1.495793 S    
C66   H62   1.102439 S    
C35   C36   1.537935 S    
C40   H32   1.080972 S    
C16   C63   1.528795 S    
C64   H56   1.110898 S    
C9    H13   1.109064 S    
C20   C21   1.423403 A    
C2    H3    1.110117 S    
C18   C22   1.410166 A    
C17   H33   1.082393 S    
C57   H44   1.101330 S    
C7    Cl2   1.789643 S    
P4    O12   1.542969 D    
C58   H43   1.109338 S    
C68   H67   1.111114 S    
O17   Ba2   2.777423 S    
C62   H52   1.110547 S    
C65   C66   1.524084 S    
O16   P7    1.768611 S    
C67   H69   1.111706 S    
O2    Ba2   2.771072 S    
C12   H17   1.108687 S    
C17   C39   1.393476 A    
C37   H29   1.082568 S    
P1    O1    1.542698 D    
C49   H36   1.079163 S    
C16   H27   1.112622 S    
C45   C46   1.353228 D    
C34   C35   1.367687 D    
C13   H20   1.109388 S    
P2    O20   1.582529 S    
C59   C60   1.542813 S    
C11   O22   1.400320 S    
C20   O26   1.221307 D    
C63   C64   1.525152 S    
C14   H22   1.108927 S    
P3    O11   1.773247 S    
C15   H25   1.112190 S    
C5    H5    1.105842 S    
C69   H75   1.107710 S    
C15   H24   1.109885 S    
C7    H8    1.109692 S    
C1    H2    1.108685 S    
C25   C31   1.420257 A    
P4    Ba2   3.425146 S    
C45   H38   1.082204 S    
O5    C6    1.415520 S    
Ba1   Ba2   4.625335 S    
C52   H39   1.082248 S    
C11   H16   1.111535 S    
P7    O21   1.583670 D    
C4    H4    1.108102 S    
C50   C56   1.394656 A    
C62   H53   1.110210 S    
O4    P6    1.547566 D    
P2    C48   1.815182 S    
P6    C38   1.836110 S    
C35   C69   1.531236 S    
C3    Cl9   1.780174 S    
C19   N1    1.384518 Am   
Ba2   O21   2.863941 S    
C62   H51   1.108836 S    
C65   H64   1.099396 S    
C2    C65   1.541414 S    
C66   H63   1.108711 S    
P7    O22   1.747794 S    
C6    C57   1.546094 S    
C43   C48   1.321735 D    
P1    O5    1.771584 S    
C8    C9    1.531734 S    
C60   H46   1.104512 S    
O6    P6    1.776193 S    
C12   C61   1.535792 S    
C57   C58   1.527613 S    
C28   C67   1.531390 S    
C21   C22   1.404084 A    
C32   H31   1.085992 S    
P2    Ba1   3.440159 S    
H28   C27   1.079065 S    
C32   C36   1.354665 D    
C33   C42   1.506600 S    
C19   O25   1.221802 D    
C4    O15   1.395034 S    
P1    O2    1.547388 S    
C9    Cl3   1.783852 S    
C8    H11   1.108715 S    
C49   C53   1.413678 A    
P8    O23   1.536709 D    
C1    Cl4   1.786498 S    
C16   H26   1.111738 S    
C24   Cl6   1.765888 S    
C61   H55   1.109546 S    
C13   H19   1.103629 S    
Ba1   O20   2.974228 S    
C31   O28   1.217818 D    
P2    O10   1.743480 S    
O3    Ba1   2.737941 S    
N1    C20   1.386431 Am   
P3    O9    1.545864 D    
C58   H41   1.110491 S    
C14   H23   1.110057 S    
C3    Cl5   1.778647 S    
N2    C31   1.384561 Am   
C15   O24   1.402834 S    
O11   C2    1.422060 S    
O1    Ba1   2.823316 S    
C17   C38   1.392533 A    
O8    Ba1   2.776684 S    
P8    O24   1.747691 S    
P5    O17   1.763754 S    
C61   C62   1.525527 S    
C67   C68   1.531719 S    
P8    C33   1.885977 S    
P4    C34   1.885189 S    
N2    C41   1.469943 S    
P3    O8    1.749233 S    
C14   H21   1.109243 S    
C4    C5    1.529431 S    
C52   C53   1.409808 A    
O7    Ba1   2.863711 S    
C70   H72   1.111364 S    
C54   C55   1.349321 D    
P5    C50   1.844789 S    
C15   C16   1.530646 S    
C47   C48   1.325124 D    
O14   P8    1.768806 S    
C11   C12   1.533041 S    
P7    C51   1.846397 S    
O13   Ba2   2.977324 S    
C53   C55   1.487820 S    
C3    Cl10  1.781775 S    
C13   C14   1.519602 S    
C5    Cl1   1.785618 S    
O2    Ba1   2.976459 S    
C1    C10   1.549074 S    
C54   H37   1.081992 S    
O6    C10   1.413884 S    
C60   H47   1.105928 S    
C18   C19   1.418257 A    
C55   H34   1.084094 S    
C56   Cl8   1.742358 S    
C46   C47   1.496032 S    
P4    O15   1.755731 S    
C43   H40   1.084969 S    
O10   C8    1.390481 S    
C39   C40   1.418945 A    
O3    P6    1.750221 S    
C37   C41   1.414023 A    
C8    H10   1.101266 S    
C70   H73   1.106799 S    
C64   H57   1.110896 S    
C63   H59   1.109182 S    
C24   C25   1.425488 A    
C61   H54   1.110639 S    
C18   C23   1.399733 A    
C21   C27   1.402061 A    
C44   C45   1.503594 S    
C26   C29   1.423922 A    
P4    O13   1.547358 S    
P2    O7    1.548058 D    
Ba1   O13   2.770450 S    
C25   C26   1.418964 A    
P1    Ba1   3.424511 S    
C57   H45   1.109696 S    
C42   Cl7   1.742699 S    
C27   C28   1.415718 A    
O14   Ba2   2.737412 S    
C12   H18   1.108874 S    
C51   C56   1.397604 A    
C59   H49   1.103867 S    
H1    C10   1.100140 S    
C2    C3    1.567003 S    
C64   H58   1.110585 S    
C4    Cl11  1.780813 S    
C29   C30   1.437663 A    
C59   H50   1.101059 S    
P5    O18   1.543927 D    
C68   H68   1.110786 S    
C30   O27   1.217708 D    
P3    C44   1.852446 S    
C23   H30   1.083874 S    
Ba2   O20   2.830085 S    
C5    H6    1.109780 S    
C23   C24   1.396561 A    
C7    H9    1.100725 S    
C32   C33   1.507303 S    
C40   C41   1.422061 A    
C37   C38   1.408097 A    
C49   C50   1.396673 A    
O12   Ba2   2.823629 S    
C67   H70   1.108823 S    
C9    H12   1.103440 S    
C70   H71   1.110032 S    
P5    O19   1.750516 S    
O16   Ba2   2.973354 S    
P1    C39   1.864047 S    
C51   C52   1.397722 A    
C6    H7    1.108172 S    
C46   C54   1.489198 S    
