data_mof_unit_20122.cif
_audit_creation_date              2012-12-10T17:19:26-0500
_audit_creation_method            fapswitch 2.2
_symmetry_space_group_name_H-M    P1
_symmetry_Int_Tables_number       1
_space_group_crystal_system       triclinic
_cell_length_a                    14.955017
_cell_length_b                    11.095952
_cell_length_c                    9.861778
_cell_angle_alpha                 88.904569
_cell_angle_beta                  85.980137
_cell_angle_gamma                 95.307747
_cell_volume                      1624.89926631

loop_
_atom_site_label
_atom_site_type_symbol
_atom_type_description
_atom_site_fract_x
_atom_site_fract_y
_atom_site_fract_z
_atom_type_partial_charge
C1    C     C_R   0.499932 0.262055 0.501698 0.782849
C2    C     C_R   0.911450 0.528798 0.400967 0.082182
C3    C     C_R   0.931182 0.331708 0.703737 -0.088038
C4    C     C_R   0.026053 0.329154 0.698620 -0.070272
C5    C     C_R   0.082420 0.404324 0.601799 -0.000633
C6    C     C_R   0.042552 0.485035 0.516946 0.009954
C7    C     C_R   0.095026 0.578109 0.437889 0.041329
C8    C     C_R   0.049378 0.658761 0.358726 -0.124485
C9    C     C_R   0.960749 0.624856 0.329732 -0.255299
C10   C     C_R   0.176614 0.399883 0.582638 0.198848
C11   C     C_R   0.230009 0.494617 0.510443 -0.156000
C12   C     C_R   0.328716 0.496187 0.503512 0.902041
C13   C     C_R   0.189774 0.584155 0.438085 0.239330
C14   C     C_R   0.478143 0.098906 0.757196 -0.204174
C15   C     C_R   0.408790 0.048047 0.850426 0.247651
C16   C     C_R   0.364273 0.934965 0.828771 0.289033
C17   C     C_R   0.387128 0.873609 0.710895 0.243576
C18   C     C_R   0.453463 0.927562 0.612602 -0.025849
C19   C     C_R   0.483000 0.051713 0.625355 -0.096097
C20   C     C_R   0.499566 0.125516 0.503950 -0.132071
C21   C     C_R   0.499099 0.064357 0.379404 -0.176906
C22   C     C_R   0.504815 0.939317 0.373959 -0.101746
C23   C     C_R   0.494646 0.735805 0.498707 0.874242
C24   C     C_R   0.483467 0.867906 0.494483 -0.097057
C25   C     C_R   0.660515 0.613537 0.102711 0.222729
C26   C     C_R   0.735900 0.634841 0.002809 -0.086654
C27   C     C_R   0.719345 0.641733 0.864103 -0.192417
C28   C     C_R   0.629818 0.643184 0.838083 -0.007466
C29   C     C_R   0.569450 0.560598 0.915211 0.069479
C30   C     C_R   0.574796 0.556233 0.061620 0.120157
C31   C     C_R   0.426974 0.455549 0.081424 0.047995
C32   C     C_R   0.427059 0.457229 0.936081 0.357101
C33   C     C_R   0.669103 0.487139 0.497063 0.875818
C34   C     C_R   0.821104 0.500536 0.380087 0.219475
C35   C     C_R   0.763916 0.463655 0.492686 -0.134067
C36   C     C_R   0.799131 0.407994 0.603892 -0.222468
C37   C     C_R   0.892690 0.400738 0.605460 0.052641
C38   C     C_R   0.949118 0.471225 0.508297 0.089572
Cu1   Cu    Cu3+1 0.499990 0.499990 0.640660 1.078713
Cu2   Cu    Cu3+1 0.500010 0.500010 0.359340 1.092528
H1    H     H_    0.753481 0.370801 0.686938 0.227770
H2    H     H_    0.926176 0.683496 0.267049 0.187127
N1    N     N_R   0.500860 0.501210 0.147910 -0.218460
N2    N     N_R   0.500890 0.501290 0.852040 -0.207914
O1    O     O_R   0.499990 0.319640 0.618810 -0.575594
O2    O     O_R   0.500000 0.319660 0.381240 -0.537215
O3    O     O_R   0.370250 0.499960 0.618800 -0.508654
O4    O     O_R   0.370260 0.499980 0.381230 -0.572503
O5    O     O_R   0.500000 0.680340 0.618760 -0.565360
O6    O     O_R   0.500010 0.680360 0.381190 -0.535857
O7    O     O_R   0.629740 0.500020 0.618770 -0.585706
O8    O     O_R   0.629750 0.500040 0.381200 -0.536369
Br1   Br    Br    0.795571 0.416624 0.217543 -0.351602
C39   C     C_2   0.555313 0.178353 0.806157 0.995809
O9    O     O_2   0.545352 0.234974 0.909902 -0.475836
O10   O     O_R   0.640690 0.189193 0.736693 -0.753614
H3    H     H_    0.646362 0.137651 0.653678 0.301701
Br2   Br    Br    0.352127 0.146311 0.978044 -0.282602
Br3   Br    Br    0.272297 0.863857 0.962287 -0.207395
Br4   Br    Br    0.303662 0.741940 0.669017 -0.374019
C40   C     C_2   0.514035 0.888102 0.235383 0.937890
O11   O     O_2   0.576541 0.927575 0.155310 -0.522069
O12   O     O_R   0.445653 0.807246 0.191412 -0.675069
H4    H     H_    0.458587 0.779812 0.095565 0.368177
C41   C     C_2   0.341544 0.409451 0.157332 0.990559
O13   O     O_2   0.274403 0.463578 0.148714 -0.532274
O14   O     O_R   0.337300 0.307111 0.241853 -0.684412
H5    H     H_    0.274916 0.285495 0.287816 0.355424
Br5   Br    Br    0.675722 0.718001 0.254754 -0.419424
C42   C     C_2   0.828117 0.675114 0.039819 0.965272
O15   O     O_2   0.846105 0.778707 0.076297 -0.534244
O16   O     O_R   0.896419 0.598188 0.017743 -0.663577
H6    H     H_    0.958346 0.638752 0.032005 0.340245
C43   C     C_2   0.790226 0.674324 0.750535 0.954315
O17   O     O_2   0.869675 0.664293 0.764937 -0.544779
O18   O     O_R   0.765198 0.713000 0.623921 -0.720227
H7    H     H_    0.818618 0.732280 0.555371 0.345574
C44   C     C_2   0.601022 0.767023 0.819166 0.906479
O19   O     O_2   0.525995 0.789067 0.862487 -0.637866
O20   O     O_R   0.660528 0.860342 0.758503 -0.699796
H8    H     H_    0.633098 0.940242 0.755976 0.334050
Br6   Br    Br    0.313588 0.410855 0.864084 -0.307114
C45   C     C_2   0.872709 0.261150 0.810712 0.897037
O21   O     O_2   0.830050 0.313924 0.897519 -0.495361
O22   O     O_R   0.866277 0.134697 0.811270 -0.671507
H9    H     H_    0.823900 0.096879 0.888459 0.381041
C46   C     C_2   0.064603 0.263870 0.809651 0.962117
O23   O     O_2   0.057567 0.153174 0.814483 -0.466192
O24   O     O_R   0.106099 0.329536 0.911117 -0.674031
H10   H     H_    0.128206 0.275244 0.983013 0.380988
Br7   Br    Br    0.229358 0.248381 0.607379 -0.408226
Br8   Br    Br    0.266557 0.701303 0.323794 -0.331485
C47   C     C_2   0.083289 0.786829 0.326784 0.998899
O25   O     O_2   0.111310 0.850467 0.417240 -0.456218
O26   O     O_R   0.080839 0.837961 0.196645 -0.637099
H11   H     H_    0.061617 0.776502 0.127392 0.320388
C48   C     C_2   0.453995 0.113128 0.266746 0.997193
O27   O     O_2   0.497326 0.174138 0.176427 -0.442326
O28   O     O_R   0.362114 0.079294 0.258653 -0.644097
H12   H     H_    0.333867 0.027705 0.339225 0.342489

loop_
_geom_bond_atom_site_label_1
_geom_bond_atom_site_label_2
_ccdc_geom_bond_type
Cu1   O7    S    
C46   O23   D    
C47   O25   D    
O26   H11   S    
C12   O4    A    
C48   O27   D    
C7    C8    A    
C4    C46   S    
O22   H9    S    
C33   O8    A    
Cu2   O2    S    
C9    H2    S    
C29   C30   A    
C43   O18   S    
C45   O21   D    
C18   C24   A    
C28   C29   A    
C18   C19   A    
C5    C6    A    
C44   O20   S    
C1    O2    A    
C23   O5    A    
C15   C16   A    
O10   H3    S    
Cu2   O4    S    
C34   C35   A    
C40   O12   S    
Cu2   N1    S    
C19   C20   A    
C8    C9    A    
C41   O14   S    
C23   C24   S    
C6    C38   A    
C42   O15   D    
C27   C43   S    
C28   C44   S    
Cu1   O1    S    
C2    C34   A    
C47   O26   S    
C21   C22   A    
C36   H1    S    
C12   O3    A    
C48   O28   S    
C32   N2    A    
C39   O10   S    
C43   O17   D    
O14   H5    S    
O18   H7    S    
Cu1   Cu2   S    
C44   O19   D    
O16   H6    S    
C23   O6    A    
C25   C26   A    
Cu2   O8    S    
C35   C36   A    
C37   C38   A    
C21   C48   S    
C2    C38   A    
O28   H12   S    
C7    C13   A    
C17   C18   A    
C26   C27   A    
Cu1   N2    S    
C31   N1    A    
C14   C39   S    
C10   Br7   S    
C46   O24   S    
C29   N2    A    
C3    C45   S    
C26   C42   S    
C15   Br2   S    
C22   C24   A    
C30   N1    A    
C25   Br5   S    
C3    C4    A    
Cu1   O3    S    
C25   C30   A    
C31   C41   S    
C39   O9    D    
C36   C37   A    
C1    C20   S    
C45   O22   S    
C14   C19   A    
C31   C32   A    
C8    C47   S    
O20   H8    S    
C11   C12   S    
Cu1   O5    S    
C6    C7    A    
C33   O7    A    
C32   Br6   S    
C5    C10   A    
C13   Br8   S    
C22   C40   S    
C11   C13   A    
C1    O1    A    
C16   C17   A    
Cu2   O6    S    
C33   C35   S    
C40   O11   D    
C10   C11   A    
C17   Br4   S    
O12   H4    S    
C4    C5    A    
C20   C21   A    
C3    C37   A    
C34   Br1   S    
C41   O13   D    
C27   C28   A    
C14   C15   A    
C42   O16   S    
O24   H10   S    
C2    C9    A    
C16   Br3   S    
