data_mof_unit_61519.cif
_audit_creation_date              2012-12-10T18:55:59-0500
_audit_creation_method            fapswitch 2.2
_symmetry_space_group_name_H-M    P1
_symmetry_Int_Tables_number       1
_space_group_crystal_system       triclinic
_cell_length_a                    17.146139
_cell_length_b                    18.13946
_cell_length_c                    19.47629
_cell_angle_alpha                 89.656939
_cell_angle_beta                  89.409542
_cell_angle_gamma                 93.839459
_cell_volume                      6043.49694687

loop_
_atom_site_label
_atom_site_type_symbol
_atom_type_description
_atom_site_fract_x
_atom_site_fract_y
_atom_site_fract_z
_atom_type_partial_charge
C1    C     C_R   0.500134 0.500314 0.367465 0.820043
C2    C     C_R   0.499866 0.499686 0.632535 0.820043
C3    C     C_R   0.499319 0.432909 0.816895 -0.231422
C4    C     C_R   0.500681 0.567091 0.183105 -0.231422
C5    C     C_R   0.499365 0.499881 0.852424 0.014128
C6    C     C_R   0.500635 0.500118 0.147576 0.014129
C7    C     C_R   0.499534 0.566462 0.815466 -0.162917
C8    C     C_R   0.500465 0.433538 0.184534 -0.162917
C9    C     C_R   0.499616 0.566076 0.743980 -0.262753
C10   C     C_R   0.500384 0.433924 0.256020 -0.262753
C11   C     C_R   0.499649 0.499081 0.708144 -0.150578
C12   C     C_R   0.500351 0.500918 0.291855 -0.150578
C13   C     C_R   0.548564 0.551620 0.963332 -0.165105
C14   C     C_R   0.451436 0.448379 0.036668 -0.165106
C15   C     C_R   0.549090 0.551473 0.034812 -0.170340
C16   C     C_R   0.450910 0.448527 0.965188 -0.170340
C17   C     C_R   0.500512 0.499866 0.072010 0.128130
C18   C     C_R   0.499488 0.500134 0.927990 0.128130
C19   C     C_R   0.550316 0.724378 0.457898 0.190731
C20   C     C_R   0.449684 0.275622 0.542102 0.190732
C21   C     C_R   0.551300 0.801810 0.457092 -0.254562
C22   C     C_R   0.448700 0.198190 0.542908 -0.254562
C23   C     C_R   0.651092 0.509078 0.499278 0.884777
C24   C     C_R   0.348908 0.490922 0.500722 0.884775
C25   C     C_R   0.499978 0.838437 0.499956 0.091120
C26   C     C_R   0.500022 0.161563 0.500043 0.091120
C27   C     C_R   0.448642 0.794785 0.542822 -0.263865
C28   C     C_R   0.551357 0.205215 0.457178 -0.263865
C29   C     C_R   0.449636 0.717492 0.542064 0.132787
C30   C     C_R   0.550364 0.282508 0.457936 0.132786
C31   C     C_R   0.429898 0.956811 0.507853 -0.157004
C32   C     C_R   0.570102 0.043189 0.492147 -0.157003
C33   C     C_R   0.429911 0.034230 0.507891 -0.167633
C34   C     C_R   0.570089 0.965770 0.492109 -0.167633
C35   C     C_R   0.500012 0.078723 0.500037 0.118323
C36   C     C_R   0.499987 0.921277 0.499963 0.118323
C37   C     C_R   0.737039 0.513988 0.499007 -0.296017
C38   C     C_R   0.262961 0.486012 0.500993 -0.296017
C39   C     C_R   0.777637 0.451635 0.516331 0.513764
C40   C     C_R   0.222363 0.548365 0.483670 0.513765
C41   C     C_R   0.858828 0.455694 0.515036 -0.231282
C42   C     C_R   0.141172 0.544307 0.484965 -0.231282
C43   C     C_R   0.901290 0.522127 0.496394 0.208366
C44   C     C_R   0.098710 0.477873 0.503606 0.208367
C45   C     C_R   0.861055 0.584121 0.479865 -0.259616
C46   C     C_R   0.138945 0.415879 0.520134 -0.259616
C47   C     C_R   0.779650 0.580535 0.481023 0.526075
C48   C     C_R   0.220350 0.419465 0.518976 0.526074
C49   C     C_R   0.499464 0.432206 0.745411 0.628232
C50   C     C_R   0.500536 0.567794 0.254588 0.628233
Cu1   Cu    Cu3+1 0.500020 0.573360 0.500000 1.027299
Cu2   Cu    Cu3+1 0.499980 0.426640 0.500000 1.027299
H1    H     H_    0.588220 0.591037 0.061034 0.141299
H2    H     H_    0.411780 0.408963 0.938966 0.141299
H3    H     H_    0.589703 0.696782 0.424492 0.179503
H4    H     H_    0.410297 0.303217 0.575508 0.179502
H5    H     H_    0.591184 0.832594 0.422374 0.146848
H6    H     H_    0.408816 0.167406 0.577626 0.146848
H7    H     H_    0.408733 0.820089 0.577505 0.137090
H8    H     H_    0.591267 0.179911 0.422495 0.137090
H9    H     H_    0.410170 0.684507 0.575426 0.131972
H10   H     H_    0.589830 0.315493 0.424574 0.131972
H11   H     H_    0.374549 0.924754 0.512837 0.143878
H12   H     H_    0.625451 0.075246 0.487163 0.143877
H13   H     H_    0.374573 0.059231 0.512899 0.141595
H14   H     H_    0.625427 0.940769 0.487101 0.141594
H15   H     H_    0.111940 0.593319 0.471290 0.200288
H16   H     H_    0.888060 0.406681 0.528712 0.200288
H17   H     H_    0.893183 0.635453 0.465518 0.190897
H18   H     H_    0.106817 0.364546 0.534480 0.190898
H19   H     H_    0.500194 0.380985 0.844546 0.163162
H20   H     H_    0.499807 0.619015 0.155454 0.163162
H21   H     H_    0.498690 0.618769 0.841900 0.149750
H22   H     H_    0.501309 0.381231 0.158100 0.149750
H23   H     H_    0.499509 0.618358 0.716839 0.179841
H24   H     H_    0.500490 0.381642 0.283161 0.179841
H25   H     H_    0.587365 0.591214 0.935654 0.139073
H26   H     H_    0.412634 0.408786 0.064346 0.139073
N1    N     N_2   0.984092 0.529119 0.493525 -0.201860
N2    N     N_2   0.015908 0.470881 0.506475 -0.201860
N3    N     N_R   0.500010 0.683620 0.500020 -0.191304
N4    N     N_R   0.499990 0.316380 0.499980 -0.191303
O1    O     O_R   0.500030 0.561980 0.400180 -0.520779
O2    O     O_R   0.499970 0.438020 0.599820 -0.520778
O3    O     O_R   0.500000 0.438070 0.400190 -0.619622
O4    O     O_R   0.500000 0.561930 0.599810 -0.619623
O5    O     O_R   0.613940 0.568730 0.499360 -0.550761
O6    O     O_R   0.386060 0.431270 0.500640 -0.550761
O7    O     O_R   0.613910 0.444830 0.499370 -0.538253
O8    O     O_R   0.386090 0.555170 0.500630 -0.538253
F1    F     F_    0.260748 0.613298 0.464596 -0.629745
F2    F     F_    0.739252 0.386702 0.535406 -0.629744
F3    F     F_    0.743039 0.641830 0.463271 -0.652174
F4    F     F_    0.256961 0.358169 0.536727 -0.652174
F5    F     F_    0.499673 0.366020 0.713250 -0.651378
F6    F     F_    0.500328 0.633980 0.286749 -0.651378

loop_
_geom_bond_atom_site_label_1
_geom_bond_atom_site_label_2
_ccdc_geom_bond_type
C20   N4    A    
C27   C29   A    
C2    O2    A    
C20   H4    S    
C34   H14   S    
C3    C49   A    
C33   H13   S    
C39   C41   A    
C29   N3    A    
C48   F4    S    
C13   C18   A    
C15   H1    S    
Cu2   O3    S    
C19   C21   A    
Cu1   O8    S    
C43   N1    S    
C7    C9    A    
C45   C47   A    
Cu2   O2    S    
C10   H24   S    
C24   C38   S    
C23   O7    A    
C37   C47   A    
Cu1   N3    S    
C38   C48   A    
C40   C42   A    
C23   O5    A    
C41   C43   A    
C14   C17   A    
Cu2   O7    S    
C1    C12   S    
C42   C44   A    
C2    C11   S    
Cu1   O4    S    
C44   C46   A    
C41   H16   S    
C29   H9    S    
C28   H8    S    
C1    O3    A    
C13   H25   S    
C31   C33   A    
C45   H17   S    
Cu1   Cu2   S    
C32   C35   A    
C31   H11   S    
C44   N2    S    
C32   H12   S    
C4    C6    A    
Cu1   O5    S    
C5    C7    A    
C6    C8    A    
C5    C18   S    
C23   C37   S    
C4    C50   A    
C32   C34   A    
C30   N4    A    
C3    H19   S    
C21   H5    S    
C11   C49   A    
C9    C11   A    
Cu2   O6    S    
C7    H21   S    
C8    H22   S    
C47   F3    S    
C49   F5    S    
Cu2   N4    S    
C43   C45   A    
C10   C12   A    
C16   C18   A    
C20   C22   A    
C13   C15   A    
C42   H15   S    
C14   C16   A    
C1    O1    A    
Cu1   O1    S    
C39   F2    S    
C4    H20   S    
C19   H3    S    
C15   C17   A    
C6    C17   S    
C21   C25   A    
C24   O6    A    
C3    C5    A    
C24   O8    A    
C22   H6    S    
C12   C50   A    
C25   C27   A    
C26   C28   A    
C30   H10   S    
C37   C39   A    
C27   H7    S    
C38   C40   A    
C50   F6    S    
C28   C30   A    
C33   C35   A    
C2    O4    A    
C34   C36   A    
C14   H26   S    
C40   F1    S    
C16   H2    S    
C46   H18   S    
C25   C36   S    
N1    N2    D    
C46   C48   A    
C26   C35   S    
C8    C10   A    
C22   C26   A    
C31   C36   A    
C9    H23   S    
C19   N3    A    
