data_mof_unit_50350.cif
_audit_creation_date              2012-12-10T17:54:16-0500
_audit_creation_method            fapswitch 2.2
_symmetry_space_group_name_H-M    P1
_symmetry_Int_Tables_number       1
_space_group_crystal_system       triclinic
_cell_length_a                    27.725396
_cell_length_b                    10.716557
_cell_length_c                    9.865226
_cell_angle_alpha                 89.330622
_cell_angle_beta                  89.762353
_cell_angle_gamma                 91.74789
_cell_volume                      2929.57019386

loop_
_atom_site_label
_atom_site_type_symbol
_atom_type_description
_atom_site_fract_x
_atom_site_fract_y
_atom_site_fract_z
_atom_type_partial_charge
C1    C     C_R   0.503059 0.259829 0.501857 0.874367
C2    C     C_R   0.973516 0.376720 0.536604 0.041889
C3    C     C_R   0.976615 0.606226 0.551302 0.044680
C4    C     C_R   0.406024 0.498979 0.500398 0.851638
C5    C     C_R   0.949827 0.491946 0.543139 0.079137
C6    C     C_R   0.945854 0.268467 0.504198 -0.198573
C7    C     C_R   0.895914 0.270448 0.496605 -0.133106
C8    C     C_R   0.872007 0.381703 0.516219 -0.023890
C9    C     C_R   0.898887 0.493179 0.537921 -0.054600
C10   C     C_R   0.874846 0.606179 0.552110 -0.023957
C11   C     C_R   0.824466 0.605345 0.545384 0.509071
C12   C     C_R   0.277082 0.498814 0.384155 -0.100176
C13   C     C_R   0.821687 0.385108 0.510371 0.511563
C14   C     C_R   0.725037 0.471363 0.393278 -0.136441
C15   C     C_R   0.674868 0.471173 0.384190 -0.038346
C16   C     C_R   0.494949 0.738879 0.499848 0.893653
C17   C     C_R   0.670831 0.525154 0.623400 -0.218996
C18   C     C_R   0.720733 0.524322 0.631008 -0.094000
C19   C     C_R   0.747825 0.497439 0.516218 0.296071
C20   C     C_R   0.024306 0.375055 0.553737 -0.010597
C21   C     C_R   0.051035 0.489963 0.541224 0.061629
C22   C     C_R   0.027334 0.605588 0.536887 0.054263
C23   C     C_R   0.252866 0.488128 0.508510 0.322594
C24   C     C_R   0.049889 0.264538 0.583385 -0.016521
C25   C     C_R   0.104906 0.714627 0.501810 -0.130474
C26   C     C_R   0.951561 0.717559 0.570643 -0.214907
C27   C     C_R   0.901500 0.717217 0.571584 -0.128690
C28   C     C_R   0.594097 0.499345 0.499669 0.883239
C29   C     C_R   0.055138 0.716762 0.515041 -0.209048
C30   C     C_R   0.509204 0.107852 0.762060 -0.155025
C31   C     C_R   0.493402 0.044964 0.879400 -0.140546
C32   C     C_R   0.467941 0.931875 0.869373 -0.155915
C33   C     C_R   0.462662 0.876100 0.743254 -0.146357
C34   C     C_R   0.101933 0.489447 0.532982 -0.053122
C35   C     C_R   0.482768 0.934042 0.625107 0.099002
C36   C     C_R   0.499297 0.058181 0.631822 0.095403
C37   C     C_R   0.504906 0.125834 0.507382 -0.118785
C38   C     C_R   0.504344 0.064200 0.383290 -0.210894
C39   C     C_R   0.498063 0.937268 0.380601 -0.209079
C40   C     C_R   0.176557 0.377986 0.535739 0.515236
C41   C     C_R   0.488786 0.871341 0.501070 -0.127841
C42   C     C_R   0.436350 0.336524 0.143037 -0.172879
C43   C     C_R   0.404927 0.256580 0.073689 -0.206986
C44   C     C_R   0.404838 0.257109 0.933437 -0.182255
C45   C     C_R   0.126193 0.376594 0.546213 -0.041780
C46   C     C_R   0.436302 0.337258 0.861831 -0.170241
C47   C     C_R   0.468604 0.419601 0.928805 0.151358
C48   C     C_R   0.468631 0.419461 0.073698 0.168079
C49   C     C_R   0.529896 0.577263 0.070320 -0.103629
C50   C     C_R   0.529898 0.577189 0.926881 -0.112491
C51   C     C_R   0.178929 0.598869 0.500830 0.506139
C52   C     C_R   0.278573 0.480314 0.629539 -0.103957
C53   C     C_R   0.328618 0.483967 0.626734 -0.222662
C54   C     C_R   0.327265 0.501997 0.380877 -0.219145
C55   C     C_1   0.653495 0.439589 0.255236 0.208237
C56   C     C_R   0.100077 0.266011 0.575214 -0.175345
C57   C     C_1   0.027223 0.152429 0.640680 0.150036
C58   C     C_R   0.128683 0.601926 0.511530 -0.019021
C59   C     C_R   0.353331 0.495243 0.502382 -0.037093
C60   C     C_R   0.647141 0.498639 0.500714 -0.100016
H1    H     H_    0.345553 0.510331 0.283811 0.165987
H2    H     H_    0.500097 0.085365 0.977907 0.146862
H3    H     H_    0.256981 0.504968 0.290561 0.138941
H4    H     H_    0.453718 0.885341 0.959646 0.141190
H5    H     H_    0.501415 0.890830 0.284154 0.169169
H6    H     H_    0.554285 0.640216 0.123427 0.150679
H7    H     H_    0.434123 0.330315 0.250505 0.209842
H8    H     H_    0.380537 0.193736 0.129305 0.163814
H9    H     H_    0.380503 0.194423 0.879590 0.165740
H10   H     H_    0.434511 0.331002 0.754468 0.211123
H11   H     H_    0.554266 0.640165 0.871561 0.154723
H12   H     H_    0.259653 0.472366 0.725665 0.137937
H13   H     H_    0.118858 0.180428 0.595375 0.195003
H14   H     H_    0.962281 0.182236 0.477196 0.158263
H15   H     H_    0.347846 0.477978 0.721825 0.165713
H16   H     H_    0.530486 0.192619 0.776352 0.175539
H17   H     H_    0.442672 0.787942 0.739165 0.161740
H18   H     H_    0.746695 0.450582 0.305044 0.146814
H19   H     H_    0.876191 0.184622 0.473150 0.194571
H20   H     H_    0.124694 0.802088 0.484083 0.194262
H21   H     H_    0.969792 0.806224 0.588045 0.159020
H22   H     H_    0.650812 0.546866 0.714212 0.172071
H23   H     H_    0.883796 0.804901 0.585697 0.194078
H24   H     H_    0.738451 0.544218 0.726320 0.149195
H25   H     H_    0.039212 0.806716 0.502634 0.150656
H26   H     H_    0.509376 0.113735 0.287604 0.173428
N1    N     N_R   0.201558 0.487984 0.512906 -0.359063
N2    N     N_R   0.799141 0.495871 0.524645 -0.354184
N3    N     N_R   0.499540 0.498800 0.142780 -0.122779
N4    N     N_R   0.499520 0.498720 0.857170 -0.128439
N5    N     N_1   0.636491 0.414201 0.151814 -0.199915
N6    N     N_1   0.009330 0.062581 0.686936 -0.213176
O1    O     O_R   0.500000 0.316780 0.614690 -0.653466
O2    O     O_R   0.571250 0.499990 0.614680 -0.617170
O3    O     O_R   0.571240 0.499970 0.385350 -0.605099
O4    O     O_2   0.200470 0.270615 0.548202 -0.552172
O5    O     O_2   0.795388 0.278709 0.491300 -0.548189
O6    O     O_2   0.205113 0.705714 0.480027 -0.550222
O7    O     O_2   0.800919 0.713093 0.557565 -0.549732
O8    O     O_R   0.500000 0.316750 0.385360 -0.637405
O9    O     O_R   0.428760 0.500030 0.614650 -0.647905
O10   O     O_R   0.428750 0.500010 0.385320 -0.640660
O11   O     O_R   0.500000 0.683250 0.614640 -0.623996
O12   O     O_R   0.500000 0.683220 0.385310 -0.620039
Zn1   Zn    Zn3+2 0.500000 0.500020 0.653130 0.930279
Zn2   Zn    Zn3+2 0.500000 0.499980 0.346870 0.947075

loop_
_geom_bond_atom_site_label_1
_geom_bond_atom_site_label_2
_ccdc_geom_bond_type
C10   C27   A    
O2    Zn1   S    
C8    C13   A    
C57   N6    T    
C25   H20   S    
C15   C60   A    
C35   C36   A    
C50   H11   S    
O12   Zn2   S    
C53   C59   A    
C7    C8    A    
C39   C41   A    
C2    C6    A    
C12   C23   A    
C26   C27   A    
C38   H26   S    
C28   O3    A    
C40   N1    A    
C11   O7    S    
C36   C37   A    
C22   C29   A    
C17   H22   S    
C30   C31   A    
C4    C59   S    
C28   O2    A    
C18   C19   A    
C3    C26   A    
C55   N5    T    
O1    Zn1   S    
C50   N4    A    
C20   C24   A    
C45   C56   A    
C44   C46   A    
C8    C9    A    
C4    O10   A    
N3    Zn2   S    
C18   H24   S    
C9    C10   A    
C29   H25   S    
C1    C37   S    
C51   O6    S    
C23   N1    S    
C21   C22   A    
O9    Zn1   S    
C39   H5    S    
C31   H2    S    
C53   H15   S    
C40   O4    S    
C1    O8    A    
C16   O12   A    
C6    H14   S    
C54   C59   A    
C28   C60   S    
C25   C29   A    
C40   C45   A    
C49   H6    S    
C2    C20   A    
C32   H4    S    
C19   N2    S    
C51   N1    A    
C51   C58   A    
C12   H3    S    
C43   H8    S    
C21   C34   A    
C15   C55   S    
C43   C44   A    
C5    C9    A    
C37   C38   A    
C52   H12   S    
O3    Zn2   S    
C30   H16   S    
C16   O11   A    
C47   C48   A    
C11   N2    A    
C4    O9    A    
C17   C18   A    
C44   H9    S    
O11   Zn1   S    
C34   C45   A    
C42   C48   A    
C26   H21   S    
C48   N3    A    
C42   H7    S    
C47   N4    A    
C2    C5    A    
C42   C43   A    
C52   C53   A    
C7    H19   S    
C24   C57   S    
C46   C47   A    
C56   H13   S    
C14   C19   A    
C31   C32   A    
N4    Zn1   S    
C49   N3    A    
C3    C5    A    
C6    C7    A    
C54   H1    S    
C24   C56   A    
O8    Zn2   S    
C30   C36   A    
C32   C33   A    
C27   H23   S    
C33   H17   S    
C23   C52   A    
C38   C39   A    
C13   N2    A    
C33   C35   A    
O10   Zn2   S    
C14   H18   S    
C13   O5    S    
C35   C41   A    
C46   H10   S    
C10   C11   A    
C17   C60   A    
C20   C21   A    
C1    O1    A    
C49   C50   A    
C25   C58   A    
C34   C58   A    
C14   C15   A    
C3    C22   A    
C16   C41   S    
C12   C54   A    
