data_mof_unit_62437.cif
_audit_creation_date              2012-12-10T19:17:25-0500
_audit_creation_method            fapswitch 2.2
_symmetry_space_group_name_H-M    P1
_symmetry_Int_Tables_number       1
_space_group_crystal_system       triclinic
_cell_length_a                    15.997851
_cell_length_b                    14.768259
_cell_length_c                    15.894734
_cell_angle_alpha                 89.917451
_cell_angle_beta                  89.962885
_cell_angle_gamma                 90.011093
_cell_volume                      3755.29156766

loop_
_atom_site_label
_atom_site_type_symbol
_atom_type_description
_atom_site_fract_x
_atom_site_fract_y
_atom_site_fract_z
_atom_type_partial_charge
C1    C     C_R   0.340830 0.499994 0.499970 0.833422
C2    C     C_3   0.586386 0.526142 0.951695 -0.364901
C3    C     C_3   0.588306 0.519196 0.049113 -0.364196
C4    C     C_1   0.499178 0.499706 0.825422 -0.045762
C5    C     C_1   0.498875 0.501770 0.174867 -0.000391
C6    C     C_1   0.499621 0.500537 0.250323 -0.132127
C7    C     C_R   0.956408 0.581330 0.488465 -0.169198
C8    C     C_R   0.956352 0.418636 0.510498 -0.171169
C9    C     C_R   0.912790 0.499991 0.499517 0.152193
C10   C     C_R   0.043593 0.418625 0.510481 -0.164611
C11   C     C_R   0.043650 0.581319 0.488445 -0.165789
C12   C     C_R   0.087210 0.499970 0.499480 0.153133
C13   C     C_1   0.823334 0.500014 0.499663 -0.063665
C14   C     C_R   0.500058 0.500087 0.339825 0.829859
C15   C     C_1   0.176663 0.499978 0.499626 -0.053603
C16   C     C_1   0.251709 0.499983 0.499788 -0.155886
C17   C     C_1   0.748286 0.500019 0.499803 -0.168678
C18   C     C_R   0.505480 0.952115 0.573593 -0.240135
C19   C     C_R   0.505224 0.047669 0.573600 -0.243508
C20   C     C_R   0.499663 0.902857 0.498157 -0.109579
C21   C     C_R   0.500031 0.097140 0.498106 -0.111648
C22   C     C_R   0.492892 0.951822 0.421864 0.413791
C23   C     C_R   0.495662 0.048384 0.421642 0.418558
C24   C     C_1   0.499915 0.802675 0.499364 0.211087
C25   C     C_1   0.499951 0.197324 0.499339 0.216995
C26   C     C_R   0.659161 0.500007 0.499951 0.822398
C27   C     C_R   0.499956 0.499933 0.660290 0.822201
C28   C     C_3   0.442701 0.584304 0.046500 0.519126
C29   C     C_3   0.471913 0.404649 0.049714 0.547892
C30   C     C_3   0.476047 0.404980 0.951232 -0.469567
C31   C     C_3   0.431684 0.567019 0.950608 -0.383112
C32   C     C_1   0.499595 0.499765 0.749921 -0.171861
C33   C     C_3   0.497744 0.502592 0.082756 0.109081
C34   C     C_3   0.498605 0.499910 0.917566 0.158112
Cu1   Cu    Cu3+1 0.500000 0.589220 0.500020 0.986558
Cu2   Cu    Cu3+1 0.500000 0.410780 0.500020 0.997603
H1    H     H_    0.368517 0.539055 0.937186 0.169766
H2    H     H_    0.415365 0.382550 0.924270 0.172099
H3    H     H_    0.524073 0.356352 0.928323 0.195160
H4    H     H_    0.435505 0.632176 0.915379 0.205455
H5    H     H_    0.615854 0.581924 0.076088 0.199305
H6    H     H_    0.631486 0.463966 0.068386 0.209936
H7    H     H_    0.601855 0.596552 0.932090 0.202992
H8    H     H_    0.635022 0.480774 0.924711 0.171101
H9    H     H_    0.077062 0.644501 0.479904 0.141884
H10   H     H_    0.076959 0.355440 0.519048 0.143382
H11   H     H_    0.923041 0.644520 0.479937 0.141637
H12   H     H_    0.922943 0.355458 0.519075 0.140435
H13   H     H_    0.509296 0.083139 0.633056 0.167558
H14   H     H_    0.510075 0.916479 0.633018 0.169149
N1    N     N_1   0.499980 0.276710 0.500030 -0.155010
N2    N     N_1   0.499980 0.723290 0.500030 -0.156676
O1    O     O_R   0.380310 0.575320 0.500040 -0.573340
O2    O     O_R   0.380310 0.424680 0.500040 -0.564824
O3    O     O_R   0.500000 0.575380 0.379460 -0.575308
O4    O     O_R   0.500000 0.424620 0.379460 -0.552341
O5    O     O_R   0.619690 0.575360 0.500000 -0.569801
O6    O     O_R   0.619690 0.424640 0.500000 -0.575524
O7    O     O_R   0.500000 0.575310 0.620580 -0.572800
O8    O     O_R   0.500000 0.424690 0.620580 -0.575388
O9    O     O_3   0.488662 0.905575 0.346442 -0.580996
C35   C     C_3   0.403804 0.893999 0.325210 -0.265406
H15   H     H_    0.372177 0.960303 0.315430 0.190511
H16   H     H_    0.370111 0.853622 0.373761 0.149243
H17   H     H_    0.400217 0.856048 0.265157 0.181026
O10   O     O_3   0.488849 0.094844 0.346404 -0.568117
C36   C     C_3   0.569635 0.106027 0.312496 -0.257532
H18   H     H_    0.599110 0.039591 0.297997 0.179420
H19   H     H_    0.610377 0.145999 0.355389 0.145122
H20   H     H_    0.564435 0.144208 0.252577 0.188256
I1    I     I_    0.316341 0.601113 0.099138 -0.389839
I2    I     I_    0.346437 0.364569 0.091403 -0.372083
O11   O     O_3   0.531958 0.342060 0.082423 -0.580183
C37   C     C_3   0.512036 0.249990 0.067939 -0.272034
H21   H     H_    0.473623 0.238111 0.010746 0.159393
H22   H     H_    0.479331 0.221805 0.123752 0.210134
H23   H     H_    0.571147 0.211669 0.060153 0.172152
O12   O     O_3   0.488118 0.667726 0.051538 -0.584353
C38   C     C_3   0.479931 0.714686 0.128488 -0.254273
H24   H     H_    0.468563 0.670782 0.183730 0.168909
H25   H     H_    0.428910 0.765296 0.123234 0.194586
H26   H     H_    0.538745 0.752282 0.140434 0.184594

loop_
_geom_bond_atom_site_label_1
_geom_bond_atom_site_label_2
_ccdc_geom_bond_type
C24   N2    T    
C14   O4    A    
C3    H6    S    
Cu1   O1    S    
O11   C37   S    
Cu1   Cu2   S    
C25   N1    T    
C7    C11   A    
C35   H15   S    
C37   H22   S    
C17   C26   S    
C23   O10   S    
C19   C21   A    
Cu2   O6    S    
C27   O8    A    
C5    C6    T    
C29   O11   S    
C3    C33   S    
C15   C16   T    
C29   C33   S    
C31   H4    S    
C30   H2    S    
Cu1   O7    S    
C18   C19   A    
C9    C13   S    
C35   H16   S    
C20   C24   S    
C2    H8    S    
C8    C9    A    
C37   H23   S    
C5    C33   S    
C10   H10   S    
C28   O12   S    
C29   I2    S    
C2    C34   S    
C14   O3    A    
C1    O1    A    
C4    C34   S    
C37   H21   S    
C30   C34   S    
Cu1   O3    S    
C36   H18   S    
C38   H25   S    
O12   C38   S    
C31   H1    S    
C36   H19   S    
C7    H11   S    
C1    O2    A    
C8    H12   S    
C29   C30   S    
Cu2   O4    S    
C6    C14   S    
C19   H13   S    
C12   C15   S    
C2    H7    S    
C31   C34   S    
C1    C16   S    
C26   O6    A    
C4    C32   T    
Cu2   N1    S    
C10   C12   A    
C20   C22   A    
C28   C33   S    
C21   C23   A    
C11   H9    S    
C28   I1    S    
C18   H14   S    
C7    C9    A    
C21   C25   S    
C3    H5    S    
C35   H17   S    
C27   C32   S    
C28   C31   S    
Cu2   O8    S    
C38   H26   S    
C11   C12   A    
C13   C17   T    
Cu1   O5    S    
C36   H20   S    
C2    C3    S    
C27   O7    A    
C22   O9    S    
C30   H3    S    
O10   C36   S    
C18   C20   A    
O9    C35   S    
C26   O5    A    
Cu2   O2    S    
C38   H24   S    
C8    C10   A    
Cu1   N2    S    
C22   C23   A    
