data_mof_unit_9568.cif
_audit_creation_date              2012-12-10T18:01:42-0500
_audit_creation_method            fapswitch 2.2
_symmetry_space_group_name_H-M    P1
_symmetry_Int_Tables_number       1
_space_group_crystal_system       triclinic
_cell_length_a                    10.798011
_cell_length_b                    9.519097
_cell_length_c                    19.374773
_cell_angle_alpha                 89.955562
_cell_angle_beta                  90.550004
_cell_angle_gamma                 90.116712
_cell_volume                      1991.38442266

loop_
_atom_site_label
_atom_site_type_symbol
_atom_type_description
_atom_site_fract_x
_atom_site_fract_y
_atom_site_fract_z
_atom_type_partial_charge
C1    C     C_R   0.262094 0.499914 0.499532 0.759125
C2    C     C_R   0.737891 0.500085 0.499579 0.759901
C3    C     C_R   0.484282 0.488119 0.930961 0.540677
C4    C     C_R   0.494418 0.493418 0.070326 0.450694
C5    C     C_R   0.500248 0.499876 0.367369 0.862852
C6    C     C_R   0.499539 0.499470 0.632985 0.868703
C7    C     C_R   0.063609 0.372443 0.494912 -0.191104
C8    C     C_R   0.936346 0.627679 0.501697 -0.191719
C9    C     C_R   0.935682 0.372561 0.494907 -0.199220
C10   C     C_R   0.064248 0.627564 0.501692 -0.202212
C11   C     C_R   0.871696 0.500143 0.498669 -0.006578
C12   C     C_R   0.128259 0.499921 0.498657 -0.007517
C13   C     C_R   0.407106 0.074258 0.467991 -0.023186
C14   C     C_R   0.593944 0.925833 0.530916 -0.013158
C15   C     C_R   0.593333 0.074523 0.531570 -0.020552
C16   C     C_R   0.406825 0.925548 0.468259 0.006768
C17   C     C_R   0.461537 0.618003 0.253474 0.326218
C18   C     C_R   0.488171 0.366109 0.745762 0.306797
C19   C     C_R   0.497784 0.622716 0.748706 0.324633
C20   C     C_R   0.541380 0.378192 0.254934 0.320362
C21   C     C_R   0.474955 0.621880 0.181804 0.360098
C22   C     C_R   0.493232 0.363842 0.818167 0.307972
C23   C     C_R   0.475824 0.618423 0.819906 0.293829
C24   C     C_R   0.525603 0.371582 0.183271 0.363072
C25   C     C_R   0.499367 0.495846 0.145971 -0.310640
C26   C     C_R   0.482244 0.489788 0.855223 -0.265326
C27   C     C_R   0.501691 0.499009 0.291156 -0.423578
C28   C     C_R   0.495949 0.496405 0.709807 -0.394567
Cu1   Cu    Cu3+1 0.500000 0.640660 0.500000 0.953281
Cu2   Cu    Cu3+1 0.500000 0.359340 0.500000 0.936202
H1    H     H_    0.111547 0.272769 0.492131 0.142080
H2    H     H_    0.888440 0.727373 0.504447 0.144616
H3    H     H_    0.887208 0.272940 0.492095 0.140102
H4    H     H_    0.112681 0.727224 0.504384 0.144044
H5    H     H_    0.332862 0.129948 0.442069 0.120187
H6    H     H_    0.670097 0.870147 0.554858 0.097936
H7    H     H_    0.667997 0.130395 0.557140 0.125325
H8    H     H_    0.332078 0.869849 0.442777 0.114518
N1    N     N_R   0.500000 0.852070 0.500000 -0.152670
N2    N     N_R   0.500000 0.147930 0.500000 -0.166340
N3    N     N_R   0.580603 0.421956 0.034126 -0.224235
N4    N     N_R   0.398084 0.559292 0.967252 -0.243389
N5    N     N_R   0.575733 0.419853 0.965582 -0.250871
N6    N     N_R   0.402901 0.561838 0.035783 -0.218639
O1    O     O_R   0.319640 0.618740 0.500000 -0.601636
O2    O     O_R   0.680360 0.381260 0.500000 -0.606493
O3    O     O_R   0.680360 0.618740 0.500000 -0.597932
O4    O     O_R   0.319640 0.381260 0.500000 -0.605204
O5    O     O_R   0.499980 0.618820 0.400140 -0.546113
O6    O     O_R   0.500020 0.381180 0.599860 -0.554724
O7    O     O_R   0.500020 0.618820 0.599860 -0.547149
O8    O     O_R   0.499980 0.381180 0.400140 -0.552511
O9    O     O_3   0.407445 0.731935 0.285627 -0.561591
C29   C     C_3   0.283802 0.697605 0.303685 0.100659
H9    H     H_    0.279164 0.682842 0.360411 0.156973
H10   H     H_    0.247230 0.599480 0.278976 0.105044
C30   C     C_3   0.198525 0.818243 0.282936 -0.342774
H11   H     H_    0.235130 0.918583 0.304341 0.222842
H12   H     H_    0.196302 0.825278 0.225751 0.246476
C31   C     C_3   0.066978 0.795102 0.308887 -0.948102
H13   H     H_    0.028618 0.694895 0.288439 0.262744
H14   H     H_    0.006744 0.882586 0.291112 0.261498
H15   H     H_    0.066431 0.792230 0.366189 0.257976
O10   O     O_3   0.483464 0.238856 0.711193 -0.583050
C32   C     C_3   0.359950 0.208715 0.690189 0.140042
H16   H     H_    0.362398 0.173540 0.635538 0.183289
H17   H     H_    0.295776 0.300687 0.691892 0.097801
C33   C     C_3   0.307738 0.088844 0.733443 -0.343017
H18   H     H_    0.374654 0.000418 0.733539 0.266247
H19   H     H_    0.294920 0.125390 0.787287 0.240723
C34   C     C_3   0.183495 0.037886 0.704460 -0.961996
H20   H     H_    0.114751 0.124533 0.704853 0.258314
H21   H     H_    0.147825 0.950260 0.736458 0.259130
H22   H     H_    0.194444 0.999271 0.650766 0.262098
O11   O     O_3   0.516720 0.752818 0.718525 -0.577990
C35   C     C_3   0.644882 0.773308 0.706068 0.115704
H23   H     H_    0.653270 0.869320 0.674029 0.157878
H24   H     H_    0.685743 0.685428 0.676044 0.119974
C36   C     C_3   0.720614 0.797275 0.772527 -0.351703
H25   H     H_    0.676586 0.881178 0.803245 0.251298
H26   H     H_    0.723114 0.699452 0.803795 0.215558
C37   C     C_3   0.853643 0.839802 0.756206 -0.971934
H27   H     H_    0.898005 0.759112 0.723290 0.261338
H28   H     H_    0.908252 0.849312 0.804817 0.262066
H29   H     H_    0.855109 0.942616 0.729050 0.258747
O12   O     O_3   0.585600 0.260158 0.289038 -0.564617
C38   C     C_3   0.706889 0.285520 0.315194 0.127460
H30   H     H_    0.709249 0.253145 0.370296 0.178532
H31   H     H_    0.736851 0.397991 0.313526 0.096405
C39   C     C_3   0.799909 0.195923 0.276182 -0.352978
H32   H     H_    0.774048 0.083474 0.281730 0.230418
H33   H     H_    0.797118 0.224545 0.220562 0.245307
C40   C     C_3   0.931223 0.217217 0.304234 -0.952286
H34   H     H_    0.959398 0.329079 0.299371 0.263505
H35   H     H_    0.996617 0.151810 0.274405 0.257975
H36   H     H_    0.936765 0.185335 0.359341 0.256951
O13   O     O_3   0.451481 0.747469 0.147671 -0.573342
C41   C     C_3   0.561619 0.800571 0.117746 0.080003
H37   H     H_    0.534244 0.879087 0.078128 0.158642
H38   H     H_    0.615286 0.719443 0.089786 0.136168
C42   C     C_3   0.646231 0.871932 0.171298 -0.341836
H39   H     H_    0.594725 0.955577 0.198658 0.265621
H40   H     H_    0.678122 0.793281 0.209933 0.206551
C43   C     C_3   0.759516 0.935996 0.136497 -0.903008
H41   H     H_    0.807090 0.856253 0.104445 0.250566
H42   H     H_    0.826515 0.973697 0.176038 0.254464
H43   H     H_    0.731269 0.025897 0.103349 0.282817
O14   O     O_3   0.497267 0.236939 0.853077 -0.602568
C44   C     C_3   0.621399 0.189866 0.856669 0.110431
H44   H     H_    0.688167 0.277939 0.865695 0.143169
H45   H     H_    0.646074 0.137024 0.807529 0.165647
C45   C     C_3   0.634614 0.084998 0.916311 -0.351004
H46   H     H_    0.591140 0.128368 0.963476 0.247214
H47   H     H_    0.585856 0.985938 0.902847 0.233344
C46   C     C_3   0.770194 0.052572 0.932419 -0.916464
H48   H     H_    0.818297 0.016539 0.885349 0.260057
H49   H     H_    0.775907 0.968456 0.972039 0.260325
H50   H     H_    0.817697 0.147765 0.952731 0.269057
O15   O     O_3   0.462671 0.742529 0.856175 -0.594998
C47   C     C_3   0.335882 0.779712 0.855502 0.098340
H51   H     H_    0.275659 0.689431 0.870334 0.147615
H52   H     H_    0.307351 0.814810 0.803068 0.156693
C48   C     C_3   0.315321 0.898995 0.906965 -0.336364
H53   H     H_    0.352695 0.868001 0.958429 0.240933
H54   H     H_    0.365662 0.994157 0.889597 0.239039
C49   C     C_3   0.178179 0.934279 0.913921 -0.922140
H55   H     H_    0.138771 0.967850 0.863449 0.256164
H56   H     H_    0.167198 0.021418 0.951431 0.263415
H57   H     H_    0.126047 0.841521 0.932950 0.263647
O16   O     O_3   0.541928 0.242986 0.150879 -0.579162
C50   C     C_3   0.427071 0.191427 0.124875 0.084921
H58   H     H_    0.447394 0.102567 0.089838 0.157877
H59   H     H_    0.376909 0.269564 0.092647 0.139886
C51   C     C_3   0.341436 0.138423 0.182174 -0.340767
H60   H     H_    0.386688 0.051245 0.210926 0.257174
H61   H     H_    0.321639 0.224632 0.219033 0.207802
C52   C     C_3   0.218514 0.087336 0.151595 -0.922800
H62   H     H_    0.174668 0.171186 0.119872 0.257604
H63   H     H_    0.153979 0.060188 0.193715 0.250723
H64   H     H_    0.233498 0.993088 0.118950 0.276885

loop_
_geom_bond_atom_site_label_1
_geom_bond_atom_site_label_2
_ccdc_geom_bond_type
C38   H30   S    
C3    N4    A    
C40   H34   S    
C6    C28   S    
C35   C36   S    
C50   C51   S    
C1    O1    A    
C51   C52   S    
C45   H47   S    
O13   C41   S    
C30   H11   S    
C48   H53   S    
Cu1   O5    S    
O9    C29   S    
C2    O2    A    
C52   H63   S    
C3    N5    A    
C49   H55   S    
Cu1   O3    S    
C31   H15   S    
Cu2   O4    S    
C35   H24   S    
C13   H5    S    
C44   H45   S    
C23   O15   S    
C48   H54   S    
C4    N3    A    
C46   H48   S    
O14   C44   S    
C31   H14   S    
C23   C26   A    
C45   H46   S    
C13   N2    A    
Cu2   O8    S    
C14   N1    A    
C5    C27   S    
C15   H7    S    
C20   C24   A    
C33   H18   S    
C32   H17   S    
C20   O12   S    
C5    O8    A    
C6    O7    A    
C47   C48   S    
C32   C33   S    
Cu2   O6    S    
C42   H40   S    
C9    H3    S    
N3    N5    A    
C5    O5    A    
C1    C12   S    
N4    N6    A    
C2    C11   S    
C43   H42   S    
C43   H41   S    
C47   H52   S    
C4    C25   S    
C7    C12   A    
C52   H64   S    
C29   H10   S    
C7    H1    S    
C17   C27   A    
C42   H39   S    
C18   C28   A    
C24   C25   A    
C44   C45   S    
C34   H21   S    
O12   C38   S    
C48   C49   S    
C51   H61   S    
C4    N6    A    
C49   H57   S    
C46   H49   S    
C37   H27   S    
C17   C21   A    
Cu1   O1    S    
C31   H13   S    
C8    H2    S    
C19   C23   A    
O11   C35   S    
Cu1   Cu2   S    
C36   C37   S    
C21   O13   S    
C39   H33   S    
C8    C11   A    
C46   H50   S    
Cu1   N1    S    
Cu2   N2    S    
C10   H4    S    
C35   H23   S    
C19   C28   A    
C9    C11   A    
C10   C12   A    
C33   H19   S    
C32   H16   S    
C40   H36   S    
C37   H28   S    
C38   H31   S    
C13   C16   A    
C50   H58   S    
C37   H29   S    
C17   O9    S    
C47   H51   S    
C39   C40   S    
C36   H26   S    
Cu1   O7    S    
C7    C9    A    
C21   C25   A    
C29   H9    S    
C49   H56   S    
C6    O6    A    
C18   C22   A    
Cu2   O2    S    
C3    C26   S    
C50   H59   S    
C34   H22   S    
O15   C47   S    
C1    O4    A    
C51   H60   S    
C20   C27   A    
C2    O3    A    
C42   C43   S    
C41   C42   S    
C52   H62   S    
C41   H38   S    
O10   C32   S    
C19   O11   S    
O16   C50   S    
C34   H20   S    
C44   H44   S    
C14   H6    S    
C18   O10   S    
C39   H32   S    
C40   H35   S    
C33   C34   S    
C22   O14   S    
C45   C46   S    
C15   N2    A    
C30   H12   S    
C16   N1    A    
C36   H25   S    
C24   O16   S    
C30   C31   S    
C8    C10   A    
C41   H37   S    
C22   C26   A    
C38   C39   S    
C14   C15   A    
C43   H43   S    
C16   H8    S    
C29   C30   S    
