data_mof_unit_11127.cif
_audit_creation_date              2012-12-11T15:59:36-0500
_audit_creation_method            fapswitch 2.2
_symmetry_space_group_name_H-M    P1
_symmetry_Int_Tables_number       1
_space_group_crystal_system       triclinic
_cell_length_a                    10.746899
_cell_length_b                    10.727876
_cell_length_c                    17.05896
_cell_angle_alpha                 99.830908
_cell_angle_beta                  99.649118
_cell_angle_gamma                 60.697994
_cell_volume                      1681.82038203

loop_
_atom_site_label
_atom_site_type_symbol
_atom_type_description
_atom_site_fract_x
_atom_site_fract_y
_atom_site_fract_z
_atom_type_partial_charge
C1    C     C_R   0.355045 0.778794 0.402354 0.543065
C2    C     C_R   0.807712 0.240643 0.193032 0.036130
C3    C     C_R   0.826192 0.220323 0.274518 -0.044429
C4    C     C_R   0.926177 0.384636 0.311000 0.208437
C5    C     C_R   0.929843 0.386211 0.230607 -0.109994
C6    C     C_R   0.742730 0.170551 0.136503 0.269088
C7    C     C_R   0.729000 0.058495 0.159346 -0.092489
C8    C     C_R   0.770632 0.022977 0.237345 -0.160829
C9    C     C_R   0.815227 0.104857 0.295037 -0.110145
C10   C     C_R   0.858658 0.314306 0.333013 -0.014203
C11   C     C_R   0.315426 0.869332 0.171396 0.009604
C12   C     C_R   0.369496 0.345964 0.357574 0.591429
C13   C     C_R   0.451773 0.818652 0.214252 0.011291
C14   C     C_R   0.463009 0.830586 0.299031 0.038991
C15   C     C_R   0.205324 0.911179 0.292172 -0.158475
C16   C     C_R   0.192979 0.921022 0.211892 -0.141644
C17   C     C_R   0.576475 0.754415 0.174194 -0.099726
C18   C     C_R   0.709515 0.713093 0.216572 -0.152536
C19   C     C_R   0.721028 0.739886 0.299151 -0.089061
C20   C     C_R   0.599105 0.807894 0.341507 0.055784
C21   C     C_R   0.339555 0.855287 0.335045 -0.009310
C22   C     C_R   0.295909 0.274607 0.797980 0.025721
C23   C     C_R   0.781433 0.372088 0.405131 0.546798
C24   C     C_R   0.425074 0.176786 0.762843 -0.007685
C25   C     C_R   0.476410 0.227928 0.713032 0.025329
C26   C     C_R   0.241567 0.440821 0.702334 -0.140785
C27   C     C_R   0.200839 0.404759 0.765006 0.214687
C28   C     C_R   0.508561 0.031388 0.779118 -0.084828
C29   C     C_R   0.648434 0.948477 0.758368 -0.103949
C30   C     C_R   0.708092 0.009352 0.721480 -0.114706
C31   C     C_R   0.623175 0.147973 0.699249 -0.075235
C32   C     C_R   0.377855 0.353353 0.675781 -0.033252
C33   C     C_1   0.845826 0.329199 0.705487 -0.039523
C34   C     C_R   0.357834 0.769647 0.627334 0.544101
C35   C     C_1   0.892384 0.293881 0.771988 -0.025322
C36   C     C_1   0.338935 0.809618 0.709423 -0.052894
C37   C     C_1   0.313129 0.836988 0.777543 -0.060869
C38   C     C_R   0.897873 0.308364 0.090171 0.607703
C39   C     C_R   0.319056 0.300230 0.120070 0.576607
C40   C     C_R   0.290104 0.898428 0.088241 0.542766
C41   C     C_R   0.942602 0.273509 0.854352 0.550142
C42   C     C_R   0.278457 0.251885 0.877045 0.553615
C43   C     C_R   0.279270 0.884113 0.857399 0.539926
C44   C     C_R   0.406602 0.375367 0.600025 0.555167
C45   C     C_R   0.777563 0.378593 0.629066 0.538872
C46   C     C_1   0.343059 0.335794 0.274227 -0.014135
C47   C     C_1   0.331249 0.326648 0.203415 -0.031518
C48   C     C_R   0.863220 0.323389 0.171215 -0.024543
Cr1   Cr    Cr6+3 0.608100 0.610860 0.522250 0.997336
Cr2   Cr    Cr6+3 0.288890 0.599990 0.488420 1.022487
Cr3   Cr    Cr6+3 0.603040 0.289190 0.489390 0.963225
Cr4   Cr    Cr6+3 0.053960 0.052250 0.967380 1.048539
Cr5   Cr    Cr6+3 0.059890 0.373160 0.992710 1.055496
Cr6   Cr    Cr6+3 0.373370 0.061690 0.991710 0.987074
H1    H     H_    0.803868 0.666793 0.184728 0.128055
H2    H     H_    0.825772 0.715004 0.329280 0.164603
H3    H     H_    0.166218 0.537042 0.674100 0.129992
H4    H     H_    0.467402 0.981431 0.808901 0.151034
H5    H     H_    0.711614 0.838737 0.773160 0.127899
H6    H     H_    0.818813 0.948262 0.708274 0.110766
H7    H     H_    0.672915 0.190970 0.670573 0.151732
H8    H     H_    0.988364 0.435287 0.214818 0.154697
H9    H     H_    0.687857 0.997287 0.116538 0.121846
H10   H     H_    0.766220 0.933117 0.253495 0.122369
H11   H     H_    0.848954 0.072489 0.354892 0.128728
H12   H     H_    0.110698 0.936788 0.319615 0.133792
H13   H     H_    0.572924 0.732291 0.109822 0.142439
H14   H     H_    0.085940 0.966346 0.181061 0.153345
O1    O     O_R   0.749810 0.499790 0.438040 -0.505027
O2    O     O_R   0.298970 0.468800 0.557390 -0.495239
O3    O     O_R   0.489400 0.255930 0.561910 -0.545484
O4    O     O_R   0.723890 0.306050 0.584610 -0.544369
O5    O     O_3   0.500010 0.500010 0.500020 -0.259252
O6    O     O_R   0.171100 0.914680 0.053100 -0.513580
O7    O     O_R   0.941680 0.184840 0.050710 -0.453217
O8    O     O_R   0.922080 0.403420 0.072610 -0.541451
O9    O     O_R   0.196880 0.369150 0.083850 -0.502889
O10   O     O_R   0.411730 0.181020 0.091530 -0.516548
O11   O     O_R   0.365010 0.944360 0.063320 -0.507458
O12   O     O_R   0.477660 0.726260 0.439290 -0.518197
O13   O     O_R   0.159380 0.906670 0.876210 -0.500703
O14   O     O_R   0.930820 0.177420 0.886730 -0.483313
O15   O     O_R   0.910360 0.395420 0.895720 -0.471383
O16   O     O_R   0.186010 0.361730 0.919870 -0.430097
O17   O     O_R   0.400000 0.173010 0.914630 -0.527641
O18   O     O_R   0.354140 0.936940 0.899340 -0.537715
O19   O     O_3   0.162410 0.162370 0.983930 -0.307969
O20   O     O_R   0.260150 0.743000 0.412270 -0.513304
O21   O     O_R   0.297740 0.466550 0.394720 -0.463560
O22   O     O_R   0.488080 0.253500 0.386430 -0.532190
O23   O     O_R   0.722670 0.303800 0.421940 -0.509991
O24   O     O_R   0.751130 0.502220 0.613520 -0.501548
O25   O     O_R   0.478890 0.728510 0.601960 -0.498483
O26   O     O_R   0.261470 0.745430 0.587750 -0.527780
O27   O     O_3   0.990134 0.451704 0.365919 -0.714254
H15   H     H_    0.005361 0.417057 0.418744 0.333867
C49   C     C_3   0.617707 0.865913 0.428565 -0.229475
C50   C     C_3   0.702056 0.951103 0.442137 -0.325275
C51   C     C_3   0.853397 0.870180 0.483821 -0.446659
H16   H     H_    0.847713 0.849221 0.544353 0.139743
H17   H     H_    0.918500 0.766374 0.449362 0.173115
H18   H     H_    0.908233 0.936816 0.490459 0.145230
H19   H     H_    0.706456 0.984482 0.385378 0.171541
H20   H     H_    0.644949 0.050184 0.481408 0.222654
H21   H     H_    0.510514 0.939215 0.450065 0.141981
H22   H     H_    0.674054 0.775131 0.466129 0.200176
O28   O     O_3   0.068714 0.493397 0.793665 -0.675420
H23   H     H_    0.016070 0.579274 0.763705 0.317854
O29   O     O_3   0.689887 0.215326 0.061003 -0.674620
H24   H     H_    0.650354 0.153639 0.029583 0.339309

loop_
_geom_bond_atom_site_label_1
_geom_bond_atom_site_label_2
_ccdc_geom_bond_type
C19   H2    S    
C25   C31   A    
C1    C21   S    
C23   O23   A    
C33   C45   S    
C23   O1    A    
C19   C20   A    
C34   O25   A    
Cr4   O7    S    
C49   C50   S    
C7    C8    A    
C38   O8    A    
C26   C32   A    
C26   C27   A    
Cr5   O16   S    
C39   O9    A    
C14   C21   A    
C12   O22   A    
C36   C37   T    
Cr4   O6    S    
Cr3   O22   S    
C30   C31   A    
C15   C16   A    
C41   O15   A    
C44   O3    A    
C18   C19   A    
C45   O24   A    
C31   H7    S    
Cr3   O5    S    
C20   C49   S    
O27   H15   S    
C8    C9    A    
C30   H6    S    
C22   C42   S    
O28   H23   S    
C44   O2    A    
C16   H14   S    
C24   C28   A    
C38   C48   S    
Cr2   O20   S    
C49   H21   S    
C1    O20   A    
Cr1   O1    S    
C13   C14   A    
C45   O4    A    
Cr3   O23   S    
C2    C6    A    
Cr3   O3    S    
C38   O7    A    
C5    C48   A    
C17   H13   S    
C11   C40   S    
C39   O10   A    
C14   C20   A    
C12   O21   A    
C42   O16   A    
C24   C25   A    
C12   C46   S    
Cr2   O5    S    
Cr6   O18   S    
Cr2   O26   S    
C2    C48   A    
C15   H12   S    
C37   C43   S    
Cr5   O9    S    
C29   C30   A    
C3    C9    A    
C4    O27   S    
C11   C16   A    
Cr2   O21   S    
C51   H16   S    
C27   O28   S    
C17   C18   A    
C32   C44   S    
C40   O11   A    
Cr5   O19   S    
C42   O17   A    
Cr4   O14   S    
C7    H9    S    
C18   H1    S    
C8    H10   S    
C49   H22   S    
C51   H17   S    
C22   C27   A    
C43   O13   A    
C6    O29   S    
C22   C24   A    
Cr5   O8    S    
Cr3   O4    S    
Cr1   O24   S    
C4    C10   A    
C39   C47   S    
Cr6   O11   S    
C46   C47   T    
C28   C29   A    
C43   O18   A    
Cr4   O19   S    
C34   O26   A    
C4    C5    A    
Cr6   O17   S    
C6    C7    A    
C28   H4    S    
C10   C23   S    
Cr1   O12   S    
C13   C17   A    
Cr5   O15   S    
C2    C3    A    
Cr2   O2    S    
C3    C10   A    
O29   H24   S    
C11   C13   A    
Cr6   O19   S    
C25   C32   A    
C50   H20   S    
C41   O14   A    
C33   C35   T    
C34   C36   S    
C40   O6    A    
C5    H8    S    
Cr1   O5    S    
Cr4   O13   S    
C35   C41   S    
C26   H3    S    
C9    H11   S    
C15   C21   A    
C51   H18   S    
C50   C51   S    
C1    O12   A    
C29   H5    S    
Cr1   O25   S    
C50   H19   S    
Cr6   O10   S    
