data_mof_unit_49130.cif
_audit_creation_date              2012-12-11T15:22:18-0500
_audit_creation_method            fapswitch 2.2
_symmetry_space_group_name_H-M    P1
_symmetry_Int_Tables_number       1
_space_group_crystal_system       triclinic
_cell_length_a                    22.36174
_cell_length_b                    13.024161
_cell_length_c                    26.951513
_cell_angle_alpha                 90.024852
_cell_angle_beta                  90.652739
_cell_angle_gamma                 89.786056
_cell_volume                      7848.87216509

loop_
_atom_site_label
_atom_site_type_symbol
_atom_type_description
_atom_site_fract_x
_atom_site_fract_y
_atom_site_fract_z
_atom_type_partial_charge
C1    C     C_R   0.705248 0.305865 0.173138 0.560302
C2    C     C_R   0.279352 0.344629 0.821923 0.539208
C3    C     C_R   0.221234 0.846322 0.178617 0.543575
C4    C     C_R   0.779046 0.845411 0.821581 0.546031
C5    C     C_R   0.474375 0.164694 0.871749 -0.006392
C6    C     C_R   0.524947 0.160170 0.128212 -0.004937
C7    C     C_R   0.976281 0.664231 0.870899 -0.004816
C8    C     C_R   0.027873 0.661313 0.127164 -0.002945
C9    C     C_R   0.510154 0.253292 0.104811 -0.152481
C10   C     C_R   0.472427 0.257626 0.898396 -0.131607
C11   C     C_R   0.017712 0.755371 0.102933 -0.134504
C12   C     C_R   0.977489 0.757904 0.896911 -0.132109
C13   C     C_R   0.499016 0.255382 0.053466 0.009905
C14   C     C_R   0.483084 0.258256 0.949657 0.012321
C15   C     C_R   0.006945 0.757293 0.051586 0.014991
C16   C     C_R   0.989639 0.759031 0.947955 0.013519
C17   C     C_R   0.502661 0.163252 0.025917 0.064482
C18   C     C_R   0.495876 0.164948 0.974112 0.063547
C19   C     C_R   0.007824 0.664339 0.024557 0.063916
C20   C     C_R   0.000587 0.665433 0.972796 0.063184
C21   C     C_R   0.486884 0.348084 0.028768 -0.147259
C22   C     C_R   0.478517 0.349398 0.977238 -0.141066
C23   C     C_R   0.997313 0.850344 0.026462 -0.135471
C24   C     C_R   0.988136 0.851108 0.975029 -0.134294
C25   C     C_R   0.738620 0.959676 0.129276 0.025725
C26   C     C_R   0.277453 0.020839 0.879649 0.019871
C27   C     C_R   0.240063 0.454176 0.130726 0.024055
C28   C     C_R   0.754667 0.447178 0.867105 0.022864
C29   C     C_R   0.793481 0.968156 0.104952 -0.124897
C30   C     C_R   0.223874 0.034890 0.905524 -0.127149
C31   C     C_R   0.295782 0.458541 0.107499 -0.129074
C32   C     C_R   0.703930 0.476933 0.893841 -0.124445
C33   C     C_R   0.796503 0.951178 0.054006 -0.116833
C34   C     C_R   0.221814 0.017926 0.956446 -0.119735
C35   C     C_R   0.300177 0.436783 0.057046 -0.118346
C36   C     C_R   0.694666 0.440184 0.941432 -0.117485
C37   C     C_R   0.744537 0.926983 0.026636 0.037939
C38   C     C_R   0.273401 0.987657 0.982938 0.036418
C39   C     C_R   0.248723 0.412182 0.029070 0.036662
C40   C     C_R   0.735136 0.370648 0.963430 0.038611
C41   C     C_R   0.690443 0.913200 0.051501 -0.118890
C42   C     C_R   0.327354 0.975326 0.957314 -0.117440
C43   C     C_R   0.193884 0.401049 0.053160 -0.123292
C44   C     C_R   0.784163 0.335838 0.935573 -0.115723
C45   C     C_R   0.553343 0.156939 0.177643 0.536899
C46   C     C_R   0.446319 0.157395 0.822441 0.538407
C47   C     C_R   0.054038 0.657047 0.177306 0.548209
C48   C     C_R   0.946707 0.657338 0.822199 0.550813
C49   C     C_R   0.687651 0.928229 0.102407 -0.124507
C50   C     C_R   0.329311 0.991717 0.906109 -0.129489
C51   C     C_R   0.189730 0.420730 0.103621 -0.127352
C52   C     C_R   0.794145 0.374529 0.887907 -0.126891
C53   C     C_R   0.713500 0.839340 0.948345 -0.119274
C54   C     C_R   0.297844 0.874817 0.055639 -0.115987
C55   C     C_R   0.216936 0.328989 0.949664 -0.116672
C56   C     C_R   0.778560 0.329917 0.047675 -0.118341
C57   C     C_R   0.719802 0.822804 0.897764 -0.126465
C58   C     C_R   0.285321 0.840693 0.103491 -0.125782
C59   C     C_R   0.221575 0.317339 0.898603 -0.127245
C60   C     C_R   0.771723 0.316878 0.098755 -0.117300
C61   C     C_R   0.790234 0.963595 0.893583 -0.125186
C62   C     C_R   0.218031 0.984797 0.114754 -0.124361
C63   C     C_R   0.294150 0.455003 0.896299 -0.123691
C64   C     C_R   0.664379 0.329761 0.088543 -0.129800
C65   C     C_R   0.783172 0.981214 0.944137 -0.116291
C66   C     C_R   0.231126 0.019618 0.067201 -0.116196
C67   C     C_R   0.288621 0.468045 0.947299 -0.116667
C68   C     C_R   0.670897 0.338841 0.037470 -0.116320
C69   C     C_R   0.746644 0.916457 0.972284 0.039380
C70   C     C_R   0.269127 0.962531 0.036368 0.036721
C71   C     C_R   0.251545 0.402745 0.974666 0.039811
C72   C     C_R   0.728166 0.342683 0.016466 0.033846
C73   C     C_R   0.760239 0.881832 0.870449 0.025000
C74   C     C_R   0.243456 0.893172 0.132658 0.023170
C75   C     C_R   0.262068 0.377342 0.871821 0.024827
C76   C     C_R   0.714476 0.319551 0.119643 0.024956
C77   C     C_R   0.529564 0.167262 0.371693 0.012880
C78   C     C_R   0.472814 0.170419 0.629613 0.015239
C79   C     C_R   0.029568 0.667263 0.371695 0.013722
C80   C     C_R   0.972815 0.670417 0.629613 0.016245
C81   C     C_R   0.530413 0.261780 0.396795 -0.126600
C82   C     C_R   0.456755 0.255678 0.600375 -0.123836
C83   C     C_R   0.030427 0.761779 0.396799 -0.126285
C84   C     C_R   0.956766 0.755684 0.600377 -0.123445
C85   C     C_R   0.521408 0.265381 0.447843 -0.124395
C86   C     C_R   0.470910 0.258457 0.550373 -0.111038
C87   C     C_R   0.021421 0.765379 0.447847 -0.124303
C88   C     C_R   0.970920 0.758464 0.550375 -0.110990
C89   C     C_R   0.731151 0.002372 0.179181 0.535713
C90   C     C_R   0.280284 0.043682 0.826077 0.561968
C91   C     C_R   0.231414 0.501405 0.179538 0.542312
C92   C     C_R   0.768215 0.501104 0.820466 0.554310
C93   C     C_R   0.511192 0.174599 0.474571 0.037709
C94   C     C_R   0.502618 0.177125 0.528821 0.048086
C95   C     C_R   0.011194 0.674599 0.474572 0.037745
C96   C     C_R   0.002619 0.677123 0.528822 0.048131
C97   C     C_R   0.507746 0.081075 0.448871 -0.051096
C98   C     C_R   0.522541 0.095366 0.559014 -0.070644
C99   C     C_R   0.007737 0.581078 0.448870 -0.051084
C100  C     C_R   0.022533 0.595355 0.559013 -0.070486
C101  C     C_R   0.516163 0.077500 0.397987 -0.101914
C102  C     C_R   0.506954 0.091276 0.608921 -0.107634
C103  C     C_R   0.016157 0.577503 0.397987 -0.101465
C104  C     C_R   0.006947 0.591265 0.608920 -0.107209
C105  C     C_R   0.739853 0.955439 0.371529 -0.017816
C106  C     C_R   0.277854 0.024545 0.618423 -0.024244
C107  C     C_R   0.239857 0.455417 0.371522 -0.017784
C108  C     C_R   0.777845 0.524500 0.618428 -0.022937
C109  C     C_R   0.688489 0.926330 0.397374 -0.088523
C110  C     C_R   0.330615 0.999547 0.593554 -0.091731
C111  C     C_R   0.188495 0.426325 0.397371 -0.088884
C112  C     C_R   0.830605 0.499511 0.593558 -0.091860
C113  C     C_R   0.691029 0.910095 0.447981 0.226341
C114  C     C_R   0.329713 0.982014 0.542638 0.239052
C115  C     C_R   0.191040 0.410068 0.447975 0.226384
C116  C     C_R   0.829700 0.481970 0.542644 0.238745
C117  C     C_R   0.746444 0.917363 0.472975 0.036752
C118  C     C_R   0.275476 0.990685 0.515838 0.038416
C119  C     C_R   0.246460 0.417296 0.472965 0.036803
C120  C     C_R   0.775461 0.490621 0.515848 0.038407
C121  C     C_R   0.798722 0.937869 0.446443 -0.160435
C122  C     C_R   0.223010 0.017997 0.540656 -0.170110
C123  C     C_R   0.298737 0.437779 0.446426 -0.160524
C124  C     C_R   0.722994 0.517915 0.540667 -0.170505
C125  C     C_R   0.795382 0.958061 0.395895 -0.143250
C126  C     C_R   0.224090 0.034548 0.591511 -0.149300
C127  C     C_R   0.295390 0.457993 0.395881 -0.143423
C128  C     C_R   0.724077 0.534477 0.591520 -0.149796
C129  C     C_R   0.780674 0.979352 0.555512 -0.119745
C130  C     C_R   0.239482 0.026452 0.429861 -0.117819
C131  C     C_R   0.280714 0.479279 0.555495 -0.119547
C132  C     C_R   0.739462 0.526401 0.429880 -0.117829
C133  C     C_R   0.721501 0.347707 0.321534 0.555014
C134  C     C_R   0.278764 0.346740 0.678194 0.537808
C135  C     C_R   0.221503 0.847714 0.321532 0.544670
C136  C     C_R   0.778758 0.846753 0.678198 0.534773
C137  C     C_R   0.786858 0.964806 0.606419 -0.129603
C138  C     C_R   0.225414 0.991140 0.382371 -0.127388
C139  C     C_R   0.286892 0.464753 0.606404 -0.129090
C140  C     C_R   0.725395 0.491101 0.382388 -0.126213
C141  C     C_R   0.727504 0.809489 0.599760 -0.119691
C142  C     C_R   0.277966 0.831667 0.400148 -0.124575
C143  C     C_R   0.227496 0.309485 0.599761 -0.119933
C144  C     C_R   0.777960 0.331645 0.400149 -0.125532
C145  C     C_R   0.724061 0.821073 0.548994 -0.065906
C146  C     C_R   0.290530 0.865724 0.447869 -0.068394
C147  C     C_R   0.224061 0.321045 0.548992 -0.065902
C148  C     C_R   0.790523 0.365689 0.447872 -0.068226
C149  C     C_R   0.750228 0.906183 0.526636 0.060990
C150  C     C_R   0.270832 0.962749 0.463238 0.065711
C151  C     C_R   0.250250 0.406123 0.526625 0.060959
C152  C     C_R   0.770818 0.462700 0.463248 0.065775
C153  C     C_R   0.761112 0.878583 0.628534 0.021526
C154  C     C_R   0.243646 0.892728 0.367723 0.021504
C155  C     C_R   0.261123 0.378563 0.628528 0.021102
C156  C     C_R   0.743636 0.392706 0.367730 0.020404
C157  C     C_R   0.554680 0.158766 0.321779 0.545900
C158  C     C_R   0.445673 0.158965 0.678512 0.529660
C159  C     C_R   0.054682 0.658766 0.321780 0.544412
C160  C     C_R   0.945672 0.658965 0.678512 0.528391
C161  C     C_R   0.731824 0.001809 0.322823 0.546817
C162  C     C_R   0.280292 0.046037 0.671716 0.562474
C163  C     C_R   0.231825 0.501804 0.322821 0.544473
C164  C     C_R   0.780289 0.546022 0.671715 0.559277
C165  C     C_R   0.522756 0.068037 0.100997 -0.126321
C166  C     C_R   0.491946 0.073919 0.895810 -0.140600
C167  C     C_R   0.023960 0.568990 0.100285 -0.130490
C168  C     C_R   0.992582 0.572925 0.895157 -0.128952
C169  C     C_R   0.513665 0.069189 0.050074 0.011353
C170  C     C_R   0.501097 0.072790 0.946884 0.010511
C171  C     C_R   0.016122 0.569974 0.049207 0.010887
C172  C     C_R   0.003067 0.572371 0.946048 0.014017
C173  C     C_R   0.512514 0.979907 0.971380 -0.142774
C174  C     C_R   0.518274 0.977985 0.022776 -0.144405
C175  C     C_R   0.012773 0.479324 0.970913 -0.133550
C176  C     C_R   0.018723 0.478028 0.022306 -0.139824
Cr1   Cr    Cr6+3 0.756570 0.170940 0.251190 1.019088
Cr2   Cr    Cr6+3 0.243430 0.170940 0.748810 1.009230
Cr3   Cr    Cr6+3 0.256570 0.670940 0.251190 1.021273
Cr4   Cr    Cr6+3 0.743430 0.670940 0.748810 1.012806
Cr5   Cr    Cr6+3 0.623740 0.299110 0.249580 1.012833
Cr6   Cr    Cr6+3 0.376260 0.299110 0.750420 1.007903
Cr7   Cr    Cr6+3 0.123740 0.799110 0.249580 1.017204
Cr8   Cr    Cr6+3 0.876260 0.799110 0.750420 1.013500
Cr9   Cr    Cr6+3 0.625990 0.036240 0.250480 1.011403
Cr10  Cr    Cr6+3 0.374010 0.036240 0.749520 1.021444
Cr11  Cr    Cr6+3 0.125990 0.536240 0.250480 1.015008
Cr12  Cr    Cr6+3 0.874010 0.536240 0.749520 1.020925
H1    H     H_    0.493946 0.002181 0.875434 0.128162
H2    H     H_    0.533007 0.995155 0.118625 0.129165
H3    H     H_    0.992405 0.500563 0.875224 0.130276
H4    H     H_    0.031544 0.495744 0.118454 0.127932
H5    H     H_    0.821337 0.010610 0.873177 0.123021
H6    H     H_    0.186243 0.027470 0.136785 0.124375
H7    H     H_    0.325543 0.502475 0.876451 0.126692
H8    H     H_    0.620076 0.330511 0.103957 0.125114
H9    H     H_    0.649626 0.895230 0.031380 0.105389
H10   H     H_    0.367993 0.953216 0.976838 0.114423
H11   H     H_    0.153394 0.382851 0.032627 0.103264
H12   H     H_    0.815580 0.280695 0.950977 0.095209
H13   H     H_    0.644506 0.922050 0.119994 0.128254
H14   H     H_    0.371458 0.982312 0.887270 0.134093
H15   H     H_    0.146022 0.417136 0.120437 0.127302
H16   H     H_    0.833483 0.349925 0.868003 0.120208
H17   H     H_    0.541423 0.332156 0.377610 0.135808
H18   H     H_    0.429534 0.317206 0.615200 0.140127
H19   H     H_    0.041444 0.832153 0.377616 0.135651
H20   H     H_    0.929551 0.817220 0.615204 0.140129
H21   H     H_    0.548471 0.032856 0.543753 0.180141
H22   H     H_    0.499805 0.009796 0.468042 0.212047
H23   H     H_    0.048456 0.532837 0.543751 0.180174
H24   H     H_    0.999786 0.509800 0.468040 0.211988
H25   H     H_    0.519823 0.024941 0.630847 0.139438
H26   H     H_    0.515554 0.003305 0.379814 0.152376
H27   H     H_    0.019808 0.524924 0.630844 0.139355
H28   H     H_    0.015541 0.503311 0.379812 0.152340
H29   H     H_    0.524925 0.338680 0.466577 0.108398
H30   H     H_    0.454110 0.321757 0.528167 0.105469
H31   H     H_    0.024946 0.838675 0.466583 0.108416
H32   H     H_    0.954127 0.821771 0.528171 0.105454
H33   H     H_    0.644967 0.925123 0.379279 0.168526
H34   H     H_    0.372701 0.993801 0.613654 0.169093
H35   H     H_    0.144970 0.425151 0.379282 0.168292
H36   H     H_    0.872692 0.493784 0.613656 0.169256
H37   H     H_    0.800890 0.045862 0.538472 0.117351
H38   H     H_    0.223673 0.101432 0.441364 0.120233
H39   H     H_    0.300946 0.545767 0.538449 0.117616
H40   H     H_    0.723647 0.601368 0.441390 0.120489
H41   H     H_    0.813395 0.018294 0.628087 0.132299
H42   H     H_    0.198819 0.039081 0.357722 0.128427
H43   H     H_    0.313444 0.518230 0.628066 0.133475
H44   H     H_    0.698793 0.539038 0.357747 0.131082
H45   H     H_    0.516199 0.908630 0.950856 0.103820
H46   H     H_    0.527150 0.905398 0.041134 0.098064
H47   H     H_    0.014579 0.407421 0.950715 0.102168
H48   H     H_    0.025817 0.405245 0.040991 0.095766
H49   H     H_    0.702052 0.762281 0.527058 0.155465
H50   H     H_    0.312735 0.813894 0.473592 0.158836
H51   H     H_    0.202037 0.262262 0.527063 0.155399
H52   H     H_    0.812733 0.313861 0.473590 0.158715
H53   H     H_    0.707609 0.741932 0.615902 0.132751
H54   H     H_    0.291543 0.754664 0.389847 0.136675
H55   H     H_    0.207581 0.241957 0.615911 0.132459
H56   H     H_    0.791543 0.254653 0.389840 0.136221
H57   H     H_    0.841741 0.941919 0.465247 0.116865
H58   H     H_    0.180684 0.023614 0.520849 0.125995
H59   H     H_    0.341760 0.441798 0.465225 0.116851
H60   H     H_    0.680668 0.523515 0.520861 0.125947
H61   H     H_    0.458893 0.328108 0.879985 0.130015
H62   H     H_    0.510921 0.324292 0.125812 0.114949
H63   H     H_    0.965212 0.828784 0.878267 0.128572
H64   H     H_    0.020721 0.826758 0.123495 0.121481
H65   H     H_    0.468407 0.421599 0.958970 0.103708
H66   H     H_    0.483945 0.419467 0.049269 0.102953
H67   H     H_    0.979631 0.923571 0.956464 0.102627
H68   H     H_    0.996518 0.922345 0.046604 0.101630
H69   H     H_    0.833387 0.992217 0.124855 0.124100
H70   H     H_    0.183203 0.058410 0.886463 0.126552
H71   H     H_    0.335284 0.483419 0.127718 0.122538
H72   H     H_    0.672696 0.533265 0.879136 0.126388
H73   H     H_    0.685179 0.787971 0.969072 0.101509
H74   H     H_    0.327049 0.828852 0.032727 0.102304
H75   H     H_    0.188189 0.277186 0.969733 0.096439
H76   H     H_    0.823378 0.333736 0.033079 0.103385
H77   H     H_    0.696360 0.758720 0.880977 0.128117
H78   H     H_    0.305476 0.769636 0.116355 0.129236
H79   H     H_    0.196479 0.256449 0.880757 0.123659
H80   H     H_    0.811250 0.307827 0.121946 0.128896
H81   H     H_    0.839219 0.959122 0.035889 0.104717
H82   H     H_    0.179276 0.026189 0.974851 0.102178
H83   H     H_    0.343437 0.442546 0.039617 0.106862
H84   H     H_    0.657208 0.470991 0.961769 0.100453
H85   H     H_    0.807685 0.043457 0.961468 0.099454
H86   H     H_    0.209606 0.089078 0.053809 0.103323
H87   H     H_    0.314322 0.527852 0.965431 0.101398
H88   H     H_    0.630904 0.344892 0.014632 0.117477
O1    O     O_R   0.769900 0.064540 0.196060 -0.525932
O2    O     O_R   0.230100 0.064540 0.803940 -0.512148
O3    O     O_R   0.269900 0.564540 0.196060 -0.520889
O4    O     O_R   0.730100 0.564540 0.803940 -0.519888
O5    O     O_R   0.574760 0.239320 0.300850 -0.501250
O6    O     O_R   0.425240 0.239320 0.699150 -0.501868
O7    O     O_R   0.074760 0.739320 0.300850 -0.502605
O8    O     O_R   0.925240 0.739320 0.699150 -0.504008
O9    O     O_R   0.566290 0.069580 0.305400 -0.518751
O10   O     O_R   0.433710 0.069580 0.694600 -0.526596
O11   O     O_R   0.066290 0.569580 0.305400 -0.520535
O12   O     O_R   0.933710 0.569580 0.694600 -0.528338
O13   O     O_R   0.680760 0.993330 0.302620 -0.505286
O14   O     O_R   0.319240 0.993330 0.697380 -0.485790
O15   O     O_R   0.180760 0.493330 0.302620 -0.508356
O16   O     O_R   0.819240 0.493330 0.697380 -0.495005
O17   O     O_3   0.668770 0.168760 0.250420 -0.260916
O18   O     O_3   0.331230 0.168760 0.749580 -0.283583
O19   O     O_3   0.168770 0.668760 0.250420 -0.239662
O20   O     O_3   0.831230 0.668760 0.749580 -0.262347
O21   O     O_R   0.750800 0.274080 0.199250 -0.503472
O22   O     O_R   0.249200 0.274080 0.800750 -0.520235
O23   O     O_R   0.250800 0.774080 0.199250 -0.502633
O24   O     O_R   0.749200 0.774080 0.800750 -0.504347
O25   O     O_R   0.669990 0.371670 0.194150 -0.510467
O26   O     O_R   0.330010 0.371670 0.805850 -0.516508
O27   O     O_R   0.169990 0.871670 0.194150 -0.519857
O28   O     O_R   0.830010 0.871670 0.805850 -0.517478
O29   O     O_R   0.574600 0.238480 0.197800 -0.521050
O30   O     O_R   0.425400 0.238480 0.802200 -0.499921
O31   O     O_R   0.074600 0.738480 0.197800 -0.499341
O32   O     O_R   0.925400 0.738480 0.802200 -0.498325
O33   O     O_R   0.566130 0.068680 0.194240 -0.522622
O34   O     O_R   0.433870 0.068680 0.805760 -0.532365
O35   O     O_R   0.066130 0.568680 0.194240 -0.524626
O36   O     O_R   0.933870 0.568680 0.805760 -0.519266
O37   O     O_R   0.680610 0.992490 0.199570 -0.506803
O38   O     O_R   0.319390 0.992490 0.800430 -0.487816
O39   O     O_R   0.180610 0.492490 0.199570 -0.505959
O40   O     O_R   0.819390 0.492490 0.800430 -0.494464
O41   O     O_R   0.770060 0.065440 0.307230 -0.516169
O42   O     O_R   0.229940 0.065440 0.692770 -0.508426
O43   O     O_R   0.270060 0.565440 0.307230 -0.516900
O44   O     O_R   0.729940 0.565440 0.692770 -0.515499
O45   O     O_R   0.750960 0.274920 0.302300 -0.496516
O46   O     O_R   0.249040 0.274920 0.697700 -0.520563
O47   O     O_R   0.250960 0.774920 0.302300 -0.501464
O48   O     O_R   0.749040 0.774920 0.697700 -0.521541
O49   O     O_R   0.670160 0.372580 0.305320 -0.513915
O50   O     O_R   0.329840 0.372580 0.694680 -0.517024
O51   O     O_R   0.170160 0.872580 0.305320 -0.519571
O52   O     O_R   0.829840 0.872580 0.694680 -0.519662
Cl1   Cl    Cl    0.622475 0.893614 0.478730 -0.688580
Cl2   Cl    Cl    0.397541 0.950603 0.514077 -0.676767
Cl3   Cl    Cl    0.122489 0.393619 0.478731 -0.688694
Cl4   Cl    Cl    0.897526 0.450590 0.514078 -0.676933
H89   H     H_    0.835437 0.980325 0.376468 0.138773
H90   H     H_    0.182701 0.054592 0.609659 0.147387
H91   H     H_    0.335445 0.480239 0.376451 0.138687
H92   H     H_    0.682689 0.554514 0.609670 0.147155

loop_
_geom_bond_atom_site_label_1
_geom_bond_atom_site_label_2
_ccdc_geom_bond_type
C99   C103  A    
C7    C168  A    
C92   O40   A    
C55   C59   A    
C142  C146  A    
C131  C151  A    
C19   C20   A    
C45   O29   A    
C53   C69   A    
C38   C70   S    
C108  C164  S    
C37   C69   S    
C26   C50   A    
C95   C99   A    
C29   C33   A    
C100  C104  A    
C3    C74   S    
C9    C13   A    
C163  O43   A    
C21   H66   S    
C146  C150  A    
C11   C15   A    
Cr7   O51   S    
C12   C16   A    
C56   C72   A    
C169  C174  A    
Cr2   O2    S    
C172  C175  A    
C141  C145  A    
C122  H58   S    
C108  C112  A    
C138  C154  A    
C6    C165  A    
C160  O8    A    
C21   C22   A    
C135  O51   A    
C112  H36   S    
C174  H46   S    
C41   C49   A    
Cr12  O16   S    
C18   C170  A    
C25   C29   A    
C27   C31   A    
C28   C32   A    
Cr9   O13   S    
Cr10  O10   S    
C62   C66   A    
C167  C171  A    
C98   C102  A    
C60   C76   A    
C29   H69   S    
Cr6   O30   S    
Cr8   O52   S    
C78   C82   A    
C102  H25   S    
C175  C176  A    
C54   C70   A    
C36   C40   A    
C68   C72   A    
C117  C149  S    
C165  H2    S    
C137  C153  A    
C2    O26   A    
C3    O23   A    
Cr8   O28   S    
C20   C172  A    
C175  H47   S    
C132  C152  A    
C62   H6    S    
C130  C138  A    
C109  H33   S    
C148  H52   S    
C84   C88   A    
C92   O4    A    
Cr6   O6    S    
C119  C123  A    
C26   C90   S    
C5    C46   S    
C105  C125  A    
C7    C48   S    
Cr6   O26   S    
Cr3   O23   S    
C8    C47   S    
C107  C127  A    
C136  C153  S    
C66   C70   A    
C144  H56   S    
C61   C65   A    
C158  O6    A    
C129  C137  A    
C130  H38   S    
C39   C71   S    
C34   H82   S    
C47   O31   A    
C4    O24   A    
C89   O37   A    
C103  H28   S    
C55   C71   A    
C2    C75   S    
C124  H60   S    
Cr10  O38   S    
C161  O13   A    
C134  O46   A    
Cr4   O4    S    
C46   O34   A    
C6    C9    A    
C129  C149  A    
C12   H63   S    
C126  H90   S    
C64   C68   A    
Cr5   O17   S    
C53   H73   S    
C161  O41   A    
C86   H30   S    
C81   H17   S    
C57   C73   A    
C83   H19   S    
C123  C127  A    
C78   C158  S    
C146  H50   S    
C87   C95   A    
C130  C150  A    
C23   C24   A    
C27   C91   S    
C110  C114  A    
C44   C52   A    
C164  O44   A    
C79   C103  A    
C27   C51   A    
C7    C12   A    
C98   H21   S    
C49   H13   S    
C30   C34   A    
C65   H85   S    
C138  H42   S    
C41   H9    S    
C10   C14   A    
C164  O16   A    
C133  O49   A    
C142  H54   S    
C108  C128  A    
C116  C120  A    
C144  C156  A    
C147  C151  A    
C114  Cl2   S    
C121  C125  A    
C84   H20   S    
C143  C155  A    
C139  C155  A    
C89   O1    A    
C17   C18   A    
C36   H84   S    
C5    C166  A    
C142  C154  A    
C91   O3    A    
C4    C73   S    
Cr12  O20   S    
C42   C50   A    
C113  C117  A    
C107  C163  S    
C26   C30   A    
C115  C119  A    
C105  C161  S    
Cr9   O17   S    
Cr10  O14   S    
C93   C97   A    
C112  C116  A    
Cr11  O19   S    
C58   C74   A    
Cr4   O44   S    
C105  C109  A    
C127  H91   S    
C40   C72   S    
C30   H70   S    
C1    C76   S    
Cr7   O31   S    
C148  C152  A    
C23   H68   S    
C139  H43   S    
C44   H12   S    
C147  H51   S    
C171  C176  A    
C100  H23   S    
C11   H64   S    
C13   C17   A    
C166  H1    S    
C14   C22   A    
C9    H62   S    
Cr3   O47   S    
C141  C153  A    
C63   C75   A    
C64   H8    S    
C121  H57   S    
C143  H55   S    
C37   C41   A    
C145  C149  A    
C131  C139  A    
C40   C44   A    
C56   C60   A    
C129  H37   S    
C81   C85   A    
C115  Cl3   S    
C83   C87   A    
C88   C96   A    
Cr1   O17   S    
C6    C45   S    
C61   H5    S    
C78   C102  A    
C133  C156  S    
Cr3   O19   S    
Cr2   O22   S    
Cr7   O19   S    
C80   C84   A    
C15   C19   A    
C135  C154  S    
C80   C104  A    
C1    O21   A    
C116  Cl4   S    
Cr6   O18   S    
C132  H40   S    
C79   C159  S    
C80   C160  S    
C94   C98   A    
C135  O47   A    
C47   O35   A    
C4    O28   A    
C118  C150  S    
C22   H65   S    
C90   O38   A    
Cr1   O21   S    
Cr12  O12   S    
C51   H15   S    
C159  O7    A    
Cr11  O39   S    
C82   H18   S    
C128  H92   S    
C46   O30   A    
C124  C128  A    
C50   H14   S    
Cr4   O20   S    
C165  C169  A    
C107  C111  A    
C60   H80   S    
C173  H45   S    
C85   H29   S    
C162  O42   A    
C137  H41   S    
C53   C57   A    
C157  O9    A    
C61   C73   A    
C82   C86   A    
C141  H53   S    
C88   H32   S    
C52   H16   S    
C48   O36   A    
Cr12  O36   S    
C35   C39   A    
C8    C167  A    
Cr4   O48   S    
C42   H10   S    
C101  H26   S    
Cr9   O33   S    
C111  H35   S    
Cr11  O35   S    
C140  H44   S    
C63   H7    S    
C136  O52   A    
Cr1   O41   S    
C110  H34   S    
C32   C36   A    
Cr3   O43   S    
C133  O45   A    
C104  H27   S    
Cr8   O8    S    
C162  O14   A    
C132  C140  A    
C106  C126  A    
C25   C89   S    
C90   O2    A    
C45   O33   A    
Cr12  O40   S    
C79   C83   A    
C43   C51   A    
C65   C69   A    
C77   C101  A    
C67   C71   A    
C106  C162  S    
C67   H87   S    
Cr10  O18   S    
C25   C49   A    
Cr11  O15   S    
C131  H39   S    
C168  C172  A    
C77   C81   A    
Cr7   O7    S    
C134  O50   A    
C62   C74   A    
C31   H71   S    
C163  O15   A    
C170  C173  A    
C93   C94   S    
Cr2   O46   S    
C14   C18   A    
C95   C96   S    
C144  C148  A    
Cr8   O20   S    
C173  C174  A    
C143  C147  A    
C167  H4    S    
C168  H3    S    
C55   H75   S    
C125  H89   S    
C56   H76   S    
C19   C171  A    
C38   C42   A    
Cr8   O32   S    
C17   C169  A    
C96   C100  A    
Cr9   O9    S    
C117  C121  A    
C86   C94   A    
Cr11  O11   S    
C134  C155  S    
C145  H49   S    
Cr2   O18   S    
C59   H79   S    
C87   H31   S    
C16   C20   A    
Cr5   O49   S    
C15   C23   A    
Cr3   O3    S    
C16   C24   A    
C1    O25   A    
Cr1   O45   S    
C2    O22   A    
C3    O27   A    
C99   H24   S    
C119  C151  S    
C63   C67   A    
C120  C152  S    
C97   H22   S    
C13   C21   A    
C54   H74   S    
C48   O32   A    
C58   H78   S    
C91   O39   A    
C39   C43   A    
C159  O11   A    
Cr5   O29   S    
C160  O12   A    
C122  C126  A    
C24   H67   S    
C118  C122  A    
Cr5   O5    S    
C113  Cl1   S    
C85   C93   A    
C68   H88   S    
Cr4   O24   S    
C64   C76   A    
Cr5   O25   S    
C28   C92   S    
C109  C113  A    
Cr7   O27   S    
C114  C118  A    
C140  C156  A    
C59   C75   A    
C157  O5    A    
C54   C58   A    
C158  O10   A    
C33   H81   S    
C34   C38   A    
C35   H83   S    
C43   H11   S    
Cr1   O1    S    
Cr9   O37   S    
Cr6   O50   S    
Cr10  O34   S    
C10   H61   S    
C5    C10   A    
C123  H59   S    
C28   C52   A    
C176  H48   S    
C8    C11   A    
C166  C170  A    
C33   C37   A    
C136  O48   A    
C31   C35   A    
Cr2   O42   S    
C32   H72   S    
C66   H86   S    
C57   H77   S    
C106  C110  A    
C111  C115  A    
C97   C101  A    
C120  C124  A    
C77   C157  S    
