data_mof_unit_58707.cif
_audit_creation_date              2012-12-10T17:49:38-0500
_audit_creation_method            fapswitch 2.2
_symmetry_space_group_name_H-M    P1
_symmetry_Int_Tables_number       1
_space_group_crystal_system       triclinic
_cell_length_a                    14.729029
_cell_length_b                    14.800005
_cell_length_c                    15.910481
_cell_angle_alpha                 76.792954
_cell_angle_beta                  101.904701
_cell_angle_gamma                 115.032764
_cell_volume                      3035.69883814

loop_
_atom_site_label
_atom_site_type_symbol
_atom_type_description
_atom_site_fract_x
_atom_site_fract_y
_atom_site_fract_z
_atom_type_partial_charge
C1    C     C_R   0.880078 0.312711 0.515659 0.790341
C2    C     C_3   0.021743 0.418784 0.070008 -0.347427
C3    C     C_3   0.017208 0.517648 0.083288 0.167282
C4    C     C_3   0.109021 0.611392 0.045663 -0.220397
C5    C     C_3   0.110045 0.606318 0.948175 -0.178798
C6    C     C_1   0.016071 0.514962 0.175973 -0.059475
C7    C     C_1   0.009239 0.512908 0.823954 -0.097119
C8    C     C_1   0.004927 0.508568 0.748496 -0.160048
C9    C     C_R   0.811005 0.208436 0.542430 -0.048391
C10   C     C_R   0.188907 0.795752 0.478503 -0.117217
C11   C     C_R   0.758861 0.072727 0.662415 -0.204278
C12   C     C_R   0.000894 0.502245 0.659342 0.844891
C13   C     C_R   0.834874 0.155116 0.622178 -0.197481
C14   C     C_R   0.711882 0.173917 0.500142 -0.158839
C15   C     C_R   0.631742 0.097944 0.543417 0.097126
C16   C     C_R   0.657735 0.045569 0.625063 0.152881
C17   C     C_R   0.527131 0.070698 0.508408 -0.021265
C18   C     C_R   0.455189 0.978187 0.547355 0.068723
C19   C     C_R   0.482824 0.936366 0.632582 -0.171441
C20   C     C_R   0.582388 0.968760 0.670336 -0.214080
C21   C     C_R   0.489375 0.131941 0.439527 -0.033619
C22   C     C_R   0.387866 0.094087 0.404600 -0.242049
C23   C     C_R   0.120139 0.687566 0.487606 0.816042
C24   C     C_R   0.321835 0.996958 0.434254 0.118134
C25   C     C_R   0.355639 0.934537 0.502916 0.019571
C26   C     C_R   0.221370 0.962754 0.395818 -0.162057
C27   C     C_R   0.155091 0.864188 0.419403 -0.193982
C28   C     C_R   0.290022 0.830256 0.521097 -0.059478
C29   C     C_R   0.719479 0.667163 0.350930 -0.087670
C30   C     C_R   0.801025 0.639034 0.379001 0.017726
C31   C     C_R   0.711660 0.507429 0.483671 0.071380
C32   C     C_R   0.627645 0.535605 0.465047 -0.036672
C33   C     C_R   0.633424 0.619741 0.397655 -0.002646
C34   C     C_R   0.002549 0.502441 0.340531 0.817182
C35   C     C_R   0.537985 0.481554 0.508506 0.039481
C36   C     C_R   0.452937 0.509538 0.478744 -0.017677
C37   C     C_R   0.459024 0.588937 0.406862 -0.090335
C38   C     C_R   0.552397 0.651798 0.376514 -0.065563
C39   C     C_R   0.526953 0.397886 0.578580 0.038128
C40   C     C_R   0.432371 0.335869 0.604713 -0.225403
C41   C     C_R   0.353280 0.366742 0.581139 0.142121
C42   C     C_R   0.365088 0.458062 0.523924 -0.006241
C43   C     C_R   0.265580 0.311265 0.621476 -0.302148
C44   C     C_R   0.190995 0.348449 0.607039 0.088539
C45   C     C_3   0.017200 0.417315 0.972194 -0.422595
C46   C     C_R   0.289980 0.495771 0.518594 0.065066
C47   C     C_3   0.915774 0.523426 0.932334 -0.419988
C48   C     C_3   0.919167 0.528247 0.029556 -0.128990
C49   C     C_1   0.010139 0.509514 0.251226 -0.130681
C50   C     C_3   0.013149 0.516679 0.916413 0.247537
Cu1   Cu    Cu3+1 0.081750 0.475690 0.522550 0.977035
Cu2   Cu    Cu3+1 0.918250 0.524310 0.477450 0.965044
H1    H     H_    0.959366 0.351474 0.098253 0.167989
H2    H     H_    0.084492 0.407154 0.961666 0.185315
H3    H     H_    0.091586 0.410765 0.106017 0.223528
H4    H     H_    0.097400 0.679901 0.048833 0.130999
H5    H     H_    0.600581 0.932462 0.735033 0.144457
H6    H     H_    0.078608 0.839636 0.386352 0.171088
H7    H     H_    0.359068 0.141950 0.354199 0.181449
H8    H     H_    0.778466 0.033494 0.725142 0.135735
H9    H     H_    0.910903 0.181117 0.656059 0.139543
H10   H     H_    0.699202 0.210048 0.434432 0.146718
H11   H     H_    0.949758 0.351116 0.952052 0.161295
H12   H     H_    0.427380 0.879840 0.672466 0.141445
H13   H     H_    0.194303 0.011997 0.345681 0.149638
H14   H     H_    0.298186 0.570296 0.486657 0.167200
H15   H     H_    0.121845 0.304832 0.636072 0.123596
H16   H     H_    0.424110 0.269963 0.654499 0.135751
H17   H     H_    0.867680 0.675448 0.345611 0.147842
H18   H     H_    0.713914 0.442689 0.528342 0.199204
H19   H     H_    0.905178 0.590121 0.890392 0.154425
H20   H     H_    0.255344 0.240366 0.664670 0.135399
H21   H     H_    0.849398 0.456947 0.912354 0.169408
H22   H     H_    0.926825 0.606031 0.031062 0.112125
H23   H     H_    0.174236 0.585922 0.946320 0.151710
N1    N     N_R   0.795410 0.560790 0.443550 -0.207046
N2    N     N_R   0.204590 0.439170 0.556520 -0.192907
O1    O     O_R   0.977910 0.338120 0.529720 -0.596603
O2    O     O_R   0.839850 0.379180 0.491640 -0.556507
O3    O     O_R   0.069060 0.479460 0.639610 -0.570848
O4    O     O_R   0.931000 0.520530 0.601530 -0.573358
O5    O     O_R   0.160150 0.620820 0.508360 -0.565277
O6    O     O_R   0.022090 0.661880 0.470280 -0.591352
O7    O     O_R   0.069000 0.479470 0.398470 -0.554393
O8    O     O_R   0.930940 0.520540 0.360390 -0.586797
C51   C     C_2   0.329407 0.755475 0.575363 0.836367
O9    O     O_2   0.401288 0.747378 0.555584 -0.570129
O10   O     O_R   0.284676 0.695226 0.649320 -0.784689
H24   H     H_    0.317904 0.647116 0.680729 0.330363
C52   C     C_2   0.544578 0.241423 0.412586 0.817465
O11   O     O_2   0.597426 0.294104 0.467003 -0.639267
O12   O     O_R   0.531427 0.285604 0.325869 -0.776556
H25   H     H_    0.570630 0.361520 0.316720 0.332842
C53   C     C_2   0.568017 0.755966 0.330743 0.930404
O13   O     O_2   0.515670 0.769882 0.262785 -0.559746
O14   O     O_R   0.645303 0.838256 0.365219 -0.743012
H26   H     H_    0.649754 0.905363 0.328477 0.340670
C54   C     C_2   0.722651 0.734072 0.265677 0.817191
O15   O     O_2   0.796931 0.812406 0.252330 -0.591655
O16   O     O_R   0.642838 0.704707 0.199178 -0.742131
H27   H     H_    0.654272 0.755737 0.143667 0.343564
C55   C     C_2   0.366791 0.598857 0.354346 0.847148
O17   O     O_2   0.303565 0.528264 0.319457 -0.552662
O18   O     O_R   0.350174 0.686643 0.348221 -0.731697
H28   H     H_    0.281849 0.681510 0.315428 0.343761
C56   C     C_R   0.610813 0.382275 0.640107 0.078167
C57   C     C_R   0.615375 0.286365 0.662826 -0.089435
C58   C     C_R   0.693088 0.272188 0.723717 -0.137221
C59   C     C_R   0.766356 0.353201 0.762163 -0.129460
C60   C     C_R   0.761865 0.448503 0.739585 -0.107045
C61   C     C_R   0.683696 0.462684 0.680180 -0.170354
H29   H     H_    0.558818 0.222792 0.633560 0.146953
H30   H     H_    0.696355 0.198479 0.741303 0.136283
H31   H     H_    0.826396 0.341732 0.809258 0.119075
H32   H     H_    0.818831 0.512567 0.766927 0.136191
H33   H     H_    0.680662 0.536625 0.664444 0.140291
C62   C     C_R   0.820912 0.456757 0.067366 0.142114
C63   C     C_R   0.776099 0.494557 0.113517 -0.155535
C64   C     C_R   0.686695 0.431523 0.149110 -0.098477
C65   C     C_R   0.640546 0.329914 0.139172 -0.093008
C66   C     C_R   0.683782 0.291180 0.093668 -0.146192
C67   C     C_R   0.773213 0.353872 0.057894 -0.140373
H34   H     H_    0.810672 0.572972 0.122576 0.126727
H35   H     H_    0.653182 0.461742 0.184247 0.151448
H36   H     H_    0.571060 0.281190 0.166374 0.176830
H37   H     H_    0.647690 0.212450 0.085730 0.144441
H38   H     H_    0.803674 0.321617 0.022018 0.121789
C68   C     C_R   0.128878 0.707310 0.887330 0.109802
C69   C     C_R   0.202299 0.742294 0.829928 -0.112597
C70   C     C_R   0.218609 0.832102 0.771115 -0.100766
C71   C     C_R   0.162563 0.888719 0.768982 -0.117714
C72   C     C_R   0.090032 0.855615 0.825663 -0.127493
C73   C     C_R   0.073016 0.765618 0.884368 -0.129596
H39   H     H_    0.246150 0.699298 0.829612 0.141240
H40   H     H_    0.274463 0.857651 0.726862 0.135694
H41   H     H_    0.175319 0.958234 0.723382 0.126189
H42   H     H_    0.046685 0.899688 0.824036 0.128860
H43   H     H_    0.016483 0.742662 0.927301 0.110823
C74   C     C_2   0.210764 0.625201 0.098853 0.870479
O19   O     O_2   0.246490 0.562082 0.107663 -0.566320
O20   O     O_R   0.265578 0.713323 0.135369 -0.754704
H44   H     H_    0.334349 0.716906 0.165634 0.383708

loop_
_geom_bond_atom_site_label_1
_geom_bond_atom_site_label_2
_ccdc_geom_bond_type
C10   C27   A    
C39   C56   S    
C43   H20   S    
C23   O5    A    
C11   C13   A    
C41   C42   A    
C63   C64   A    
C36   C42   A    
C35   C36   A    
C43   C44   A    
C3    C6    S    
C68   C69   A    
C52   O11   D    
C7    C8    T    
C64   H35   S    
C25   C28   A    
C26   C27   A    
C29   C30   A    
C23   O6    A    
C29   C54   S    
C36   C37   A    
C24   C26   A    
C46   H14   S    
C2    H3    S    
C42   C46   A    
C37   C55   S    
C51   O10   S    
C56   C57   A    
C15   C16   A    
C14   H10   S    
C29   C33   A    
C3    C48   S    
C58   C59   A    
C18   C19   A    
C57   H29   S    
C67   H38   S    
C9    C13   A    
C60   C61   A    
O12   H25   S    
Cu1   O3    S    
C31   H18   S    
C19   C20   A    
C72   C73   A    
C57   C58   A    
C61   H33   S    
Cu2   O2    S    
C8    C12   S    
C21   C52   S    
C73   H43   S    
C21   C22   A    
C4    H4    S    
C1    O1    A    
C41   C43   A    
C55   O17   D    
C18   C25   A    
C34   O7    A    
O18   H28   S    
C47   C50   S    
C56   C61   A    
C2    C45   S    
Cu1   Cu2   S    
C32   C35   A    
C48   H22   S    
C1    C9    S    
C24   C25   A    
C47   H21   S    
C71   H41   S    
C22   H7    S    
C9    C14   A    
C51   O9    D    
C72   H42   S    
C45   H11   S    
C17   C21   A    
C3    C4    S    
C34   O8    A    
C58   H30   S    
C5    H23   S    
Cu2   O6    S    
C53   O14   S    
C62   C67   A    
Cu1   N2    S    
C68   C73   A    
C37   C38   A    
C30   N1    A    
C11   C16   A    
C52   O12   S    
C47   C48   S    
C19   H12   S    
C16   C20   A    
O14   H26   S    
C38   C53   S    
C17   C18   A    
C64   C65   A    
C55   O18   S    
Cu1   O5    S    
C47   H19   S    
C66   C67   A    
C59   H31   S    
C40   C41   A    
C70   H40   S    
C45   H2    S    
C54   O16   S    
C28   C51   S    
C1    O2    A    
C22   C24   A    
C5    C50   S    
C71   C72   A    
C39   C40   A    
C30   H17   S    
C65   C66   A    
C69   C70   A    
C10   C28   A    
C15   C17   A    
Cu2   O8    S    
C34   C49   S    
C65   H36   S    
C26   H13   S    
C31   C32   A    
C7    C50   S    
C4    C5    S    
Cu2   N1    S    
C2    H1    S    
Cu2   O4    S    
C46   N2    A    
C74   O19   D    
C48   C62   S    
C10   C23   S    
Cu1   O7    S    
C44   N2    A    
C33   C38   A    
C32   C33   A    
C70   C71   A    
Cu1   O1    S    
C66   H37   S    
O20   H44   S    
C4    C74   S    
C74   O20   S    
C31   N1    A    
C45   C50   S    
C27   H6    S    
C35   C39   A    
C12   O3    A    
C5    C68   S    
O16   H27   S    
C12   O4    A    
C2    C3    S    
C63   H34   S    
C6    C49   T    
C53   O13   D    
C69   H39   S    
C13   H9    S    
O10   H24   S    
C54   O15   D    
C40   H16   S    
C59   C60   A    
C14   C15   A    
C44   H15   S    
C20   H5    S    
C62   C63   A    
C60   H32   S    
C11   H8    S    
