data_mof_unit_67881.cif
_audit_creation_date              2012-12-10T16:55:50-0500
_audit_creation_method            fapswitch 2.2
_symmetry_space_group_name_H-M    P1
_symmetry_Int_Tables_number       1
_space_group_crystal_system       triclinic
_cell_length_a                    7.975196
_cell_length_b                    8.630228
_cell_length_c                    10.518109
_cell_angle_alpha                 93.420903
_cell_angle_beta                  88.104907
_cell_angle_gamma                 91.249171
_cell_volume                      722.110020568

loop_
_atom_site_label
_atom_site_type_symbol
_atom_type_description
_atom_site_fract_x
_atom_site_fract_y
_atom_site_fract_z
_atom_type_partial_charge
C1    C     C_R   0.543367 0.793272 0.498796 0.946515
C2    C     C_3   0.512338 0.516191 0.877171 -0.038682
C3    C     C_3   0.378288 0.402087 0.026114 0.157519
C4    C     C_3   0.621623 0.607135 0.973344 0.178858
C5    C     C_2   0.567484 0.955793 0.502689 -0.403255
C6    C     C_2   0.434848 0.044877 0.505547 -0.407940
C7    C     C_3   0.235032 0.286846 0.047829 -0.464378
C8    C     C_3   0.131949 0.259978 0.927438 -0.295932
C9    C     C_3   0.992588 0.139869 0.945819 -0.947524
C10   C     C_3   0.758339 0.731433 0.958337 -0.450268
C11   C     C_3   0.827759 0.785695 0.089555 -0.312605
C12   C     C_R   0.457232 0.206985 0.503950 0.952604
C13   C     C_3   0.995209 0.712008 0.114305 -0.857190
C14   C     C_3   0.013111 0.352191 0.364593 -0.179490
C15   C     C_3   0.958896 0.184705 0.386855 -0.346720
C16   C     C_3   0.065510 0.067774 0.307721 -1.000665
C17   C     C_3   0.985296 0.639387 0.640760 -0.163015
C18   C     C_3   0.044997 0.808890 0.633439 -0.357424
C19   C     C_3   0.168951 0.857774 0.736673 -0.859972
C20   C     C_R   0.505705 0.511601 0.741641 0.833521
C21   C     C_R   0.494613 0.491981 0.258000 0.843311
C22   C     C_3   0.353774 0.553095 0.959383 -0.186015
C23   C     C_3   0.646796 0.455972 0.039877 -0.160217
C24   C     C_3   0.463716 0.643506 0.057102 -0.232755
C25   C     C_3   0.535621 0.364682 0.942513 -0.232361
C26   C     C_3   0.487995 0.492247 0.122292 -0.034388
H1    H     H_    0.431681 0.756942 0.106418 0.137348
H2    H     H_    0.073020 0.369525 0.903582 0.216804
H3    H     H_    0.215582 0.220656 0.845931 0.229407
H4    H     H_    0.287302 0.176120 0.076028 0.200807
H5    H     H_    0.153421 0.335874 0.125530 0.201564
H6    H     H_    0.995335 0.587613 0.081403 0.253779
H7    H     H_    0.098374 0.774591 0.064530 0.241405
H8    H     H_    0.018874 0.719299 0.217769 0.256818
H9    H     H_    0.843282 0.913464 0.095309 0.206175
H10   H     H_    0.738013 0.759764 0.168832 0.235826
H11   H     H_    0.859117 0.684917 0.893388 0.201440
H12   H     H_    0.566004 0.250748 0.893385 0.139382
H13   H     H_    0.703212 0.831438 0.913891 0.169544
H14   H     H_    0.038294 0.072591 0.205737 0.279155
H15   H     H_    0.201330 0.091551 0.319203 0.270099
H16   H     H_    0.034793 0.949644 0.338355 0.266810
H17   H     H_    0.968077 0.162198 0.489424 0.230873
H18   H     H_    0.828361 0.165392 0.356420 0.245493
H19   H     H_    0.961251 0.386306 0.274135 0.146645
H20   H     H_    0.147347 0.355090 0.355854 0.241353
H21   H     H_    0.112263 0.836986 0.831681 0.240676
H22   H     H_    0.286138 0.792139 0.725915 0.288572
H23   H     H_    0.236113 0.596081 0.922294 0.145079
H24   H     H_    0.201093 0.982725 0.731570 0.248816
H25   H     H_    0.097910 0.829143 0.537221 0.238201
H26   H     H_    0.935408 0.886523 0.647710 0.182403
H27   H     H_    0.851228 0.644503 0.643240 0.208438
H28   H     H_    0.023457 0.589287 0.729860 0.154053
H29   H     H_    0.766341 0.414331 0.074755 0.150200
H30   H     H_    0.695237 0.001703 0.503133 0.173028
H31   H     H_    0.307706 0.998931 0.506672 0.196288
H32   H     H_    0.047545 0.030887 0.973533 0.271766
H33   H     H_    0.925118 0.117117 0.855722 0.263509
H34   H     H_    0.901778 0.181536 0.021643 0.254099
N1    N     N_2   0.950320 0.457950 0.465730 -0.064798
N2    N     N_2   0.049680 0.542050 0.534270 -0.052300
O1    O     O_R   0.389250 0.738570 0.508410 -0.607688
O2    O     O_R   0.610750 0.261430 0.491590 -0.626345
O3    O     O_R   0.678390 0.711620 0.486450 -0.649701
O4    O     O_R   0.321610 0.288380 0.513550 -0.635327
O5    O     O_R   0.355460 0.513510 0.697030 -0.624049
O6    O     O_R   0.644540 0.486490 0.302970 -0.622572
O7    O     O_R   0.644600 0.486560 0.675070 -0.652388
O8    O     O_R   0.355400 0.513440 0.324930 -0.654846
Zn1   Zn    Zn3+2 0.306940 0.517990 0.514670 0.916234
Zn2   Zn    Zn3+2 0.693060 0.482010 0.485330 0.906392

loop_
_geom_bond_atom_site_label_1
_geom_bond_atom_site_label_2
_ccdc_geom_bond_type
C2    C22   S    
O7    Zn2   S    
C1    O3    A    
C21   C26   S    
O2    Zn2   S    
C13   H7    S    
O8    Zn1   S    
C17   H27   S    
C25   H12   S    
C2    C25   S    
O3    Zn2   S    
C20   O5    A    
C2    C4    S    
O4    Zn1   S    
C19   H24   S    
C24   H1    S    
C21   O8    A    
O6    Zn2   S    
C9    H34   S    
C16   H15   S    
C11   H9    S    
C17   C18   S    
C18   H26   S    
C13   H8    S    
C14   H20   S    
C7    H4    S    
C23   H29   S    
C11   C13   S    
C6    H31   S    
C5    C6    D    
C16   H14   S    
C22   H23   S    
C4    C24   S    
C8    H3    S    
C1    O1    A    
N1    Zn2   S    
C1    C5    S    
C11   H10   S    
O1    Zn1   S    
N2    Zn1   S    
C9    H32   S    
C14   H19   S    
C3    C7    S    
C10   H11   S    
C21   O6    A    
C6    C12   S    
N1    N2    D    
C12   O2    A    
C22   C24   S    
C20   O7    A    
C23   C26   S    
O5    Zn1   S    
C7    C8    S    
C10   C11   S    
C15   H17   S    
C15   C16   S    
C17   N2    S    
C16   H16   S    
C3    C25   S    
C23   C25   S    
C7    H5    S    
C8    H2    S    
C18   C19   S    
C19   H21   S    
C18   H25   S    
C2    C20   S    
C15   H18   S    
C14   C15   S    
C8    C9    S    
C3    C22   S    
C13   H6    S    
C4    C23   S    
C19   H22   S    
C14   N1    S    
C12   O4    A    
C5    H30   S    
C3    C26   S    
C17   H28   S    
C4    C10   S    
C24   C26   S    
C10   H13   S    
C9    H33   S    
