data_mof_unit_46750.cif
_audit_creation_date              2012-12-10T17:02:19-0500
_audit_creation_method            fapswitch 2.2
_symmetry_space_group_name_H-M    P1
_symmetry_Int_Tables_number       1
_space_group_crystal_system       triclinic
_cell_length_a                    10.672019
_cell_length_b                    10.71734
_cell_length_c                    10.03854
_cell_angle_alpha                 88.68601
_cell_angle_beta                  90.498038
_cell_angle_gamma                 91.262577
_cell_volume                      1147.54549366

loop_
_atom_site_label
_atom_site_type_symbol
_atom_type_description
_atom_site_fract_x
_atom_site_fract_y
_atom_site_fract_z
_atom_type_partial_charge
C1    C     C_R   0.490231 0.262401 0.501700 0.870771
C2    C     C_2   0.454768 0.131912 0.507341 0.021679
C3    C     C_2   0.574738 0.570487 0.923975 -0.103395
C4    C     C_R   0.260699 0.500204 0.499095 0.880652
C5    C     C_2   0.570129 0.575079 0.073802 -0.097644
C6    C     C_R   0.502343 0.737341 0.498330 0.985379
C7    C     C_R   0.739190 0.502119 0.500580 0.898208
C8    C     C_R   0.124181 0.272985 0.552684 -0.177152
C9    C     C_R   0.056825 0.163693 0.584833 -0.107664
C10   C     C_R   0.926768 0.164903 0.590054 -0.105136
C11   C     C_R   0.864048 0.275479 0.563130 -0.167322
C12   C     C_R   0.062292 0.386457 0.527403 0.094597
C13   C     C_R   0.931507 0.387659 0.531679 0.095505
C14   C     C_2   0.139636 0.726668 0.427360 0.930233
C15   C     C_3   0.403971 0.078887 0.638920 -0.873922
C16   C     C_2   0.870560 0.729152 0.438127 0.949619
C17   C     C_R   0.127998 0.498489 0.495707 -0.178969
C18   C     C_R   0.067419 0.610346 0.462932 -0.097440
C19   C     C_R   0.937399 0.611659 0.467861 -0.101655
C20   C     C_R   0.871561 0.500763 0.502308 -0.181393
C21   C     C_2   0.454993 0.932689 0.394402 -0.158252
C22   C     C_2   0.510296 0.869374 0.493352 -0.323426
C23   C     C_2   0.459656 0.067312 0.394277 -0.173079
H1    H     H_    0.643119 0.630788 0.873582 0.180145
H2    H     H_    0.560852 0.914778 0.573496 0.170756
H3    H     H_    0.479469 0.113104 0.298868 0.165910
H4    H     H_    0.176206 0.907575 0.465120 0.335024
H5    H     H_    0.341701 0.146318 0.685886 0.236392
H6    H     H_    0.346523 0.992407 0.626158 0.262236
H7    H     H_    0.482423 0.061536 0.709791 0.244714
H8    H     H_    0.771636 0.869718 0.509634 0.326564
H9    H     H_    0.432469 0.448519 0.898426 0.167974
H10   H     H_    0.630051 0.643735 0.122227 0.178631
H11   H     H_    0.449019 0.432268 0.103400 0.165762
H12   H     H_    0.224610 0.267989 0.545986 0.128792
H13   H     H_    0.105617 0.077925 0.605343 0.171527
H14   H     H_    0.874299 0.079923 0.614297 0.156273
H15   H     H_    0.762815 0.271910 0.566912 0.136471
H16   H     H_    0.411761 0.886217 0.310074 0.213360
N1    N     N_2   0.501340 0.501330 0.852150 -0.192828
N2    N     N_2   0.501380 0.501360 0.147810 -0.185937
O1    O     O_R   0.499980 0.319060 0.613040 -0.614441
O2    O     O_R   0.123666 0.834402 0.500576 -0.808699
O3    O     O_2   0.878076 0.778789 0.327495 -0.612966
O4    O     O_R   0.803318 0.784849 0.538599 -0.811729
O5    O     O_R   0.500020 0.319100 0.386900 -0.634780
O6    O     O_R   0.316750 0.499980 0.613090 -0.618418
O7    O     O_R   0.316790 0.500020 0.386950 -0.577731
O8    O     O_R   0.499980 0.680900 0.613100 -0.604118
O9    O     O_R   0.500020 0.680940 0.386960 -0.593351
O10   O     O_R   0.683210 0.499980 0.613050 -0.597786
O11   O     O_R   0.683250 0.500020 0.386910 -0.614000
O12   O     O_2   0.210624 0.728587 0.332422 -0.612816
Zn1   Zn    Zn3+2 0.499970 0.499970 0.650990 0.971358
Zn2   Zn    Zn3+2 0.500030 0.500030 0.349010 0.987519

loop_
_geom_bond_atom_site_label_1
_geom_bond_atom_site_label_2
_ccdc_geom_bond_type
C12   C17   A    
C16   O4    S    
C9    H13   S    
O5    Zn2   S    
C8    C9    A    
C11   H15   S    
C9    C10   A    
C16   O3    D    
C19   C20   A    
C21   H16   S    
O11   Zn2   S    
C8    C12   A    
O10   Zn1   S    
H9    N1    S    
C17   C18   A    
C15   H5    S    
O7    Zn2   S    
C7    O10   A    
C21   C22   D    
O1    Zn1   S    
C2    C15   S    
C11   C13   A    
C4    O6    A    
C3    H1    S    
H11   N2    S    
C10   H14   S    
C4    C17   S    
C1    C2    S    
C7    O11   A    
C15   H6    S    
N1    Zn1   S    
C21   C23   S    
C6    O8    A    
C16   C19   S    
C1    O5    A    
C10   C11   A    
H8    O4    S    
O8    Zn1   S    
C6    C22   S    
H4    O2    S    
C1    O1    A    
C14   O12   D    
C18   C19   A    
C12   C13   A    
C15   H7    S    
C7    C20   S    
C4    O7    A    
C23   H3    S    
C2    C23   D    
C14   C18   S    
N2    Zn2   S    
C5    N2    D    
C13   C20   A    
O6    Zn1   S    
C3    N1    D    
C22   H2    S    
C6    O9    A    
O9    Zn2   S    
C14   O2    S    
C3    C5    S    
C8    H12   S    
C5    H10   S    
