data_mof_unit_60001.cif
_audit_creation_date              2012-12-10T19:12:26-0500
_audit_creation_method            fapswitch 2.2
_symmetry_space_group_name_H-M    P1
_symmetry_Int_Tables_number       1
_space_group_crystal_system       triclinic
_cell_length_a                    44.432516
_cell_length_b                    38.883554
_cell_length_c                    21.634129
_cell_angle_alpha                 89.999612
_cell_angle_beta                  61.078926
_cell_angle_gamma                 90.009832
_cell_volume                      32715.7288721

loop_
_atom_site_label
_atom_site_type_symbol
_atom_type_description
_atom_site_fract_x
_atom_site_fract_y
_atom_site_fract_z
_atom_type_partial_charge
C1    C     C_R   0.067267 0.499996 0.432176 0.990392
C2    C     C_R   0.932733 0.499984 0.567790 0.989208
C3    C     C_R   0.567267 0.999991 0.432209 0.989081
C4    C     C_R   0.432733 0.999984 0.567790 0.989076
C5    C     C_R   0.984133 0.476306 0.733334 -0.230078
C6    C     C_R   0.015886 0.476326 0.266651 -0.229410
C7    C     C_R   0.484112 0.976321 0.733352 -0.230161
C8    C     C_R   0.515883 0.976324 0.266654 -0.230138
C9    C     C_R   0.982255 0.476723 0.798620 0.376631
C10   C     C_R   0.017761 0.476744 0.201367 0.376779
C11   C     C_R   0.482235 0.976740 0.798637 0.376622
C12   C     C_R   0.517759 0.976743 0.201369 0.376619
C13   C     C_R   0.000016 0.502200 0.813797 -0.116967
C14   C     C_R   0.999984 0.502203 0.186206 -0.117375
C15   C     C_R   0.500018 0.002203 0.813793 -0.117249
C16   C     C_R   0.499983 0.002203 0.186206 -0.117270
C17   C     C_R   0.378246 0.478126 0.081080 -0.188740
C18   C     C_R   0.621966 0.478136 0.917539 -0.189141
C19   C     C_R   0.878020 0.978130 0.082513 -0.189312
C20   C     C_R   0.121966 0.978132 0.917534 -0.189283
C21   C     C_R   0.342560 0.477570 0.115261 -0.139005
C22   C     C_R   0.657655 0.477309 0.882093 -0.139061
C23   C     C_R   0.842331 0.977320 0.117951 -0.139117
C24   C     C_R   0.157654 0.977305 0.882088 -0.139198
C25   C     C_R   0.323929 0.500145 0.171295 0.023533
C26   C     C_R   0.676280 0.499817 0.825559 0.034272
C27   C     C_R   0.823722 0.999858 0.174424 0.034287
C28   C     C_R   0.176280 0.999816 0.825558 0.034314
C29   C     C_R   0.341061 0.523101 0.193488 -0.181457
C30   C     C_R   0.658652 0.523169 0.805056 -0.185417
C31   C     C_R   0.841366 0.023222 0.194874 -0.185424
C32   C     C_R   0.158652 0.023171 0.805061 -0.185498
C33   C     C_R   0.376833 0.523343 0.160330 0.384766
C34   C     C_R   0.622881 0.523676 0.839571 0.386646
C35   C     C_R   0.877138 0.023714 0.160365 0.386575
C36   C     C_R   0.122881 0.023678 0.839576 0.386574
C37   C     C_R   0.395533 0.500663 0.103749 -0.133515
C38   C     C_R   0.604444 0.500892 0.895994 -0.133110
C39   C     C_R   0.895558 0.000901 0.104004 -0.133010
C40   C     C_R   0.104444 0.000891 0.895994 -0.133016
C41   C     C_R   0.268577 0.530159 0.210969 -0.161052
C42   C     C_R   0.732266 0.503534 0.714526 -0.163278
C43   C     C_R   0.767736 0.003622 0.285441 -0.163296
C44   C     C_R   0.232266 0.003536 0.714527 -0.163383
C45   C     C_R   0.002143 0.500012 0.617946 0.943268
C46   C     C_R   0.997859 0.500011 0.382053 0.943610
C47   C     C_R   0.502142 0.000012 0.617946 0.943106
C48   C     C_R   0.497858 0.000011 0.382054 0.943094
C49   C     C_R   0.232860 0.530041 0.245480 -0.154087
C50   C     C_R   0.767975 0.503687 0.679254 -0.147988
C51   C     C_R   0.732027 0.003778 0.320709 -0.147994
C52   C     C_R   0.267975 0.003690 0.679255 -0.148073
C53   C     C_R   0.214698 0.499740 0.277116 0.174531
C54   C     C_R   0.785830 0.498802 0.716957 0.166073
C55   C     C_R   0.714171 0.998867 0.283014 0.166108
C56   C     C_R   0.285830 0.998802 0.716957 0.166151
C57   C     C_R   0.232860 0.469399 0.272344 -0.153851
C58   C     C_R   0.767885 0.493801 0.790101 -0.151482
C59   C     C_R   0.732115 0.993840 0.209879 -0.151499
C60   C     C_R   0.267885 0.993797 0.790100 -0.151577
C61   C     C_R   0.268592 0.469422 0.236738 -0.156943
C62   C     C_R   0.732150 0.494234 0.825650 -0.162097
C63   C     C_R   0.767851 0.994269 0.174334 -0.162127
C64   C     C_R   0.232149 0.994230 0.825649 -0.162213
C65   C     C_R   0.286485 0.499872 0.206623 0.110872
C66   C     C_R   0.714054 0.499103 0.788109 0.121681
C67   C     C_R   0.785948 0.999159 0.211868 0.121681
C68   C     C_R   0.214053 0.999102 0.788108 0.121744
C69   C     C_R   0.158289 0.471718 0.312130 -0.233208
C70   C     C_R   0.841566 0.471133 0.684793 -0.228360
C71   C     C_R   0.658433 0.971175 0.315196 -0.228372
C72   C     C_R   0.341566 0.971133 0.684793 -0.228442
C73   C     C_R   0.122579 0.471564 0.350278 0.587407
C74   C     C_R   0.877301 0.471238 0.648103 0.586791
C75   C     C_R   0.622698 0.971265 0.351895 0.586837
C76   C     C_R   0.377301 0.971238 0.648102 0.586782
C77   C     C_R   0.104900 0.500003 0.392435 -0.342805
C78   C     C_R   0.895093 0.499917 0.606787 -0.343869
C79   C     C_R   0.604907 0.999939 0.393205 -0.343876
C80   C     C_R   0.395093 0.999917 0.606788 -0.343838
C81   C     C_R   0.123587 0.528569 0.395391 0.637677
C82   C     C_R   0.876474 0.528493 0.603435 0.638794
C83   C     C_R   0.623527 0.028525 0.396541 0.638810
C84   C     C_R   0.376474 0.028493 0.603436 0.638791
C85   C     C_R   0.159288 0.528280 0.358130 -0.258150
C86   C     C_R   0.840758 0.527890 0.639191 -0.256285
C87   C     C_R   0.659243 0.027937 0.360776 -0.256286
C88   C     C_R   0.340758 0.027890 0.639192 -0.256345
C89   C     C_R   0.049425 0.546117 0.640731 0.584168
C90   C     C_R   0.950543 0.546060 0.359308 0.583128
C91   C     C_R   0.549465 0.046073 0.640682 0.583134
C92   C     C_R   0.450544 0.046063 0.359307 0.583160
C93   C     C_R   0.176916 0.499936 0.316134 -0.080654
C94   C     C_R   0.823281 0.499271 0.679832 -0.094410
C95   C     C_R   0.676719 0.999324 0.320141 -0.094401
C96   C     C_R   0.323281 0.999271 0.679832 -0.094391
C97   C     C_R   0.999997 0.432731 0.000004 1.007446
C98   C     C_R   0.499997 0.932730 0.000004 1.007646
C99   C     C_R   0.999915 0.500585 0.880022 0.888349
C100  C     C_R   0.000085 0.500588 0.119978 0.888211
C101  C     C_R   0.499916 0.000588 0.880021 0.888531
C102  C     C_R   0.500084 0.000589 0.119978 0.888508
C103  C     C_R   0.000003 0.567266 0.999998 0.892413
C104  C     C_R   0.500003 0.067266 0.999997 0.892634
C105  C     C_R   0.500001 0.432795 0.999999 1.020084
C106  C     C_R   0.000000 0.932795 0.000000 1.020345
C107  C     C_R   0.432898 0.500389 0.066964 0.923127
C108  C     C_R   0.567092 0.500449 0.933025 0.924037
C109  C     C_R   0.932908 0.000448 0.066974 0.924022
C110  C     C_R   0.067092 0.000449 0.933025 0.924020
C111  C     C_R   0.500001 0.567151 0.999998 0.904077
C112  C     C_R   0.999999 0.067151 0.000000 0.905218
C113  C     C_R   0.499280 0.622831 0.056831 -0.170984
C114  C     C_R   0.500725 0.622828 0.943154 -0.170470
C115  C     C_R   0.999249 0.122830 0.056863 -0.170023
C116  C     C_R   0.000731 0.122829 0.943150 -0.170096
C117  C     C_R   0.499280 0.658555 0.056784 -0.052747
C118  C     C_R   0.500719 0.658552 0.943200 -0.053303
C119  C     C_R   0.999245 0.158554 0.056821 -0.052757
C120  C     C_R   0.000721 0.158552 0.943201 -0.052763
C121  C     C_R   0.499997 0.676489 0.999992 0.270748
C122  C     C_R   0.999980 0.176489 0.000013 0.270759
C123  C     C_R   0.065824 0.572136 0.657646 -0.287348
C124  C     C_R   0.934124 0.572061 0.342417 -0.289204
C125  C     C_R   0.565889 0.072076 0.657568 -0.289096
C126  C     C_R   0.434126 0.072064 0.342413 -0.289161
C127  C     C_R   0.500003 0.604731 0.999994 -0.046901
C128  C     C_R   0.999994 0.104731 0.000004 -0.046497
C129  C     C_R   0.526275 0.732021 0.943423 0.515006
C130  C     C_R   0.473702 0.732005 0.056566 0.514310
C131  C     C_R   0.026271 0.232019 0.943454 0.514814
C132  C     C_R   0.973683 0.232007 0.056571 0.514868
C133  C     C_R   0.026275 0.267766 0.943464 0.531451
C134  C     C_R   0.973678 0.267755 0.056565 0.531434
C135  C     C_R   0.526276 0.767768 0.943434 0.531323
C136  C     C_R   0.473694 0.767753 0.056561 0.531457
C137  C     C_R   0.999977 0.285747 0.000016 -0.341985
C138  C     C_R   0.499984 0.785747 0.000000 -0.341955
C139  C     C_R   0.499991 0.714027 0.999993 -0.423588
C140  C     C_R   0.999977 0.214027 0.000012 -0.423669
C141  C     C_R   0.028653 0.341205 0.993558 -0.138731
C142  C     C_R   0.971310 0.341203 0.006484 -0.138848
C143  C     C_R   0.528660 0.841206 0.993533 -0.138782
C144  C     C_R   0.471311 0.841201 0.006493 -0.139020
C145  C     C_R   0.028780 0.376933 0.993474 0.594549
C146  C     C_R   0.971194 0.376930 0.006561 0.594428
C147  C     C_R   0.528785 0.876933 0.993454 0.594354
C148  C     C_R   0.471192 0.876929 0.006575 0.594318
C149  C     C_R   0.999990 0.395115 0.000014 -0.364750
C150  C     C_R   0.499991 0.895115 0.000013 -0.364604
C151  C     C_R   0.999980 0.323288 0.000021 0.072058
C152  C     C_R   0.499984 0.823288 0.000010 0.072234
C153  C     C_R   0.525420 0.377398 0.008096 0.298504
C154  C     C_R   0.474611 0.377373 0.991883 0.298399
C155  C     C_R   0.025410 0.877394 0.008103 0.298504
C156  C     C_R   0.974603 0.877378 0.991882 0.298479
C157  C     C_R   0.058596 0.576911 0.727118 0.645735
C158  C     C_R   0.941351 0.576849 0.272947 0.645328
C159  C     C_R   0.558666 0.076860 0.727035 0.645416
C160  C     C_R   0.441354 0.076851 0.272944 0.645335
C161  C     C_R   0.525398 0.341452 0.008083 0.344249
C162  C     C_R   0.474652 0.341427 0.991885 0.344123
C163  C     C_R   0.025384 0.841449 0.008089 0.344258
C164  C     C_R   0.974641 0.841432 0.991881 0.344241
C165  C     C_R   0.500029 0.323609 0.999981 -0.270565
C166  C     C_R   0.000015 0.823609 0.999982 -0.270619
C167  C     C_R   0.500011 0.395336 0.999992 -0.354597
C168  C     C_R   0.000004 0.895337 0.999996 -0.354754
C169  C     C_R   0.487388 0.268337 0.063870 -0.076561
C170  C     C_R   0.512688 0.268341 0.936096 -0.076037
C171  C     C_R   0.987365 0.768338 0.063870 -0.076261
C172  C     C_R   0.012676 0.768341 0.936094 -0.076235
C173  C     C_R   0.987364 0.732605 0.063915 -0.159355
C174  C     C_R   0.012681 0.732608 0.936053 -0.159268
C175  C     C_R   0.487385 0.232604 0.063915 -0.159361
C176  C     C_R   0.512691 0.232608 0.936055 -0.159338
C177  C     C_R   0.000023 0.714551 0.999985 0.162986
C178  C     C_R   0.500036 0.214550 0.999987 0.162954
C179  C     C_R   0.500037 0.286143 0.999982 0.230015
C180  C     C_R   0.000018 0.786144 0.999982 0.230001
C181  C     C_R   0.029091 0.658877 0.950935 -0.218732
C182  C     C_R   0.970943 0.658873 0.049046 -0.218765
C183  C     C_R   0.529096 0.158875 0.950929 -0.218702
C184  C     C_R   0.470952 0.158874 0.049053 -0.218858
C185  C     C_R   0.029206 0.623145 0.950801 0.613696
C186  C     C_R   0.970818 0.623141 0.049188 0.613541
C187  C     C_R   0.529208 0.123143 0.950792 0.613503
C188  C     C_R   0.470823 0.123142 0.049192 0.613486
C189  C     C_R   0.000010 0.604929 0.999995 -0.360153
C190  C     C_R   0.500011 0.104928 0.999993 -0.360005
C191  C     C_R   0.036295 0.554512 0.779492 -0.239142
C192  C     C_R   0.963671 0.554478 0.220552 -0.239104
C193  C     C_R   0.536342 0.054484 0.779434 -0.239190
C194  C     C_R   0.463673 0.054480 0.220550 -0.239142
C195  C     C_R   0.000019 0.676900 0.999989 -0.096551
C196  C     C_R   0.500028 0.176899 0.999991 -0.096417
C197  C     C_R   0.020260 0.527181 0.763134 -0.119309
C198  C     C_R   0.979724 0.527162 0.236887 -0.119335
C199  C     C_R   0.520283 0.027166 0.763106 -0.119432
C200  C     C_R   0.479724 0.027163 0.236886 -0.119425
C201  C     C_R   0.024674 0.524616 0.694298 -0.051263
C202  C     C_R   0.975311 0.524590 0.305722 -0.050850
C203  C     C_R   0.524694 0.024596 0.694272 -0.050753
C204  C     C_R   0.475311 0.024591 0.305721 -0.050757
C205  C     C_R   0.004634 0.500077 0.681772 -0.129885
C206  C     C_R   0.995369 0.500074 0.318228 -0.130441
C207  C     C_R   0.504632 0.000075 0.681771 -0.130006
C208  C     C_R   0.495367 0.000074 0.318229 -0.130027
H1    H     H_    0.969188 0.457383 0.722969 0.210997
H2    H     H_    0.030843 0.457419 0.277004 0.211543
H3    H     H_    0.469151 0.957411 0.723002 0.211017
H4    H     H_    0.530838 0.957416 0.277008 0.211039
H5    H     H_    0.282284 0.553746 0.187138 0.160400
H6    H     H_    0.718932 0.506632 0.684187 0.155863
H7    H     H_    0.781070 0.006738 0.315776 0.155839
H8    H     H_    0.218932 0.006637 0.684188 0.155790
H9    H     H_    0.219485 0.553592 0.247164 0.153765
H10   H     H_    0.781718 0.507244 0.622509 0.160228
H11   H     H_    0.718285 0.007354 0.377448 0.160209
H12   H     H_    0.281718 0.007249 0.622510 0.160169
H13   H     H_    0.219489 0.445850 0.297283 0.155226
H14   H     H_    0.781564 0.490266 0.819677 0.158906
H15   H     H_    0.718436 0.990285 0.180308 0.158895
H16   H     H_    0.281564 0.990260 0.819676 0.158840
H17   H     H_    0.282305 0.445936 0.233990 0.161026
H18   H     H_    0.718730 0.491335 0.882516 0.151243
H19   H     H_    0.781271 0.991346 0.117473 0.151222
H20   H     H_    0.218730 0.991329 0.882515 0.151157
H21   H     H_    0.171338 0.449880 0.278810 0.188734
H22   H     H_    0.828102 0.448938 0.716386 0.193942
H23   H     H_    0.671895 0.948984 0.283611 0.193938
H24   H     H_    0.328103 0.948938 0.716385 0.193898
H25   H     H_    0.173132 0.550121 0.362964 0.187615
H26   H     H_    0.826662 0.549884 0.635763 0.192935
H27   H     H_    0.673339 0.049940 0.364192 0.192936
H28   H     H_    0.326662 0.049884 0.635765 0.192911
H29   H     H_    0.498746 0.609448 0.101252 0.185632
H30   H     H_    0.501262 0.609443 0.898733 0.185570
H31   H     H_    0.998700 0.109446 0.101298 0.185535
H32   H     H_    0.001285 0.109444 0.898713 0.185524
H33   H     H_    0.498974 0.672236 0.100711 0.176238
H34   H     H_    0.501022 0.672231 0.899272 0.176067
H35   H     H_    0.998924 0.172234 0.100763 0.176103
H36   H     H_    0.001038 0.172231 0.899261 0.176088
H37   H     H_    0.050786 0.327455 0.989300 0.213713
H38   H     H_    0.949173 0.327450 0.010743 0.213628
H39   H     H_    0.550797 0.827456 0.989260 0.213617
H40   H     H_    0.449172 0.827448 0.010764 0.213459
H41   H     H_    0.477645 0.282146 0.113358 0.164989
H42   H     H_    0.522429 0.282152 0.886606 0.165160
H43   H     H_    0.977617 0.782147 0.113359 0.165061
H44   H     H_    0.022422 0.782153 0.886604 0.165062
H45   H     H_    0.977861 0.719071 0.113641 0.162702
H46   H     H_    0.022184 0.719077 0.886329 0.162740
H47   H     H_    0.477885 0.219070 0.113640 0.162709
H48   H     H_    0.522188 0.219076 0.886332 0.162761
H49   H     H_    0.051867 0.672498 0.913078 0.199651
H50   H     H_    0.948170 0.672489 0.086901 0.199582
H51   H     H_    0.551872 0.172494 0.913067 0.199578
H52   H     H_    0.448182 0.172493 0.086913 0.199453
H53   H     H_    0.084411 0.588563 0.616448 0.222603
H54   H     H_    0.915523 0.588465 0.383629 0.222223
H55   H     H_    0.584492 0.088485 0.616353 0.222238
H56   H     H_    0.415526 0.088469 0.383625 0.222201
H57   H     H_    0.031640 0.558935 0.832750 0.201644
H58   H     H_    0.968326 0.558912 0.167296 0.201758
H59   H     H_    0.531689 0.058915 0.832689 0.201765
H60   H     H_    0.468328 0.058913 0.167294 0.201759
H61   H     H_    0.392398 0.460715 0.037370 0.217159
H62   H     H_    0.607985 0.460524 0.960972 0.216519
H63   H     H_    0.891989 0.960495 0.039127 0.216427
H64   H     H_    0.107985 0.960518 0.960963 0.216476
H65   H     H_    0.329457 0.459899 0.097536 0.170446
H66   H     H_    0.670632 0.458758 0.898333 0.164783
H67   H     H_    0.829339 0.958758 0.101756 0.164755
H68   H     H_    0.170632 0.958752 0.898324 0.164713
H69   H     H_    0.326572 0.540649 0.236794 0.182785
H70   H     H_    0.672642 0.541401 0.762868 0.177308
H71   H     H_    0.827390 0.041475 0.237013 0.177310
H72   H     H_    0.172642 0.041404 0.762877 0.177268
O1    O     O_R   0.050910 0.528730 0.449110 -0.542192
O2    O     O_R   0.949090 0.528730 0.550890 -0.541261
O3    O     O_R   0.550910 0.028730 0.449110 -0.541270
O4    O     O_R   0.449090 0.028730 0.550890 -0.541262
O5    O     O_R   0.449090 0.499920 0.102610 -0.575869
O6    O     O_R   0.550910 0.499920 0.897390 -0.576988
O7    O     O_R   0.949090 0.999920 0.102610 -0.577104
O8    O     O_R   0.050910 0.999920 0.897390 -0.577081
O9    O     O_R   0.449080 0.499990 0.999170 -0.615316
O10   O     O_R   0.550920 0.499990 0.000830 -0.614638
O11   O     O_R   0.949080 0.999990 0.999170 -0.614705
O12   O     O_R   0.050920 0.999990 0.000830 -0.614741
O13   O     O_R   0.500010 0.550840 0.051820 -0.613494
O14   O     O_R   0.499990 0.550840 0.948180 -0.613339
O15   O     O_R   0.000010 0.050840 0.051820 -0.613371
O16   O     O_R   0.999990 0.050840 0.948180 -0.613386
O17   O     O_R   0.050900 0.471250 0.449120 -0.574396
O18   O     O_R   0.949100 0.471250 0.550880 -0.574099
O19   O     O_R   0.550900 0.971250 0.449120 -0.574042
O20   O     O_R   0.449100 0.971250 0.550880 -0.574084
O21   O     O_R   0.000000 0.528730 0.591610 -0.585584
O22   O     O_R   0.000000 0.528730 0.408390 -0.585575
O23   O     O_R   0.500000 0.028730 0.591610 -0.585380
O24   O     O_R   0.500000 0.028730 0.408390 -0.585365
O25   O     O_R   0.999990 0.471250 0.591620 -0.626726
O26   O     O_R   0.000010 0.471250 0.408380 -0.626403
O27   O     O_R   0.499990 0.971250 0.591620 -0.626662
O28   O     O_R   0.500010 0.971250 0.408380 -0.626672
O29   O     O_R   0.971250 0.449070 0.028730 -0.553518
O30   O     O_R   0.028750 0.449070 0.971270 -0.553221
O31   O     O_R   0.471250 0.949070 0.028730 -0.553468
O32   O     O_R   0.528750 0.949070 0.971270 -0.553409
O33   O     O_R   0.971250 0.499980 0.937120 -0.578308
O34   O     O_R   0.028750 0.499980 0.062880 -0.577859
O35   O     O_R   0.471250 0.999980 0.937120 -0.578178
O36   O     O_R   0.528750 0.999980 0.062880 -0.578132
O37   O     O_R   0.028730 0.499990 0.879660 -0.623508
O38   O     O_R   0.971270 0.499990 0.120340 -0.624035
O39   O     O_R   0.528730 0.999990 0.879660 -0.623942
O40   O     O_R   0.471270 0.999990 0.120340 -0.623987
O41   O     O_R   0.971250 0.550900 0.028730 -0.573825
O42   O     O_R   0.028750 0.550900 0.971270 -0.573611
O43   O     O_R   0.471250 0.050900 0.028730 -0.573805
O44   O     O_R   0.528750 0.050900 0.971270 -0.573802
O45   O     O_R   0.499990 0.449010 0.051620 -0.587392
O46   O     O_R   0.500010 0.449010 0.948380 -0.587296
O47   O     O_R   0.999990 0.949010 0.051620 -0.587418
O48   O     O_R   0.000010 0.949010 0.948380 -0.587423
Zn1   Zn    Zn3+2 1.000000 0.538380 0.500000 1.149515
Zn2   Zn    Zn3+2 0.500000 0.038380 0.500000 1.150451
Zn3   Zn    Zn3+2 0.000000 0.461610 0.500000 1.118145
Zn4   Zn    Zn3+2 0.500000 0.961610 0.500000 1.118458
Zn5   Zn    Zn3+2 0.961610 0.499980 0.038370 1.135644
Zn6   Zn    Zn3+2 0.038390 0.499980 0.961630 1.137456
Zn7   Zn    Zn3+2 0.461610 0.999980 0.038370 1.135512
Zn8   Zn    Zn3+2 0.538390 0.999980 0.961630 1.135719
Zn9   Zn    Zn3+2 0.500000 0.499910 0.069070 1.089661
Zn10  Zn    Zn3+2 0.500000 0.499910 0.930930 1.088704
Zn11  Zn    Zn3+2 0.000000 0.999910 0.069070 1.088585
Zn12  Zn    Zn3+2 0.000000 0.999910 0.930930 1.088634
Cl1   Cl    Cl    0.397159 0.553535 0.188697 -0.553932
Cl2   Cl    Cl    0.602227 0.554401 0.813067 -0.555502
Cl3   Cl    Cl    0.897816 0.054455 0.186796 -0.555835
Cl4   Cl    Cl    0.102226 0.054406 0.813078 -0.555936
F1    F     F_    0.105423 0.443979 0.344279 -0.616450
F2    F     F_    0.894342 0.443587 0.654206 -0.615898
F3    F     F_    0.605656 0.943605 0.345807 -0.615837
F4    F     F_    0.394342 0.943587 0.654205 -0.615914
F5    F     F_    0.107534 0.556601 0.435070 -0.584068
F6    F     F_    0.892607 0.556832 0.565049 -0.583762
F7    F     F_    0.607395 0.056858 0.434923 -0.583714
F8    F     F_    0.392607 0.056832 0.565050 -0.583743
F9    F     F_    0.059872 0.540832 0.571431 -0.614489
F10   F     F_    0.940102 0.540761 0.428604 -0.616006
F11   F     F_    0.559902 0.040778 0.571388 -0.615985
F12   F     F_    0.440102 0.040764 0.428602 -0.615997
F13   F     F_    0.552166 0.714942 0.888858 -0.575640
F14   F     F_    0.447816 0.714911 0.111128 -0.576418
F15   F     F_    0.052167 0.214939 0.888904 -0.575789
F16   F     F_    0.947787 0.214915 0.111120 -0.575711
F17   F     F_    0.051593 0.284859 0.887877 -0.573568
F18   F     F_    0.948360 0.284836 0.112153 -0.573590
F19   F     F_    0.551586 0.784863 0.887837 -0.573585
F20   F     F_    0.448382 0.784832 0.112163 -0.573806
F21   F     F_    0.056739 0.393560 0.988513 -0.574504
F22   F     F_    0.943239 0.393556 0.011519 -0.574963
F23   F     F_    0.556747 0.893561 0.988480 -0.574975
F24   F     F_    0.443234 0.893553 0.011551 -0.575128
Cl5   Cl    Cl    0.558292 0.399748 0.015269 -0.523590
Cl6   Cl    Cl    0.441727 0.399690 0.984719 -0.524687
Cl7   Cl    Cl    0.058284 0.899738 0.015281 -0.523877
Cl8   Cl    Cl    0.941722 0.899703 0.984717 -0.523664
Cl9   Cl    Cl    0.557653 0.318709 0.016741 -0.475722
Cl10  Cl    Cl    0.442407 0.318653 0.983224 -0.476886
Cl11  Cl    Cl    0.057634 0.818700 0.016753 -0.476146
Cl12  Cl    Cl    0.942396 0.818663 0.983210 -0.475861
F25   F     F_    0.057708 0.606566 0.901876 -0.590947
F26   F     F_    0.942312 0.606557 0.098117 -0.591344
F27   F     F_    0.557706 0.106562 0.901859 -0.591367
F28   F     F_    0.442317 0.106560 0.098126 -0.591456
F29   F     F_    0.074075 0.602693 0.743486 -0.588365
F30   F     F_    0.925854 0.602616 0.256600 -0.588940
F31   F     F_    0.574169 0.102629 0.743376 -0.588900
F32   F     F_    0.425857 0.102619 0.256596 -0.589030
Cl13  Cl    Cl    0.958075 0.444109 0.859237 -0.490382
Cl14  Cl    Cl    0.041959 0.444151 0.140737 -0.488852
Cl15  Cl    Cl    0.458031 0.944143 0.859276 -0.490523
Cl16  Cl    Cl    0.541955 0.944149 0.140740 -0.490350

loop_
_geom_bond_atom_site_label_1
_geom_bond_atom_site_label_2
_ccdc_geom_bond_type
C10   Cl14  S    
C133  C137  A    
C147  F23   S    
C1    C77   S    
C142  C146  A    
C45   O25   A    
C3    C79   S    
C170  C176  A    
C171  C173  A    
C85   H25   S    
C132  F16   S    
C104  O43   A    
C55   C59   A    
C98   C150  S    
C20   C40   A    
C71   C95   A    
O12   Zn11  S    
C29   H69   S    
C29   C33   A    
O2    Zn1   S    
C87   H27   S    
C169  H41   S    
C9    C13   A    
C110  O12   A    
C131  C140  A    
C101  O35   A    
C11   C15   A    
C102  O36   A    
C12   C16   A    
C173  H45   S    
C142  H38   S    
C124  C158  A    
C70   C74   A    
C157  F29   S    
C177  C195  S    
O9    Zn10  S    
C141  C145  A    
O4    Zn2   S    
C111  O14   A    
C35   Cl3   S    
O42   Zn6   S    
C41   C49   A    
C25   C29   A    
C130  F14   S    
C27   C31   A    
C193  H59   S    
C28   C32   A    
C147  C150  A    
C194  H60   S    
C17   H61   S    
O35   Zn7   S    
C62   C66   A    
C63   H19   S    
C91   F11   S    
C193  C199  A    
C17   C21   A    
C153  C161  A    
C142  C151  A    
C19   C23   A    
C157  C191  A    
C2    C78   S    
C158  C192  A    
C162  C165  A    
C41   H5    S    
C78   C82   A    
C36   C40   A    
C48   C208  S    
C183  C196  A    
C184  H52   S    
C14   C100  S    
C174  C177  A    
C3    O19   A    
C55   C95   S    
C126  C160  A    
C154  C167  A    
C186  F26   S    
C84   F8    S    
C69   C93   A    
O19   Zn4   S    
C91   C125  A    
C70   C94   A    
C44   H8    S    
C112  O15   A    
C84   C88   A    
C154  Cl6   S    
C57   C61   A    
C89   C123  A    
C59   C63   A    
C60   C64   A    
C51   H11   S    
C134  F18   S    
C50   C54   A    
O26   Zn3   S    
C1    O1    A    
C49   C53   A    
C50   H10   S    
C185  F25   S    
C51   C55   A    
C18   C38   A    
O45   Zn9   S    
O34   Zn6   S    
C72   C96   A    
C129  F13   S    
C39   C109  S    
C181  H49   S    
C106  O48   A    
C73   C77   A    
C47   O27   A    
C4    O20   A    
C75   C79   A    
C161  C165  A    
C90   C202  A    
C145  F21   S    
O44   Zn8   S    
C115  H31   S    
O6    Zn10  S    
C171  H43   S    
O38   Zn5   S    
C46   O22   A    
O7    Zn11  S    
O5    Zn9   S    
C13   C197  A    
C76   F4    S    
C32   C36   A    
C28   C68   S    
C148  C150  A    
C4    C80   S    
C176  H48   S    
C156  C168  A    
C15   C199  A    
C92   F12   S    
O21   Zn1   S    
C99   O37   A    
C129  C135  A    
C108  O10   A    
C194  C200  A    
C11   Cl15  S    
C198  C202  A    
C141  H37   S    
C45   O21   A    
O3    Zn2   S    
C16   C200  A    
C200  C204  A    
C114  H30   S    
C44   C52   A    
C82   C86   A    
C176  C178  A    
C73   F1    S    
C97   O30   A    
O28   Zn4   S    
C191  H57   S    
O13   Zn9   S    
C23   H67   S    
C181  C195  A    
C172  C174  A    
C7    C11   A    
C182  H50   S    
C30   H70   S    
O41   Zn5   S    
C30   C34   A    
C26   C66   S    
O24   Zn2   S    
C108  O6    A    
C7    C207  A    
C10   C14   A    
C192  H58   S    
C124  H54   S    
C123  C157  A    
C155  C163  A    
C148  F24   S    
C178  C196  S    
C115  C128  A    
C116  C120  A    
C155  Cl7   S    
C13   C99   S    
C5    C9    A    
C69   H21   S    
C129  C139  A    
O37   Zn6   S    
C8    C12   A    
C158  F30   S    
C15   C101  S    
O48   Zn12  S    
C42   C50   A    
C113  C117  A    
C132  C134  A    
C26   C30   A    
C192  C198  A    
C74   C78   A    
C165  C179  S    
O40   Zn7   S    
C166  C180  S    
C116  C128  A    
C18   H62   S    
C24   H68   S    
C159  C193  A    
C21   C25   A    
C71   H23   S    
C72   H24   S    
C18   C22   A    
C154  C162  A    
C76   C80   A    
O23   Zn2   S    
C21   H65   S    
C7    H3    S    
C185  C189  A    
C5    H1    S    
C115  C119  A    
C170  C179  A    
C121  C139  S    
C104  O44   A    
C122  C140  S    
C144  C152  A    
C98   O32   A    
C105  O46   A    
C4    O4    A    
C61   C65   A    
C91   C203  A    
C6    C206  A    
C27   C67   S    
C22   H66   S    
C43   C67   A    
C98   O31   A    
C201  C205  A    
C182  C195  A    
C8    H4    S    
C169  C179  A    
C81   C85   A    
C118  H34   S    
C89   F9    S    
C58   C62   A    
C83   C87   A    
C88   C96   A    
C111  O13   A    
C103  O42   A    
C81   F5    S    
C89   C201  A    
C80   C84   A    
C83   F7    S    
C160  F32   S    
C134  C137  A    
C2    O2    A    
C131  C133  A    
O18   Zn3   S    
C86   H26   S    
C1    O17   A    
C107  O5    A    
C37   C107  S    
C164  Cl12  S    
C170  H42   S    
C46   C206  S    
C182  C186  A    
C187  C190  A    
C88   H28   S    
C174  H46   S    
O25   Zn3   S    
C69   C73   A    
C103  C189  S    
O10   Zn9   S    
C46   O26   A    
C163  Cl11  S    
C92   C204  A    
C72   C76   A    
C172  C180  A    
C153  C167  A    
C199  C203  A    
C130  C139  A    
C175  C178  A    
O47   Zn11  S    
O39   Zn8   S    
C47   O23   A    
C112  O16   A    
C24   C28   A    
C99   O33   A    
C163  C166  A    
O43   Zn7   S    
C188  F28   S    
C53   C57   A    
C138  C152  S    
C62   H18   S    
C90   F10   S    
C33   C37   A    
C56   C60   A    
C35   C39   A    
C82   F6    S    
C183  C187  A    
C146  C149  A    
C100  O34   A    
C77   C81   A    
C155  C168  A    
C125  H55   S    
C169  C175  A    
C126  H56   S    
C36   Cl4   S    
C59   H15   S    
C6    H2    S    
C143  C152  A    
C183  H51   S    
C187  F27   S    
C31   C35   A    
C64   C68   A    
C109  O11   A    
C56   C96   S    
C33   Cl1   S    
C45   C205  S    
C90   C124  A    
C92   C126  A    
C6    C10   A    
C19   H63   S    
O11   Zn12  S    
C125  C159  A    
C175  H47   S    
C153  Cl5   S    
C132  C140  A    
O32   Zn8   S    
C75   F3    S    
C186  C189  A    
C184  C196  A    
C79   C83   A    
C114  C127  A    
C43   C51   A    
C143  H39   S    
C57   H13   S    
C38   C108  S    
O46   Zn10  S    
C112  C128  S    
C22   C26   A    
C49   H9    S    
O22   Zn1   S    
C145  C149  A    
C146  F22   S    
C101  O39   A    
C135  C138  A    
C102  O40   A    
C97   O29   A    
O16   Zn12  S    
O29   Zn5   S    
C144  C148  A    
C43   H7    S    
C58   H14   S    
C143  C147  A    
C14   C198  A    
C188  C190  A    
C8    C208  A    
C120  H36   S    
O20   Zn4   S    
C117  C121  A    
C86   C94   A    
C20   C24   A    
C106  O47   A    
C197  C201  A    
C23   C27   A    
C12   Cl16  S    
C20   H64   S    
C32   H72   S    
C40   C110  S    
C74   F2    S    
C113  H29   S    
C133  F17   S    
O14   Zn10  S    
C184  C188  A    
C34   Cl2   S    
C85   C93   A    
C2    O18   A    
C60   H16   S    
C120  C122  A    
C135  F19   S    
O8    Zn12  S    
C63   C67   A    
C52   H12   S    
C53   C93   S    
O33   Zn5   S    
C48   O28   A    
C25   C65   S    
O27   Zn4   S    
C136  C138  A    
C181  C185  A    
C41   C65   A    
C156  Cl8   S    
C203  C207  A    
C172  H44   S    
C61   H17   S    
C105  C167  S    
C87   C95   A    
C118  C121  A    
C106  C168  S    
C70   H22   S    
C162  Cl10  S    
C42   H6    S    
O17   Zn3   S    
O31   Zn7   S    
C173  C177  A    
C104  C190  S    
C105  O45   A    
C17   C37   A    
C161  Cl9   S    
C114  C118  A    
C19   C39   A    
C204  C208  A    
C136  F20   S    
C16   C102  S    
C9    Cl13  S    
C144  H40   S    
C111  C127  S    
C171  C180  A    
C44   C68   A    
C64   H20   S    
C31   H71   S    
C141  C151  A    
C160  C194  A    
C54   C58   A    
C119  C122  A    
C100  O38   A    
O36   Zn8   S    
C97   C149  S    
C103  O41   A    
C34   C38   A    
C130  C136  A    
C191  C197  A    
C48   O24   A    
C113  C127  A    
C159  F31   S    
C116  H32   S    
C47   C207  S    
C164  C166  A    
O15   Zn11  S    
C71   C75   A    
C123  H53   S    
C3    O3    A    
O1    Zn1   S    
C54   C94   S    
C5    C205  A    
C109  O7    A    
C107  O9    A    
C110  O8    A    
C156  C164  A    
C202  C206  A    
C131  F15   S    
C42   C66   A    
C137  C151  S    
C119  H35   S    
C52   C56   A    
O30   Zn6   S    
C117  H33   S    
