data_mof_unit_40777.cif
_audit_creation_date              2012-12-11T17:01:22-0500
_audit_creation_method            fapswitch 2.2
_symmetry_space_group_name_H-M    P1
_symmetry_Int_Tables_number       1
_space_group_crystal_system       triclinic
_cell_length_a                    15.00173
_cell_length_b                    14.880839
_cell_length_c                    14.848393
_cell_angle_alpha                 109.305304
_cell_angle_beta                  109.156496
_cell_angle_gamma                 109.976184
_cell_volume                      2550.8031441

loop_
_atom_site_label
_atom_site_type_symbol
_atom_type_description
_atom_site_fract_x
_atom_site_fract_y
_atom_site_fract_z
_atom_type_partial_charge
C1    C     C_R   0.012560 0.807337 0.105449 0.009843
C2    C     C_R   0.223436 0.752054 0.315583 -0.137934
C3    C     C_R   0.905135 0.409501 0.210417 -0.148396
C4    C     C_R   0.792595 0.195940 0.700658 -0.154886
C5    C     C_R   0.301294 0.592773 0.998816 -0.158704
C6    C     C_R   0.935486 0.501951 0.303728 0.093692
C7    C     C_R   0.309738 0.502767 0.948959 0.001630
C8    C     C_R   0.325941 0.777865 0.325281 0.079280
C9    C     C_R   0.048661 0.224550 0.052427 0.070016
C10   C     C_3   0.472604 0.409063 0.827889 -0.429444
C11   C     C_3   0.374857 0.422833 0.827361 -0.471773
C12   C     C_R   0.698262 0.132247 0.696864 0.078995
C13   C     C_3   0.569073 0.487338 0.034390 -0.401641
C14   C     C_3   0.582199 0.613083 0.949721 -0.428709
C15   C     C_3   0.577532 0.502993 0.937741 0.361164
C16   C     C_R   0.019604 0.591352 0.778589 -0.170451
C17   C     C_3   0.407913 0.505546 0.946550 0.331117
C18   C     C_3   0.458023 0.465903 0.024562 -0.118887
C19   C     C_3   0.496459 0.624020 0.980093 -0.099853
C20   C     C_R   0.622604 0.968345 0.518710 0.162949
C21   C     C_R   0.620331 0.015977 0.615773 0.031384
C22   C     C_R   0.531009 0.954737 0.623850 -0.206927
C23   C     C_R   0.946575 0.500214 0.674538 0.086585
C24   C     C_R   0.435922 0.863609 0.528583 -0.205078
C25   C     C_R   0.430616 0.834803 0.425902 0.031201
C26   C     C_R   0.528868 0.879187 0.424750 0.166365
C27   C     C_3   0.556586 0.922246 0.353612 -0.532358
C28   C     C_R   0.686774 0.408718 0.928307 -0.137980
C29   C     C_3   0.659084 0.019108 0.456350 -0.524992
C30   C     C_R   0.952893 0.605980 0.482953 0.159778
C31   C     C_R   0.900290 0.506761 0.385002 0.022696
C32   C     C_R   0.824642 0.411118 0.374824 -0.274396
C33   C     C_R   0.824568 0.410362 0.469430 0.025191
C34   C     C_R   0.676860 0.501603 0.943480 0.016953
C35   C     C_R   0.903043 0.505772 0.573707 0.006935
C36   C     C_R   0.954921 0.605589 0.576115 0.134567
C37   C     C_3   0.070538 0.700502 0.648003 -0.507379
C38   C     C_3   0.067491 0.700921 0.545812 -0.521199
C39   C     C_R   0.044071 0.028365 0.153424 0.171072
C40   C     C_R   0.935218 0.407773 0.684671 -0.116039
C41   C     C_R   0.105414 0.990077 0.115840 0.036156
C42   C     C_R   0.179674 0.059148 0.096817 -0.203680
C43   C     C_R   0.172149 0.148160 0.089875 -0.217066
C44   C     C_R   0.090812 0.168165 0.102315 0.043333
C45   C     C_R   0.995962 0.592325 0.299780 -0.164450
C46   C     C_R   0.037109 0.116113 0.147014 0.151918
C47   C     C_3   0.918727 0.064288 0.115381 -0.547991
C48   C     C_3   0.926022 0.968382 0.122334 -0.481377
C49   C     C_R   0.779703 0.592754 0.020930 -0.147980
C50   C     C_R   0.699233 0.195582 0.789886 -0.137553
C51   C     C_R   0.100988 0.808561 0.012055 0.020254
C52   C     C_R   0.074173 0.873676 0.077336 0.018451
C53   C     C_R   0.215130 0.409536 0.914330 -0.159338
C54   C     C_R   0.313281 0.747156 0.221361 -0.155005
C55   C     C_R   0.975233 0.254308 0.068514 -0.145653
C56   C     C_R   0.065171 0.249127 0.974489 -0.130691
H1    H     H_    0.189376 0.324672 0.862348 0.085176
H2    H     H_    0.349216 0.454317 0.771011 0.173233
H3    H     H_    0.827919 0.167289 0.652926 0.099899
H4    H     H_    0.304998 0.340050 0.793731 0.159969
H5    H     H_    0.578485 0.416615 0.035488 0.136344
H6    H     H_    0.403674 0.375188 0.986358 0.113566
H7    H     H_    0.662498 0.687969 0.012193 0.150712
H8    H     H_    0.565290 0.613014 0.870846 0.150463
H9    H     H_    0.456783 0.657141 0.932922 0.100832
H10   H     H_    0.636686 0.562520 0.114029 0.176064
H11   H     H_    0.528706 0.983949 0.699641 0.124244
H12   H     H_    0.374036 0.750381 0.197377 0.108675
H13   H     H_    0.041076 0.675518 0.801989 0.123943
H14   H     H_    0.363784 0.825842 0.534305 0.126833
H15   H     H_    0.573708 0.868828 0.297562 0.187541
H16   H     H_    0.499519 0.946934 0.314282 0.198627
H17   H     H_    0.734638 0.020635 0.459319 0.188075
H18   H     H_    0.659817 0.098250 0.474981 0.202694
H19   H     H_    0.773753 0.334706 0.296956 0.128464
H20   H     H_    0.076781 0.775970 0.705200 0.192352
H21   H     H_    0.130125 0.677836 0.686471 0.198980
H22   H     H_    0.071070 0.776126 0.543983 0.186184
H23   H     H_    0.947409 0.250934 0.126180 0.112350
H24   H     H_    0.621722 0.323625 0.879076 0.093247
H25   H     H_    0.125093 0.678518 0.526407 0.199186
H26   H     H_    0.235164 0.039557 0.075387 0.140343
H27   H     H_    0.220797 0.192130 0.062436 0.123914
H28   H     H_    0.904583 0.111061 0.179727 0.190357
H29   H     H_    0.863492 0.041463 0.030198 0.205806
H30   H     H_    0.915133 0.960709 0.190470 0.194496
H31   H     H_    0.875045 0.890887 0.041345 0.196002
H32   H     H_    0.885809 0.322320 0.621016 0.105304
H33   H     H_    0.804280 0.678715 0.055892 0.103290
H34   H     H_    0.117407 0.235981 0.942649 0.091052
H35   H     H_    0.646731 0.167018 0.821510 0.082654
H36   H     H_    0.015942 0.676090 0.347489 0.098016
H37   H     H_    0.093857 0.895644 0.270987 0.103455
H38   H     H_    0.975029 0.782798 0.218284 0.098426
H39   H     H_    0.503552 0.698609 0.132334 0.111069
H40   H     H_    0.589688 0.783366 0.110486 0.092046
H41   H     H_    0.512382 0.495870 0.183517 0.107822
H42   H     H_    0.393379 0.489942 0.127404 0.115039
H43   H     H_    0.764538 0.248287 0.420030 0.096945
H44   H     H_    0.671620 0.289579 0.408803 0.108701
H45   H     H_    0.202977 0.764121 0.380259 0.094148
H46   H     H_    0.264003 0.896089 0.081719 0.092051
H47   H     H_    0.205003 0.785996 0.959918 0.098923
H48   H     H_    0.844296 0.325520 0.179027 0.085295
H49   H     H_    0.350521 0.676831 0.019809 0.082026
H50   H     H_    0.457475 0.327293 0.819196 0.159500
H51   H     H_    0.480627 0.411444 0.756716 0.165740
N1    N     N_R   0.995640 0.706130 0.053910 -0.057523
N2    N     N_R   0.054010 0.556790 0.847890 -0.041506
N3    N     N_R   0.789940 0.443190 0.997130 -0.036762
N4    N     N_R   0.997630 0.443170 0.791110 -0.041163
N5    N     N_R   0.846320 0.556810 0.053910 -0.039114
N6    N     N_R   0.791080 0.293860 0.847890 -0.036110
N7    N     N_R   0.052880 0.706130 0.997130 -0.059581
N8    N     N_R   0.002370 0.556830 0.208890 -0.036475
N9    N     N_3   0.012500 0.848745 0.207482 -0.227669
N10   N     N_3   0.554813 0.703561 0.098866 -0.203012
N11   N     N_3   0.470588 0.520333 0.134096 -0.211560
N12   N     N_R   0.153680 0.443190 0.946090 -0.030199
N13   N     N_3   0.751537 0.311125 0.459572 -0.221360
N14   N     N_3   0.196533 0.851287 0.002383 -0.230310
N15   N     N_R   0.208920 0.706140 0.152110 -0.041934
N16   N     N_R   0.947120 0.293870 0.002870 -0.040364
N17   N     N_R   0.004360 0.293870 0.946090 -0.039241
N18   N     N_R   0.151690 0.706140 0.208890 -0.041988
N19   N     N_R   0.945990 0.443210 0.152110 -0.037555
N20   N     N_R   0.210060 0.556810 0.002870 -0.031591
N21   N     N_R   0.848310 0.293860 0.791110 -0.037285
Ni1   Ni    Ni4+2 0.999010 0.630300 0.130220 0.196095
Ni2   Ni    Ni4+2 0.000990 0.369700 0.869780 0.210041
Ni3   Ni    Ni4+2 0.130280 0.630280 0.000000 0.196424
Ni4   Ni    Ni4+2 0.869720 0.369720 0.000000 0.205959

loop_
_geom_bond_atom_site_label_1
_geom_bond_atom_site_label_2
_ccdc_geom_bond_type
C3    H48   S    
C6    C45   A    
N16   Ni4   S    
C27   C29   S    
C43   H27   S    
N7    Ni3   S    
C35   C36   A    
C42   H26   S    
C3    C6    A    
C32   H19   S    
C3    N19   A    
C24   H14   S    
N16   N17   A    
C39   C41   A    
N6    N21   A    
C5    H49   S    
H39   N10   S    
C26   C27   S    
N8    N19   A    
C13   C18   S    
C47   H29   S    
C29   H17   S    
C36   C37   S    
N6    Ni4   S    
C10   C15   S    
N2    N4    A    
C30   C31   A    
C54   H12   S    
C23   C40   A    
N12   Ni2   S    
C30   C38   S    
C41   C42   A    
N1    N7    A    
H41   N11   S    
C45   H36   S    
C17   C19   S    
H43   N13   S    
C47   C48   S    
C7    C17   S    
N2    Ni3   S    
N3    Ni4   S    
H44   N13   S    
C1    N9    S    
N5    Ni1   S    
C4    C12   A    
H46   N14   S    
C18   N11   S    
C15   C34   S    
C20   C29   S    
C56   H34   S    
C6    C31   S    
C54   N15   A    
C28   C34   A    
C21   C22   A    
C8    C25   S    
C10   H51   S    
C44   C46   A    
C16   N2    A    
H42   N11   S    
C40   N4    A    
N20   Ni3   S    
C13   H10   S    
C55   N16   A    
C51   N7    A    
C4    N21   A    
C51   C52   A    
H40   N10   S    
C24   C25   A    
C8    C54   A    
C5    C7    A    
H38   N9    S    
C18   H6    S    
C29   H18   S    
C38   H22   S    
C2    H45   S    
C28   N3    A    
C25   C26   A    
C37   H21   S    
C12   C21   S    
H37   N9    S    
C43   C44   A    
C37   C38   S    
C55   H23   S    
C45   N8    A    
N4    Ni2   S    
C31   C32   A    
N19   Ni4   S    
C14   H8    S    
C5    N20   A    
C17   C18   S    
C48   H31   S    
N17   Ni2   S    
C9    C56   A    
C47   H28   S    
C9    C44   S    
N1    Ni1   S    
C39   C46   A    
C9    C55   A    
C37   H20   S    
C16   C23   A    
C23   C35   S    
C49   N5    A    
C38   H25   S    
C51   N14   S    
C22   C24   A    
C10   H50   S    
C42   C43   A    
C7    C53   A    
C11   H4    S    
H47   N14   S    
C56   N17   A    
N15   Ni3   S    
C27   H15   S    
N8    Ni1   S    
C46   C47   S    
C11   C17   S    
C34   C49   A    
C53   H1    S    
C41   C52   S    
C14   C19   S    
C2    C8    A    
C16   H13   S    
C49   H33   S    
N21   Ni2   S    
C12   C50   A    
C53   N12   A    
C30   C36   A    
C50   N6    A    
C32   C33   A    
C40   H32   S    
N15   N18   A    
C13   C15   S    
C20   C26   A    
C14   H7    S    
C4    H3    S    
C33   C35   A    
C11   H2    S    
C19   H9    S    
C48   H30   S    
C28   H24   S    
C1    C52   A    
N3    N5    A    
C22   H11   S    
C10   C11   S    
C1    N1    A    
C2    N18   A    
N18   Ni1   S    
C50   H35   S    
C13   H5    S    
C20   C21   A    
C19   N10   S    
C33   N13   S    
C14   C15   S    
C27   H16   S    
C39   C48   S    
N12   N20   A    
