data_mof_unit_55420.cif
_audit_creation_date              2013-03-05T16:12:47-0500
_audit_creation_method            fapswitch 2.2
_symmetry_space_group_name_H-M    P1
_symmetry_Int_Tables_number       1
_space_group_crystal_system       triclinic
_cell_length_a                    10.723909
_cell_length_b                    9.953081
_cell_length_c                    27.647284
_cell_angle_alpha                 89.332864
_cell_angle_beta                  92.552186
_cell_angle_gamma                 90.506239
_cell_volume                      2947.72957383

loop_
_atom_site_label
_atom_site_type_symbol
_atom_site_description
_atom_site_fract_x
_atom_site_fract_y
_atom_site_fract_z
_atom_type_partial_charge
O1    O     O_R   0.316770 0.614620 0.500000 -0.634279
O2    O     O_R   0.683230 0.385380 0.500000 -0.635692
O3    O     O_R   0.683230 0.614620 0.500000 -0.641296
O4    O     O_R   0.316770 0.385380 0.500000 -0.680458
C1    C     C_R   0.260195 0.497954 0.499234 0.937129
C2    C     C_R   0.739412 0.500867 0.500564 0.909684
O5    O     O_R   0.500030 0.614650 0.428760 -0.586050
O6    O     O_R   0.499970 0.385350 0.571240 -0.658419
O7    O     O_R   0.499970 0.614650 0.571240 -0.619997
O8    O     O_R   0.500030 0.385350 0.428760 -0.616967
C3    C     C_R   0.502375 0.500903 0.405819 0.941540
C4    C     C_R   0.500587 0.499796 0.593933 1.026341
Zn1   Zn    Zn3+2 0.500000 0.653120 0.500000 1.007580
Zn2   Zn    Zn3+2 0.500000 0.346880 0.500000 0.970437
C5    C     C_R   0.463718 0.625374 0.174313 0.629072
C6    C     C_R   0.643062 0.439951 0.825805 0.637915
O9    O     O_2   0.368642 0.683914 0.196266 -0.438238
O10   O     O_2   0.713411 0.349737 0.803547 -0.435444
N1    N     N_R   0.548191 0.550583 0.201166 -0.333682
N2    N     N_R   0.557999 0.514261 0.799085 -0.333626
C7    C     C_R   0.648079 0.492573 0.180983 0.582784
C8    C     C_R   0.487083 0.609642 0.819561 0.573695
C9    C     C_R   0.489671 0.409537 0.271216 -0.040241
C10   C     C_R   0.439494 0.430810 0.726411 -0.036211
C11   C     C_R   0.484106 0.394788 0.322080 -0.163438
C12   C     C_R   0.420115 0.438071 0.675473 -0.159148
C13   C     C_R   0.553262 0.628175 0.331446 0.618950
C14   C     C_R   0.614151 0.565305 0.669678 0.644525
C15   C     C_R   0.563005 0.640101 0.281973 -0.179326
C16   C     C_R   0.631092 0.562301 0.719486 -0.187523
C17   C     C_R   0.531779 0.533090 0.251862 0.183364
C18   C     C_R   0.545428 0.496221 0.747922 0.185002
C19   C     C_R   0.572889 0.573007 0.102028 -0.122207
C20   C     C_R   0.579258 0.550358 0.898384 -0.123621
C21   C     C_R   0.474691 0.639092 0.124090 -0.184925
C22   C     C_R   0.655941 0.456676 0.876199 -0.188131
C23   C     C_R   0.388659 0.713503 0.095355 0.711923
C24   C     C_R   0.741115 0.381092 0.904937 0.710797
C25   C     C_R   0.661517 0.501228 0.130977 0.007183
C26   C     C_R   0.495581 0.628773 0.869547 0.006679
C27   C     C_R   0.513284 0.506248 0.352546 -0.217766
C28   C     C_R   0.510909 0.500687 0.647061 -0.179265
H1    H     H_    0.596031 0.733845 0.266640 0.190569
H2    H     H_    0.709659 0.615560 0.736462 0.189684
C29   C     C_R   0.500762 0.652540 0.971215 0.106245
C30   C     C_R   0.674893 0.500745 0.029188 0.105485
C31   C     C_R   0.671478 0.487897 0.978128 -0.046688
C32   C     C_R   0.493627 0.651818 0.022255 -0.047120
C33   C     C_R   0.584538 0.564296 0.949400 0.085347
C34   C     C_R   0.581090 0.576155 0.051001 0.084465
C35   C     C_R   0.424601 0.736332 0.940956 -0.192895
C36   C     C_R   0.767281 0.437982 0.059490 -0.191247
C37   C     C_R   0.421890 0.724107 0.891061 -0.101456
C38   C     C_R   0.760376 0.438178 0.109458 -0.102324
O11   O     O_2   0.407921 0.684898 0.791475 -0.530122
O12   O     O_2   0.732719 0.424995 0.209255 -0.531490
C39   C     C_R   0.398315 0.719853 0.045517 -0.290246
C40   C     C_R   0.748745 0.396777 0.954823 -0.290371
H3    H     H_    0.359955 0.788604 0.869429 0.203788
H4    H     H_    0.831805 0.386041 0.131134 0.203441
H5    H     H_    0.366417 0.813549 0.954682 0.158749
H6    H     H_    0.846996 0.388367 0.045710 0.158860
H7    H     H_    0.325632 0.774640 0.025991 0.181497
H8    H     H_    0.813179 0.331385 0.974375 0.181380
C41   C     C_R   0.065029 0.402635 0.528264 -0.072567
C42   C     C_R   0.930326 0.571529 0.462294 -0.131694
C43   C     C_R   0.939714 0.425050 0.535017 -0.006346
C44   C     C_R   0.060025 0.564683 0.460256 -0.017711
C45   C     C_R   0.872282 0.502907 0.500229 -0.097202
C46   C     C_R   0.126698 0.489537 0.496195 -0.092873
C47   C     C_R   0.576665 0.071178 0.531774 0.014506
C48   C     C_R   0.422964 0.928906 0.468277 0.024944
C49   C     C_R   0.417136 0.072379 0.470536 0.053425
C50   C     C_R   0.582493 0.927867 0.529540 -0.013204
N3    N     N_R   0.500000 0.857200 0.500000 -0.193326
N4    N     N_R   0.500000 0.142800 0.500000 -0.189765
F1    F     F_    0.586589 0.736737 0.358551 -0.605795
F2    F     F_    0.698000 0.634723 0.643826 -0.628294
C51   C     C_2   0.643376 0.142109 0.571835 0.512040
H9    H     H_    0.678903 0.241086 0.566499 0.134064
O13   O     O_2   0.655206 0.091310 0.612189 -0.532997
C52   C     C_2   0.355651 0.858012 0.428276 0.588302
H10   H     H_    0.322556 0.757770 0.433221 0.101079
O14   O     O_2   0.340730 0.910200 0.388257 -0.513261
C53   C     C_2   0.312584 0.144447 0.445133 0.522345
H11   H     H_    0.325206 0.242893 0.429699 0.117099
O15   O     O_2   0.207982 0.094796 0.442413 -0.531405
C54   C     C_2   0.686326 0.856046 0.555251 0.598945
H12   H     H_    0.673342 0.756893 0.569534 0.169772
O16   O     O_2   0.790505 0.906415 0.559218 -0.498125
F3    F     F_    0.292866 0.779194 0.114928 -0.591147
F4    F     F_    0.816792 0.289679 0.885300 -0.592462
C55   C     C_2   0.299639 0.394666 0.652683 0.362746
H13   H     H_    0.261582 0.295667 0.660266 0.076701
O17   O     O_2   0.239144 0.473140 0.626994 -0.579698
C56   C     C_2   0.444815 0.263683 0.342184 0.432589
H14   H     H_    0.348640 0.230257 0.336958 0.089523
O18   O     O_2   0.521462 0.189482 0.362288 -0.491311
C57   C     C_2   0.346549 0.361731 0.756941 0.499800
H15   H     H_    0.252261 0.342251 0.742882 0.072750
O19   O     O_2   0.374555 0.323185 0.798046 -0.537595
C58   C     C_2   0.452458 0.295544 0.238810 0.494834
H16   H     H_    0.450570 0.193353 0.252813 0.092847
O20   O     O_2   0.420538 0.314148 0.196344 -0.541531
C59   C     C_2   0.127452 0.284298 0.552344 0.441424
H17   H     H_    0.222881 0.288809 0.566409 0.117036
O21   O     O_2   0.072843 0.176350 0.554664 -0.522650
C60   C     C_2   0.853465 0.641626 0.423666 0.494204
H18   H     H_    0.769958 0.593341 0.408357 0.073555
O22   O     O_2   0.879242 0.755532 0.410432 -0.495866
C61   C     C_2   0.885303 0.379741 0.581263 0.444284
H19   H     H_    0.925959 0.298386 0.602849 0.137099
O23   O     O_2   0.797720 0.438645 0.597588 -0.551830
C62   C     C_2   0.122591 0.615276 0.416580 0.385883
H20   H     H_    0.097237 0.710683 0.399896 0.162452
O24   O     O_2   0.201661 0.547974 0.397890 -0.599795

loop_
_geom_bond_atom_site_label_1
_geom_bond_atom_site_label_2
_geom_bond_distance
_ccdc_geom_bond_type
C2    C45   1.425285 S    
C42   C44   1.396813 A    
C55   H13   1.084958 S    
C24   F4    1.358290 S    
C13   C15   1.380062 A    
C10   C57   1.492644 S    
C61   H19   1.083372 S    
C35   H5    1.077202 S    
O3    C2    1.286824 A    
N1    C17   1.428828 S    
C47   C51   1.475008 S    
C62   H20   1.082406 S    
C37   H3    1.083573 S    
C32   C39   1.413433 A    
C31   C33   1.418035 A    
C38   H4    1.083539 S    
C53   H11   1.074043 S    
C5    N1    1.365684 A    
C59   O21   1.221499 D    
C19   C25   1.408984 A    
C20   C26   1.408596 A    
N1    C7    1.365237 A    
C10   C12   1.415453 A    
C47   N4    1.373777 A    
C42   C45   1.409939 A    
C29   C35   1.413296 A    
C41   C46   1.412746 A    
C30   C36   1.413684 A    
C60   H18   1.084173 S    
C5    C21   1.403700 A    
O7    Zn1   2.002095 S    
C4    C28   1.468211 S    
C24   C40   1.388544 A    
Zn1   N3    2.031225 S    
C41   C43   1.385358 A    
C56   O18   1.220832 D    
C14   F2    1.353350 S    
O3    Zn1   2.005278 S    
C6    N2    1.365311 A    
C42   C60   1.490339 S    
C12   C55   1.475408 S    
C32   C34   1.417971 A    
C55   O17   1.220785 D    
C15   H1    1.083525 S    
C16   H2    1.083438 S    
O2    C2    1.292989 A    
C48   N3    1.375644 A    
C41   C59   1.494843 S    
C36   C38   1.386782 A    
C39   H7    1.076792 S    
C53   O15   1.221367 D    
C40   H8    1.076927 S    
C50   N3    1.371981 A    
C23   F3    1.358394 S    
C9    C58   1.494351 S    
O8    Zn2   2.002101 S    
C11   C27   1.424863 A    
C51   O13   1.221430 D    
O4    C1    1.278388 A    
C19   C34   1.417357 A    
C43   C45   1.406796 A    
C9    C17   1.413796 A    
O5    C3    1.305098 A    
C10   C18   1.415588 A    
C1    C46   1.432095 S    
C47   C50   1.430476 A    
C13   C27   1.411883 A    
C57   H15   1.083682 S    
C7    C25   1.397982 A    
C29   C33   1.420162 A    
O6    C4    1.306652 A    
C8    C26   1.396073 A    
C56   H14   1.084938 S    
C61   O23   1.217884 D    
C58   O20   1.220729 D    
C49   C53   1.482296 S    
C43   C61   1.492307 S    
C57   O19   1.220814 D    
N2    C8    1.365164 A    
C26   C37   1.395316 A    
C52   O14   1.221440 D    
C49   N4    1.371980 A    
O1    C1    1.305328 A    
O1    Zn1   1.998632 S    
C22   C24   1.401809 A    
C12   C28   1.414032 A    
N2    C18   1.428202 S    
C29   C32   1.416519 A    
C5    O9    1.349535 S    
C30   C31   1.417775 A    
C20   C33   1.417437 A    
O6    Zn2   2.010849 S    
C21   C23   1.401404 A    
C54   O16   1.221470 D    
C48   C49   1.432133 A    
C13   F1    1.358316 S    
C7    O12   1.350029 S    
C62   O24   1.221419 D    
C8    O11   1.350437 S    
C59   H17   1.079201 S    
C30   C34   1.420157 A    
C50   C54   1.479160 S    
C14   C16   1.380947 A    
C15   C17   1.388918 A    
C36   H6    1.077319 S    
C6    C22   1.405637 A    
C31   C40   1.413739 A    
C16   C18   1.391466 A    
C14   C28   1.401989 A    
C19   C21   1.411529 A    
C60   O22   1.220407 D    
C3    C27   1.482977 S    
C20   C22   1.411967 A    
C9    C11   1.416042 A    
O4    Zn2   2.005278 S    
C58   H16   1.084432 S    
O2    Zn2   1.998632 S    
O7    C4    1.297507 A    
C23   C39   1.387031 A    
O8    C3    1.307509 A    
C51   H9    1.064126 S    
C25   C38   1.395815 A    
O5    Zn1   2.010854 S    
C54   H12   1.068946 S    
C11   C56   1.477664 S    
C6    O10   1.349168 S    
C52   H10   1.065354 S    
C44   C62   1.487924 S    
C44   C46   1.409525 A    
C35   C37   1.385226 A    
C48   C52   1.476507 S    
Zn2   N4    2.031225 S    
