data_mof_unit_24080.cif
_audit_creation_date              2013-03-05T16:36:37-0500
_audit_creation_method            fapswitch 2.2
_symmetry_space_group_name_H-M    P1
_symmetry_Int_Tables_number       1
_space_group_crystal_system       triclinic
_cell_length_a                    17.746178
_cell_length_b                    9.0968
_cell_length_c                    7.795346
_cell_angle_alpha                 89.995437
_cell_angle_beta                  90.004928
_cell_angle_gamma                 89.995382
_cell_volume                      1258.42944591

loop_
_atom_site_label
_atom_site_type_symbol
_atom_site_description
_atom_site_fract_x
_atom_site_fract_y
_atom_site_fract_z
_atom_type_partial_charge
O1    O     O_R   0.500000 0.288390 0.642760 -0.574456
O2    O     O_R   0.500000 0.711610 0.357240 -0.574457
O3    O     O_R   0.500000 0.711610 0.642760 -0.577263
O4    O     O_R   0.500000 0.288390 0.357240 -0.577260
C1    C     C_R   0.500000 0.220052 0.500003 0.846701
C2    C     C_R   0.500000 0.779948 0.499997 0.846698
O5    O     O_R   0.391250 0.500000 0.642840 -0.583997
O6    O     O_R   0.608750 0.500000 0.357160 -0.583994
O7    O     O_R   0.608750 0.500000 0.642840 -0.584008
O8    O     O_R   0.391250 0.500000 0.357160 -0.584003
C3    C     C_1   0.500000 0.065373 0.500005 -0.176632
C4    C     C_1   0.500000 0.934627 0.499995 -0.176630
C5    C     C_R   0.355259 0.500022 0.499993 0.804529
C6    C     C_R   0.644741 0.499983 0.500008 0.804532
Cu1   Cu    Cu3+1 0.500000 0.500000 0.669080 0.997973
Cu2   Cu    Cu3+1 0.500000 0.500000 0.330920 0.997976
C7    C     C_R   0.845884 0.549578 0.645972 0.168955
C8    C     C_R   0.154106 0.450538 0.354037 0.168941
C9    C     C_R   0.154123 0.549604 0.645955 0.168853
C10   C     C_R   0.845889 0.450528 0.354052 0.168841
C11   C     C_R   0.767057 0.547400 0.645370 -0.193291
C12   C     C_R   0.232933 0.452661 0.354637 -0.193302
C13   C     C_R   0.232950 0.547497 0.645323 -0.193300
C14   C     C_R   0.767061 0.452575 0.354683 -0.193321
H1    H     H_    0.736474 0.585074 0.757395 0.162892
H2    H     H_    0.263507 0.414963 0.242612 0.162888
H3    H     H_    0.263537 0.585165 0.757353 0.162874
H4    H     H_    0.736483 0.414902 0.242648 0.162868
C15   C     C_R   0.727448 0.499972 0.500027 -0.120449
C16   C     C_R   0.272552 0.500068 0.499979 -0.120449
C17   C     C_R   0.885337 0.500086 0.500004 0.113509
C18   C     C_R   0.114664 0.500067 0.500005 0.113516
C19   C     C_1   0.966243 0.500101 0.500007 -0.028273
C20   C     C_1   0.033759 0.500085 0.500012 -0.028260
N1    N     N_1   0.500000 0.500000 0.076820 -0.051419
N2    N     N_1   0.500000 0.500000 0.923180 -0.051419
C21   C     C_3   0.887223 0.605353 0.801710 -0.886818
H5    H     H_    0.847997 0.635231 0.907148 0.239060
H6    H     H_    0.926086 0.518919 0.849110 0.236256
H7    H     H_    0.920522 0.704336 0.767115 0.239800
C22   C     C_3   0.112755 0.394780 0.198305 -0.886796
H8    H     H_    0.151976 0.364866 0.092869 0.239064
H9    H     H_    0.079439 0.295821 0.232909 0.239775
H10   H     H_    0.073908 0.481234 0.150891 0.236270
C23   C     C_3   0.112789 0.605215 0.801772 -0.886603
H11   H     H_    0.074155 0.518491 0.849413 0.236203
H12   H     H_    0.152040 0.635494 0.907028 0.239070
H13   H     H_    0.079236 0.703910 0.767203 0.239808
C24   C     C_3   0.887243 0.394988 0.198226 -0.886480
H14   H     H_    0.920894 0.296405 0.232813 0.239779
H15   H     H_    0.847993 0.364546 0.093015 0.239065
H16   H     H_    0.925800 0.481840 0.150520 0.236181

loop_
_geom_bond_atom_site_label_1
_geom_bond_atom_site_label_2
_geom_bond_distance
_ccdc_geom_bond_type
O4    Cu2   1.935862 S    
C9    C13   1.399015 A    
O7    C6    1.283661 A    
C17   C19   1.435763 S    
C10   C24   1.506509 S    
O1    Cu1   1.935894 S    
C13   H3    1.083851 S    
O2    Cu2   1.935894 S    
C22   H8    1.110911 S    
C5    C16   1.467737 S    
N1    N2    1.197678 T    
C3    C4    1.189367 T    
C24   H16   1.109409 S    
O3    C2    1.274706 A    
O5    Cu1   1.940689 S    
C19   C20   1.198162 T    
O7    Cu1   1.940724 S    
C21   H6    1.109152 S    
C7    C21   1.506480 S    
C23   H11   1.109251 S    
C22   H9    1.110305 S    
O2    C2    1.274746 A    
O1    C1    1.274746 A    
C9    C18   1.409906 A    
C21   H5    1.110915 S    
C1    C3    1.407081 S    
C21   H7    1.110304 S    
C23   H12   1.110973 S    
Cu2   N1    1.980797 S    
C2    C4    1.407081 S    
C7    C17   1.409900 A    
C22   H10   1.109147 S    
C23   H13   1.110438 S    
C8    C18   1.409902 A    
C6    C15   1.467738 S    
Cu1   Cu2   2.636075 S    
C13   C16   1.401399 A    
C14   H4    1.083820 S    
Cu1   N2    1.980797 S    
O5    C5    1.283667 A    
O3    Cu1   1.935861 S    
O6    Cu2   1.940689 S    
C24   H14   1.110588 S    
C12   H2    1.083829 S    
C8    C22   1.506494 S    
O8    Cu2   1.940724 S    
C11   H1    1.083839 S    
C14   C15   1.401405 A    
O6    C6    1.283669 A    
C12   C16   1.401418 A    
C8    C12   1.399018 A    
C11   C15   1.401392 A    
C10   C17   1.409878 A    
C7    C11   1.399033 A    
C9    C23   1.506497 S    
C10   C14   1.399025 A    
O4    C1    1.274706 A    
C24   H15   1.111062 S    
O8    C5    1.283667 A    
C18   C20   1.435755 S    
