data_mof_unit_21011.cif
_audit_creation_date              2012-12-11T15:09:35-0500
_audit_creation_method            fapswitch 2.2
_symmetry_space_group_name_H-M    P1
_symmetry_Int_Tables_number       1
_space_group_crystal_system       triclinic
_cell_length_a                    20.901069
_cell_length_b                    7.127476
_cell_length_c                    14.015348
_cell_angle_alpha                 89.920986
_cell_angle_beta                  98.061549
_cell_angle_gamma                 90.092747
_cell_volume                      2067.25589106

loop_
_atom_site_label
_atom_site_type_symbol
_atom_type_description
_atom_site_fract_x
_atom_site_fract_y
_atom_site_fract_z
_atom_type_partial_charge
O1    O     O_R   0.447130 0.507140 0.597350 -0.537435
O2    O     O_R   0.552870 0.007140 0.402650 -0.537673
O3    O     O_R   0.578910 0.181280 0.586990 -0.537546
O4    O     O_R   0.421090 0.681280 0.413010 -0.537779
C1    C     C_R   0.604497 0.344527 0.607366 0.727520
C2    C     C_R   0.395503 0.844440 0.392636 0.727707
O5    O     O_R   0.449230 0.177860 0.608640 -0.537285
O6    O     O_R   0.550770 0.677860 0.391360 -0.536847
O7    O     O_R   0.422260 0.000770 0.424450 -0.536910
O8    O     O_R   0.577740 0.500770 0.575550 -0.537390
C3    C     C_R   0.432904 0.346151 0.634765 0.717940
C4    C     C_R   0.567081 0.846600 0.365227 0.717829
O9    O     O_3   0.491310 0.336980 0.439550 -0.372574
O10   O     O_3   0.508690 0.836980 0.560450 -0.372981
V1    V     V_3+5 0.501610 0.064760 0.511210 1.476072
V2    V     V_3+5 0.498390 0.564760 0.488790 1.475753
C5    C     C_R   0.620045 0.907996 0.122274 0.413075
C6    C     C_R   0.380351 0.375808 0.879405 0.413457
H1    H     H_    0.528785 0.903424 0.176328 0.168235
H2    H     H_    0.471635 0.370079 0.825445 0.169346
H3    H     H_    0.707961 0.936993 0.999342 0.184326
H4    H     H_    0.292651 0.392581 0.003123 0.184268
C7    C     C_R   0.607968 0.857206 0.289244 -0.108765
C8    C     C_R   0.391987 0.354450 0.710739 -0.109667
C9    C     C_R   0.922144 0.826303 0.307893 0.284355
C10   C     C_R   0.077559 0.343782 0.691153 0.285758
C11   C     C_R   0.883704 0.810138 0.381108 -0.132171
C12   C     C_R   0.115882 0.333785 0.617576 -0.129528
C13   C     C_R   0.816724 0.821492 0.361081 -0.229334
C14   C     C_R   0.182957 0.338238 0.637936 -0.228525
C15   C     C_R   0.785243 0.850649 0.265986 0.106736
C16   C     C_R   0.214662 0.353439 0.733800 0.106305
C17   C     C_R   0.824237 0.869961 0.191065 0.032616
C18   C     C_R   0.175826 0.364000 0.809281 0.032224
C19   C     C_R   0.716438 0.861634 0.242921 0.044595
C20   C     C_R   0.283546 0.358216 0.757143 0.044807
C21   C     C_R   0.688008 0.894078 0.145671 0.032699
C22   C     C_R   0.312253 0.371950 0.855466 0.032041
C23   C     C_R   0.727831 0.912670 0.073824 -0.134995
C24   C     C_R   0.272580 0.381760 0.927870 -0.135126
C25   C     C_R   0.794424 0.900486 0.095906 -0.192847
C26   C     C_R   0.205883 0.378238 0.905356 -0.191871
C27   C     C_R   0.674751 0.842098 0.313444 -0.218954
C28   C     C_R   0.325054 0.350021 0.685916 -0.218855
C29   C     C_R   0.580746 0.890494 0.194308 -0.158933
C30   C     C_R   0.419525 0.366947 0.806874 -0.159967
C31   C     C_R   0.892500 0.857484 0.212411 -0.147497
C32   C     C_R   0.107458 0.359833 0.787513 -0.146715
H5    H     H_    0.692295 0.816899 0.388303 0.108002
H6    H     H_    0.307291 0.340555 0.610161 0.107782
H7    H     H_    0.791299 0.807540 0.422346 0.125067
H8    H     H_    0.208285 0.329421 0.576369 0.124800
H9    H     H_    0.906022 0.789345 0.454910 0.137279
H10   H     H_    0.093399 0.323690 0.543247 0.134065
H11   H     H_    0.822394 0.916006 0.036950 0.125041
H12   H     H_    0.178034 0.386658 0.964763 0.124176
C33   C     C_1   0.166490 0.857166 0.168534 -0.186759
C34   C     C_1   0.833511 0.356940 0.831463 -0.186822
C35   C     C_1   0.218886 0.854833 0.219674 0.012914
C36   C     C_1   0.781115 0.354704 0.780323 0.012557
C37   C     C_1   0.280658 0.853310 0.279643 0.020285
C38   C     C_1   0.719345 0.353393 0.720353 0.020264
C39   C     C_1   0.333062 0.850968 0.330779 -0.171770
C40   C     C_1   0.666940 0.351167 0.669217 -0.171959
O11   O     O_R   0.922300 0.202240 0.924350 -0.532457
O12   O     O_R   0.077700 0.702240 0.075650 -0.531807
O13   O     O_R   0.050780 0.535130 0.891350 -0.543438
O14   O     O_R   0.949220 0.035130 0.108650 -0.543862
C41   C     C_R   0.067265 0.368160 0.865174 0.694781
C42   C     C_R   0.932684 0.867743 0.134758 0.694354
O15   O     O_R   0.921100 0.531560 0.912990 -0.538706
O16   O     O_R   0.078900 0.031560 0.087010 -0.539153
O17   O     O_R   0.947120 0.708470 0.097370 -0.533686
O18   O     O_R   0.052880 0.208470 0.902630 -0.534026
C43   C     C_R   0.895926 0.363488 0.893339 0.715469
C44   C     C_R   0.104075 0.863580 0.106657 0.715248
O19   O     O_3   0.008710 0.375800 0.060400 -0.375541
O20   O     O_3   0.991290 0.875800 0.939600 -0.374801
V3    V     V_3+5 0.998380 0.648080 0.988790 1.424155
V4    V     V_3+5 0.001620 0.148080 0.011210 1.421502
Cl1   Cl    Cl    0.581521 0.949538 0.003869 -0.599519
Cl2   Cl    Cl    0.419245 0.391645 0.999300 -0.598294
N1    N     N_2   0.990652 0.815333 0.332061 -0.530037
H13   H     H_    0.017094 0.885047 0.286235 0.240342
C45   C     C_3   0.015163 0.629343 0.357051 -0.536022
H14   H     H_    0.068328 0.636005 0.378444 0.193219
H15   H     H_    0.004498 0.534010 0.294104 0.200645
H16   H     H_    0.993251 0.572028 0.418764 0.211364
N2    N     N_2   0.008978 0.341400 0.666595 -0.531502
H17   H     H_    0.983432 0.408636 0.714245 0.242319
C46   C     C_3   0.981980 0.160345 0.636653 -0.542309
H18   H     H_    0.928981 0.173766 0.615234 0.195306
H19   H     H_    0.991118 0.058244 0.697040 0.200078
H20   H     H_    0.003319 0.107113 0.573659 0.211962

loop_
_geom_bond_atom_site_label_1
_geom_bond_atom_site_label_2
_ccdc_geom_bond_type
O14   V4    S    
C14   C16   A    
C7    C29   A    
C11   C13   A    
O1    C3    A    
C32   C41   S    
O16   C44   A    
O2    C4    A    
C2    O7    A    
O15   V3    S    
C23   C25   A    
C45   H14   S    
C10   N2    S    
O5    C3    A    
O12   V3    S    
C4    C7    S    
C16   C20   A    
C33   C44   S    
C19   C21   A    
C5    C29   A    
O20   V4    S    
C33   C35   T    
C34   C36   T    
C3    C8    S    
C7    C27   A    
C36   C38   S    
C37   C39   T    
C25   H11   S    
C38   C40   T    
C26   H12   S    
C18   C26   A    
C15   C17   A    
N2    C46   S    
C19   C27   A    
C9    C31   A    
C10   C32   A    
C45   H15   S    
O12   C44   A    
O6    V2    S    
O11   V4    S    
O18   V4    S    
C13   C15   A    
C6    C30   A    
C34   C43   S    
O19   V3    S    
C35   C37   S    
O13   V3    S    
O4    C2    A    
C46   H18   S    
C12   H10   S    
O20   V3    S    
C27   H5    S    
O5    V1    S    
C1    C40   S    
O13   C41   A    
C16   C18   A    
C2    C39   S    
O4    V2    S    
C31   C42   S    
C46   H19   S    
N1    H13   S    
H3    C23   S    
O6    C4    A    
H4    C24   S    
C42   O17   A    
H1    C29   S    
O17   V3    S    
C41   O18   A    
O1    V2    S    
C5    C21   A    
O2    V1    S    
O14   C42   A    
N1    C45   S    
C17   C31   A    
C15   C19   A    
C20   C28   A    
C18   C32   A    
C20   C22   A    
O3    V1    S    
C45   H16   S    
C13   H7    S    
O19   V4    S    
C28   H6    S    
C14   H8    S    
O3    C1    A    
C11   H9    S    
C9    C11   A    
C10   C12   A    
O11   C43   A    
C8    C30   A    
C12   C14   A    
C6    C22   A    
C17   C25   A    
C1    O8    A    
C21   C23   A    
O8    V2    S    
C46   H20   S    
O15   C43   A    
C22   C24   A    
C8    C28   A    
C24   C26   A    
C6    Cl2   S    
C5    Cl1   S    
O7    V1    S    
O16   V4    S    
O9    V2    S    
C9    N1    S    
O10   V1    S    
N2    H17   S    
H2    C30   S    
