data_mof_unit_36250.cif
_audit_creation_date              2012-12-11T17:01:19-0500
_audit_creation_method            fapswitch 2.2
_symmetry_space_group_name_H-M    P1
_symmetry_Int_Tables_number       1
_space_group_crystal_system       triclinic
_cell_length_a                    19.387763
_cell_length_b                    7.109995
_cell_length_c                    17.579024
_cell_angle_alpha                 89.993753
_cell_angle_beta                  108.538184
_cell_angle_gamma                 90.001524
_cell_volume                      2297.47814456

loop_
_atom_site_label
_atom_site_type_symbol
_atom_type_description
_atom_site_fract_x
_atom_site_fract_y
_atom_site_fract_z
_atom_type_partial_charge
O1    O     O_R   0.413720 0.494330 0.415730 -0.535967
O2    O     O_R   0.586280 0.994330 0.584270 -0.534558
O3    O     O_R   0.560210 0.819300 0.430070 -0.538533
O4    O     O_R   0.439790 0.319300 0.569930 -0.544511
C1    C     C_R   0.581418 0.655287 0.414446 0.717877
C2    C     C_R   0.418274 0.155426 0.585172 0.714510
O5    O     O_R   0.412670 0.823730 0.406310 -0.544610
O6    O     O_R   0.587330 0.323730 0.593690 -0.545064
O7    O     O_R   0.437690 0.998790 0.560340 -0.535179
O8    O     O_R   0.562310 0.498790 0.439660 -0.541262
C3    C     C_R   0.385406 0.655223 0.383419 0.698719
C4    C     C_R   0.614597 0.155215 0.616574 0.699986
O9    O     O_3   0.508380 0.662350 0.550560 -0.376203
O10   O     O_3   0.491620 0.162350 0.449440 -0.375967
V1    V     V_3+5 0.498450 0.935370 0.490620 1.414233
V2    V     V_3+5 0.501550 0.435370 0.509380 1.403641
C5    C     C_R   0.699153 0.989353 0.737120 0.101093
C6    C     C_R   0.300837 0.489323 0.262915 0.102132
C7    C     C_R   0.681854 0.147014 0.686776 -0.104374
C8    C     C_R   0.318158 0.647033 0.313207 -0.106999
C9    C     C_R   0.730261 0.300512 0.706809 -0.165093
C10   C     C_R   0.269769 0.800555 0.293123 -0.164822
H1    H     H_    0.719295 0.425553 0.670023 0.141856
H2    H     H_    0.280749 0.925630 0.329870 0.143345
C11   C     C_R   0.795968 0.288994 0.771016 -0.169711
C12   C     C_R   0.204058 0.789019 0.228924 -0.171005
H3    H     H_    0.833181 0.406689 0.782250 0.138251
H4    H     H_    0.166857 0.906736 0.217656 0.139118
C13   C     C_R   0.815546 0.123021 0.816841 -0.104560
C14   C     C_R   0.184458 0.623004 0.183153 -0.106136
C15   C     C_R   0.764168 0.977657 0.800409 0.101599
C16   C     C_R   0.235820 0.477610 0.199630 0.103435
C17   C     C_3   0.772843 0.774104 0.785538 -0.417647
C18   C     C_3   0.227132 0.274103 0.214562 -0.418037
C19   C     C_3   0.701834 0.786844 0.716618 -0.397839
C20   C     C_3   0.298140 0.286865 0.283481 -0.398779
H5    H     H_    0.768885 0.684717 0.835879 0.169569
H6    H     H_    0.231085 0.184663 0.164248 0.169921
H7    H     H_    0.820828 0.746400 0.765505 0.181887
H8    H     H_    0.179148 0.246463 0.234599 0.180828
H9    H     H_    0.656913 0.704935 0.727246 0.170603
H10   H     H_    0.343052 0.204900 0.272878 0.171230
H11   H     H_    0.708688 0.766173 0.656713 0.181450
H12   H     H_    0.291285 0.266284 0.343390 0.178766
C21   C     C_R   0.319229 0.297056 0.629432 -0.179735
C22   C     C_R   0.678034 0.493444 0.371861 -0.178717
C23   C     C_R   0.368214 0.148394 0.633660 -0.089367
C24   C     C_R   0.630717 0.647004 0.365053 -0.089482
C25   C     C_R   0.368822 0.994193 0.683755 -0.187425
C26   C     C_R   0.631859 0.794782 0.312390 -0.183409
C27   C     C_R   0.322133 0.989394 0.730550 0.131364
C28   C     C_R   0.679202 0.789764 0.266498 0.129676
C29   C     C_R   0.273079 0.139352 0.726148 0.032965
C30   C     C_R   0.726736 0.635359 0.273668 0.032245
C31   C     C_R   0.270728 0.293565 0.674433 0.045317
C32   C     C_R   0.726859 0.486449 0.327262 0.045796
C33   C     C_R   0.322985 0.835597 0.780930 -0.164702
C34   C     C_R   0.680609 0.938516 0.214467 -0.165741
C35   C     C_R   0.275389 0.828990 0.826221 -0.186089
C36   C     C_R   0.728770 0.935245 0.169840 -0.190142
C37   C     C_R   0.226643 0.977070 0.822706 0.110658
C38   C     C_R   0.775915 0.782321 0.175840 0.108912
C39   C     C_R   0.225667 0.133415 0.772834 0.059779
C40   C     C_R   0.774817 0.631485 0.227791 0.058765
C41   C     C_R   0.176997 0.283093 0.769282 0.050551
C42   C     C_R   0.821970 0.477310 0.234089 0.049494
C43   C     C_R   0.174263 0.434065 0.717134 -0.193475
C44   C     C_R   0.822479 0.331411 0.287900 -0.190211
C45   C     C_R   0.219459 0.438799 0.668832 0.158937
C46   C     C_R   0.776469 0.336175 0.335255 0.156031
C47   C     C_R   0.178792 0.971229 0.868127 -0.215379
C48   C     C_R   0.823975 0.777532 0.130617 -0.215618
C49   C     C_R   0.130996 0.121603 0.866043 -0.079451
C50   C     C_R   0.870086 0.622139 0.135276 -0.081059
C51   C     C_R   0.130812 0.277702 0.816796 -0.193065
C52   C     C_R   0.868609 0.472525 0.187226 -0.192533
H13   H     H_    0.318998 0.414134 0.590112 0.158419
H14   H     H_    0.676976 0.381400 0.413035 0.159379
H15   H     H_    0.406280 0.878937 0.687028 0.123018
H16   H     H_    0.595718 0.913978 0.306972 0.125443
H17   H     H_    0.359880 0.719002 0.784508 0.124926
H18   H     H_    0.644912 0.058609 0.208913 0.125305
H19   H     H_    0.276636 0.707661 0.863951 0.125033
H20   H     H_    0.729125 0.052527 0.130582 0.125318
H21   H     H_    0.179593 0.850696 0.906196 0.121805
H22   H     H_    0.824416 0.893226 0.090579 0.123452
H23   H     H_    0.093606 0.393205 0.814157 0.130971
H24   H     H_    0.904474 0.353022 0.191990 0.132706
H25   H     H_    0.135888 0.547580 0.712762 0.161223
H26   H     H_    0.859594 0.214176 0.294126 0.161819
O11   O     O_R   0.937800 0.775460 0.060470 -0.536795
O12   O     O_R   0.062200 0.275460 0.939530 -0.538657
O13   O     O_R   0.087350 0.441340 0.093710 -0.538232
O14   O     O_R   0.912650 0.941340 0.906290 -0.538214
C53   C     C_R   0.114684 0.610310 0.116454 0.693117
C54   C     C_R   0.885318 0.110319 0.883545 0.692594
O15   O     O_R   0.939820 0.446010 0.069950 -0.543806
O16   O     O_R   0.060180 0.946010 0.930050 -0.540870
O17   O     O_R   0.913690 0.271230 0.915700 -0.540238
O18   O     O_R   0.086310 0.771230 0.084300 -0.540575
C55   C     C_R   0.918888 0.614356 0.085205 0.705486
C56   C     C_R   0.081424 0.114288 0.915186 0.705395
O19   O     O_3   0.991670 0.603050 0.949510 -0.374345
O20   O     O_3   0.008330 0.103050 0.050490 -0.374140
V3    V     V_3+5 0.001550 0.329940 0.009370 1.399491
V4    V     V_3+5 0.998450 0.829940 0.990630 1.403115
I1    I     I_    0.202706 0.664445 0.585409 -0.425020
I2    I     I_    0.789039 0.115717 0.420430 -0.429205

loop_
_geom_bond_atom_site_label_1
_geom_bond_atom_site_label_2
_ccdc_geom_bond_type
C42   C44   A    
C39   C41   A    
C36   H20   S    
C20   H10   S    
O1    C3    A    
O2    C4    A    
C2    O7    A    
O20   V4    S    
C45   I1    S    
C23   C25   A    
O5    C3    A    
C17   H7    S    
C50   C52   A    
C18   H8    S    
C7    C9    A    
C35   H19   S    
C34   H18   S    
C17   C19   S    
C33   C35   A    
C34   C36   A    
C54   O17   A    
C43   H25   S    
C36   C38   A    
C21   C23   A    
C37   C39   A    
C38   C40   A    
O13   V3    S    
C47   H21   S    
C41   C43   A    
C26   C28   A    
C15   C17   S    
C27   C33   A    
C19   H11   S    
C52   H24   S    
C18   C20   S    
O12   C56   A    
O15   V3    S    
C37   C47   A    
C24   C26   A    
O6    V2    S    
C49   C51   A    
O11   V4    S    
O11   C55   A    
O20   V3    S    
C28   C30   A    
C22   C24   A    
C29   C31   A    
C11   C13   A    
O17   V3    S    
C1    C24   S    
C30   C32   A    
C3    C8    S    
C35   C37   A    
C2    C23   S    
C48   C50   A    
C47   C49   A    
C53   O18   A    
C25   C27   A    
O16   C56   A    
C17   H5    S    
C25   H15   S    
C27   C29   A    
C40   C42   A    
O4    V2    S    
C14   C53   S    
C44   H26   S    
O6    C4    A    
C42   C52   A    
C38   C48   A    
O19   V3    S    
O1    V2    S    
O14   C54   A    
O2    V1    S    
C31   C45   A    
C28   C34   A    
C50   C55   S    
C51   H23   S    
C49   C56   S    
C8    C10   A    
C12   C14   A    
C32   C46   A    
C9    H1    S    
C5    C15   A    
C10   H2    S    
C20   H12   S    
O4    C2    A    
C6    C16   A    
O3    V1    S    
C22   H14   S    
C43   C45   A    
C9    C11   A    
O14   V4    S    
C18   H6    S    
O18   V4    S    
O3    C1    A    
C26   H16   S    
C13   C54   S    
C48   H22   S    
C11   H3    S    
C12   H4    S    
O16   V4    S    
O7    V1    S    
C1    O8    A    
C13   C15   A    
O8    V2    S    
C14   C16   A    
C29   C39   A    
C30   C40   A    
C4    C7    S    
O5    V1    S    
C5    C7    A    
O19   V4    S    
C6    C8    A    
C19   H9    S    
C33   H17   S    
O12   V3    S    
C21   C31   A    
O13   C53   A    
C10   C12   A    
O9    V2    S    
C22   C32   A    
C44   C46   A    
O10   V1    S    
C46   I2    S    
C5    C19   S    
C21   H13   S    
C6    C20   S    
O15   C55   A    
C41   C51   A    
C16   C18   S    
