data_mof_unit_32612.cif
_audit_creation_date              2012-12-10T18:10:53-0500
_audit_creation_method            fapswitch 2.2
_symmetry_space_group_name_H-M    P1
_symmetry_Int_Tables_number       1
_space_group_crystal_system       triclinic
_cell_length_a                    12.567701
_cell_length_b                    13.127105
_cell_length_c                    15.725259
_cell_angle_alpha                 90.555361
_cell_angle_beta                  102.619741
_cell_angle_gamma                 82.017237
_cell_volume                      2506.53553987

loop_
_atom_site_label
_atom_site_type_symbol
_atom_type_description
_atom_site_fract_x
_atom_site_fract_y
_atom_site_fract_z
_atom_type_partial_charge
C1    C     C_R   0.438465 0.691331 0.486483 0.861412
C2    C     C_3   0.377999 0.514751 0.026624 -0.385609
C3    C     C_3   0.497302 0.500555 0.082089 0.325202
C4    C     C_3   0.559406 0.397489 0.058717 -0.382554
C5    C     C_3   0.561160 0.397996 0.960875 -0.391224
C6    C     C_1   0.496274 0.500072 0.173467 -0.104360
C7    C     C_1   0.501832 0.501657 0.826139 -0.095170
C8    C     C_1   0.502229 0.501342 0.750799 -0.140751
C9    C     C_R   0.703769 0.062624 0.440136 -0.173856
C10   C     C_R   0.597114 0.199573 0.501594 -0.052302
C11   C     C_R   0.297959 0.839461 0.496233 -0.187980
C12   C     C_R   0.500773 0.500437 0.661531 0.920886
C13   C     C_R   0.268745 0.944665 0.502856 -0.074785
C14   C     C_R   0.342863 0.011546 0.494788 -0.125887
C15   C     C_R   0.446123 0.973880 0.475420 0.074053
C16   C     C_R   0.467143 0.869517 0.454776 0.089910
C17   C     C_R   0.529380 0.036150 0.475944 0.090401
C18   C     C_R   0.623092 0.999168 0.442101 0.168652
C19   C     C_R   0.633796 0.900184 0.409522 -0.237713
C20   C     C_R   0.556810 0.835956 0.415729 -0.186101
C21   C     C_R   0.522930 0.133732 0.511123 -0.235570
C22   C     C_R   0.689763 0.163589 0.468416 -0.181576
C23   C     C_R   0.561348 0.308571 0.508838 0.855014
C24   C     C_R   0.398656 0.801165 0.475137 -0.120562
C25   C     C_R   0.099543 0.325836 0.397664 0.376565
C26   C     C_R   0.798711 0.633024 0.598803 -0.033994
C27   C     C_R   0.907179 0.650105 0.632639 -0.179445
C28   C     C_R   0.994104 0.583492 0.609062 0.329338
C29   C     C_R   0.968205 0.516203 0.537791 -0.073515
C30   C     C_R   0.857506 0.497722 0.511378 0.186035
C31   C     C_R   0.046106 0.465345 0.492196 -0.008712
C32   C     C_R   0.018952 0.381786 0.436841 0.027610
C33   C     C_R   0.911115 0.359187 0.419534 -0.187617
C34   C     C_R   0.499068 0.499835 0.338421 0.882984
C35   C     C_R   0.831312 0.419289 0.453012 -0.198975
C36   C     C_R   0.147421 0.499366 0.494311 0.031301
C37   C     C_R   0.201871 0.359391 0.409477 -0.105468
C38   C     C_3   0.379721 0.515185 0.928714 -0.342394
C39   C     C_3   0.557899 0.590492 0.962740 -0.375250
C40   C     C_3   0.556234 0.589959 0.060612 -0.393686
C41   C     C_1   0.496891 0.499807 0.249003 -0.161105
C42   C     C_3   0.500222 0.501389 0.917372 0.302253
H1    H     H_    0.331807 0.588425 0.042678 0.184351
H2    H     H_    0.336596 0.451952 0.896219 0.191268
H3    H     H_    0.334013 0.451346 0.041348 0.188198
H4    H     H_    0.645393 0.385623 0.098227 0.185800
H5    H     H_    0.747872 0.214359 0.460417 0.157784
H6    H     H_    0.702778 0.871675 0.380726 0.151977
H7    H     H_    0.775087 0.035511 0.413679 0.159973
H8    H     H_    0.457790 0.162254 0.543595 0.149703
H9    H     H_    0.243385 0.787951 0.510250 0.174998
H10   H     H_    0.316181 0.092334 0.501802 0.156783
H11   H     H_    0.190411 0.974202 0.518094 0.176083
H12   H     H_    0.334216 0.588992 0.897464 0.214926
H13   H     H_    0.567580 0.760114 0.388656 0.169421
H14   H     H_    0.266565 0.317655 0.382230 0.190728
H15   H     H_    0.885249 0.298661 0.376123 0.216727
H16   H     H_    0.168523 0.568914 0.526304 0.187217
H17   H     H_    0.731008 0.678733 0.619815 0.204427
H18   H     H_    0.749236 0.402420 0.431834 0.205200
H19   H     H_    0.644637 0.582207 0.955015 0.186833
H20   H     H_    0.515379 0.665606 0.932163 0.183071
H21   H     H_    0.513034 0.664875 0.077291 0.176853
H22   H     H_    0.642190 0.581357 0.100103 0.181835
H23   H     H_    0.521079 0.332816 0.928875 0.177184
H24   H     H_    0.647982 0.386418 0.953183 0.186278
H25   H     H_    0.518461 0.332084 0.073924 0.178726
N1    N     N_R   0.222200 0.444690 0.455710 -0.143082
N2    N     N_R   0.776960 0.554780 0.543830 -0.143941
O1    O     O_R   0.366740 0.627160 0.478850 -0.609468
O2    O     O_R   0.544830 0.662520 0.507140 -0.622787
O3    O     O_R   0.410920 0.482310 0.608710 -0.574546
O4    O     O_R   0.589010 0.517670 0.637000 -0.604729
O5    O     O_R   0.455170 0.337480 0.492860 -0.615843
O6    O     O_R   0.633260 0.372840 0.521150 -0.629779
O7    O     O_R   0.410990 0.482330 0.363000 -0.602017
O8    O     O_R   0.589080 0.517690 0.391290 -0.641234
Zn1   Zn    Zn3+2 0.381090 0.476390 0.481110 0.982071
Zn2   Zn    Zn3+2 0.618910 0.523610 0.518890 0.945312
S1    S     S_3+6 0.077179 0.213730 0.336240 -0.015193
O9    O     O_2   0.181389 0.165033 0.311481 -0.303815
O10   O     O_2   0.038584 0.137862 0.389633 -0.339057
O11   O     O_3   0.979892 0.246102 0.245191 -0.568277
H26   H     H_    0.965178 0.179850 0.217595 0.386760
S2    S     S_3+6 0.123674 0.563095 0.685720 -0.030835
O12   O     O_2   0.192166 0.644438 0.672617 -0.368895
O13   O     O_2   0.104304 0.570162 0.776771 -0.315421
O14   O     O_3   0.192425 0.445809 0.675338 -0.542585
H27   H     H_    0.261514 0.441748 0.720588 0.378022
C43   C     C_2   0.928268 0.735701 0.693763 0.497165
H28   H     H_    0.010232 0.757061 0.713564 0.135596
O15   O     O_2   0.853852 0.784693 0.721877 -0.575226

loop_
_geom_bond_atom_site_label_1
_geom_bond_atom_site_label_2
_ccdc_geom_bond_type
C5    C42   S    
O1    Zn1   S    
C25   S1    S    
C19   C20   A    
C3    C6    S    
O2    Zn2   S    
C7    C8    T    
C4    H4    S    
S2    O12   D    
C10   C22   A    
C26   C27   A    
C1    O2    A    
C40   H21   S    
C30   C35   A    
C28   C29   A    
O7    Zn1   S    
C38   C42   S    
C36   H16   S    
S1    O11   S    
C34   O8    A    
C9    C22   A    
C15   C16   A    
C37   N1    A    
C11   C24   A    
C27   C43   S    
C18   C19   A    
C7    C42   S    
O3    Zn1   S    
C25   C37   A    
C37   H14   S    
C14   H10   S    
O11   H26   S    
C6    C41   T    
C26   H17   S    
C8    C12   S    
C25   C32   A    
S2    O13   D    
C22   H5    S    
C12   O3    A    
C2    H3    S    
C13   C14   A    
C34   C41   S    
C20   H13   S    
C21   H8    S    
C39   C42   S    
C13   H11   S    
O8    Zn2   S    
C10   C21   A    
N1    Zn1   S    
C39   H19   S    
C9    H7    S    
S1    O10   D    
C39   C40   S    
C19   H6    S    
S1    O9    D    
C17   C21   A    
C35   H18   S    
C38   H2    S    
C29   C30   A    
C2    C38   S    
C43   O15   D    
C31   C32   A    
C38   H12   S    
C2    H1    S    
C16   C20   A    
C17   C18   A    
O4    Zn2   S    
C5    H23   S    
C3    C40   S    
N2    Zn2   S    
C23   O5    A    
C3    C4    S    
C27   C28   A    
C30   N2    A    
S2    O14   S    
C15   C17   A    
C39   H20   S    
C33   H15   S    
C14   C15   A    
C23   O6    A    
C5    H24   S    
C4    H25   S    
C36   N1    A    
C10   C23   S    
C1    O1    A    
C40   H22   S    
C32   C33   A    
C2    C3    S    
C29   C31   A    
C11   C13   A    
C43   H28   S    
C33   C35   A    
C11   H9    S    
C9    C18   A    
C4    C5    S    
O14   H27   S    
C1    C24   S    
C16   C24   A    
O5    Zn1   S    
C28   S2    S    
C26   N2    A    
C31   C36   A    
C12   O4    A    
O6    Zn2   S    
C34   O7    A    
