data_mof_unit_24818.cif
_audit_creation_date              2012-12-10T17:08:44-0500
_audit_creation_method            fapswitch 2.2
_symmetry_space_group_name_H-M    P1
_symmetry_Int_Tables_number       1
_space_group_crystal_system       triclinic
_cell_length_a                    15.714881
_cell_length_b                    10.644837
_cell_length_c                    10.118951
_cell_angle_alpha                 92.100175
_cell_angle_beta                  89.767237
_cell_angle_gamma                 90.811636
_cell_volume                      1691.40448265

loop_
_atom_site_label
_atom_site_type_symbol
_atom_type_description
_atom_site_fract_x
_atom_site_fract_y
_atom_site_fract_z
_atom_type_partial_charge
C1    C     C_R   0.501453 0.262468 0.497059 0.951016
C2    C     C_2   0.539919 0.865177 0.508990 0.185978
C3    C     C_2   0.549937 0.064136 0.400815 0.496176
C4    C     C_R   0.338543 0.499874 0.500200 0.871985
C5    C     C_2   0.501039 0.129033 0.487677 -0.381008
C6    C     C_2   0.566704 0.488868 0.924581 -0.035534
C7    C     C_2   0.565450 0.524270 0.068861 0.452006
C8    C     C_R   0.508844 0.737027 0.502508 0.821021
C9    C     C_R   0.661430 0.500698 0.499785 0.948960
C10   C     C_3   0.048366 0.428325 0.613926 -0.453916
C11   C     C_3   0.047646 0.432368 0.364547 0.252414
C12   C     C_3   0.950255 0.430374 0.616595 -0.372183
C13   C     C_3   0.948930 0.432540 0.367542 -0.389979
C14   C     C_1   0.750351 0.500941 0.499160 -0.010065
C15   C     C_3   0.082614 0.500187 0.493619 0.184190
C16   C     C_3   0.917163 0.500175 0.496051 0.204620
C17   C     C_3   0.952171 0.636976 0.501627 -0.359677
C18   C     C_3   0.050257 0.636906 0.506718 -0.359054
C19   C     C_1   0.825712 0.500754 0.497943 -0.029780
C20   C     C_1   0.174167 0.499956 0.497234 -0.025794
C21   C     C_1   0.249562 0.499867 0.499885 -0.074371
C22   C     C_2   0.539666 0.929659 0.397612 -0.286934
H1    H     H_    0.924682 0.332249 0.615091 0.199671
H2    H     H_    0.068463 0.332784 0.363888 0.076893
H3    H     H_    0.922596 0.479482 0.280419 0.247424
H4    H     H_    0.071703 0.681168 0.602529 0.184599
H5    H     H_    0.604403 0.777358 0.801576 0.396958
H6    H     H_    0.728542 0.057278 0.169887 0.391916
H7    H     H_    0.754276 0.721661 0.032752 0.406176
H8    H     H_    0.406117 0.245633 0.943973 0.387281
H9    H     H_    0.078149 0.318392 0.099780 0.357311
H10   H     H_    0.924426 0.333810 0.362369 0.171872
H11   H     H_    0.077301 0.695577 0.427951 0.228543
H12   H     H_    0.073460 0.471960 0.707889 0.231848
H13   H     H_    0.926963 0.689086 0.590483 0.197271
H14   H     H_    0.928204 0.478130 0.710052 0.216887
H15   H     H_    0.931123 0.687083 0.413064 0.217423
H16   H     H_    0.520701 0.886417 0.303156 0.202649
H17   H     H_    0.457246 0.081324 0.553117 0.152246
H18   H     H_    0.626198 0.461164 0.878074 0.194253
H19   H     H_    0.452899 0.554229 0.893714 0.213743
H20   H     H_    0.070102 0.329153 0.608305 0.186869
N1    N     N_2   0.500900 0.501330 0.852150 -0.184830
N2    N     N_2   0.500920 0.501360 0.147810 -0.012107
O1    O     O_R   0.499990 0.319060 0.613040 -0.579355
O2    O     O_2   0.521317 0.970321 0.753417 -0.295152
O3    O     O_3   0.641551 0.805767 0.728887 -0.493275
O4    O     O_2   0.581439 0.189381 0.180176 -0.220330
O5    O     O_2   0.679677 0.226630 0.365980 -0.314547
O6    O     O_3   0.688960 0.014856 0.230886 -0.490828
O7    O     O_2   0.639190 0.700316 0.232348 -0.279241
O8    O     O_2   0.721468 0.511737 0.171030 -0.281922
O9    O     O_3   0.702336 0.679854 0.996189 -0.560748
O10   O     O_2   0.385003 0.323354 0.205241 -0.226937
O11   O     O_2   0.349084 0.467246 0.034659 -0.291087
O12   O     O_R   0.500010 0.319100 0.386900 -0.539582
O13   O     O_3   0.457547 0.289054 0.980280 -0.511143
O14   O     O_2   0.053752 0.624800 0.193444 -0.266578
O15   O     O_2   0.182533 0.499424 0.209107 -0.232096
O16   O     O_3   0.052544 0.401174 0.084953 -0.510207
O17   O     O_R   0.377130 0.499990 0.613120 -0.616575
O18   O     O_R   0.377160 0.500030 0.386980 -0.542872
O19   O     O_R   0.499990 0.680900 0.613100 -0.599926
O20   O     O_R   0.500010 0.680940 0.386960 -0.614615
O21   O     O_R   0.622840 0.499970 0.613020 -0.630447
O22   O     O_R   0.622870 0.500010 0.386880 -0.532949
O23   O     O_2   0.651184 0.027750 0.634093 -0.219829
S1    S     S_3+6 0.588817 0.922838 0.659178 0.074274
S2    S     S_3+6 0.626043 0.129572 0.292353 0.100803
S3    S     S_3+6 0.658541 0.605050 0.123826 0.042282
S4    S     S_3+6 0.420777 0.395640 0.092897 0.128761
S5    S     S_3+6 0.086930 0.494891 0.211630 0.041169
Zn1   Zn    Zn3+2 0.499980 0.499970 0.650990 1.033593
Zn2   Zn    Zn3+2 0.500020 0.500030 0.349010 1.174390

loop_
_geom_bond_atom_site_label_1
_geom_bond_atom_site_label_2
_ccdc_geom_bond_type
H9    O16   S    
N1    Zn1   S    
C15   C18   S    
C2    C8    S    
C9    C14   S    
C4    O17   A    
O2    S1    D    
C6    C7    S    
O7    S3    D    
C10   H20   S    
H19   N1    S    
O4    S2    D    
C13   H10   S    
C18   H4    S    
O15   S5    D    
C10   C15   S    
C13   H3    S    
H6    O6    S    
C7    S3    S    
C5    H17   S    
C17   C18   S    
O21   Zn1   S    
C10   H12   S    
O5    S2    D    
C2    C22   D    
O13   S4    S    
N2    Zn2   S    
C4    C21   S    
C11   C13   S    
C12   H1    S    
C1    O1    A    
O3    S1    S    
H7    O9    S    
C8    O20   A    
C16   C19   S    
C1    C5    S    
O9    S3    S    
C10   C12   S    
C17   H13   S    
C3    S2    S    
O6    S2    S    
C12   H14   S    
C1    O12   A    
C2    S1    S    
C6    N1    D    
O14   S5    D    
C15   C20   S    
C18   H11   S    
C9    O21   A    
O12   Zn2   S    
O16   S5    S    
C8    O19   A    
O23   S1    D    
C22   H16   S    
H8    O13   S    
C4    O18   A    
C11   H2    S    
C6    H18   S    
O8    S3    D    
C20   C21   T    
N2    S4    S    
O1    Zn1   S    
C13   C16   S    
H5    O3    S    
O20   Zn2   S    
C9    O22   A    
O18   Zn2   S    
C3    C22   S    
C17   H15   S    
O19   Zn1   S    
O17   Zn1   S    
C11   S5    S    
C11   C15   S    
C14   C19   T    
C7    N2    D    
O11   S4    D    
O10   S4    D    
C12   C16   S    
C16   C17   S    
C3    C5    D    
O22   Zn2   S    
