data_mof_unit_34333.cif
_audit_creation_date              2013-03-05T15:41:02-0500
_audit_creation_method            fapswitch 2.2
_symmetry_space_group_name_H-M    P1
_symmetry_Int_Tables_number       1
_space_group_crystal_system       triclinic
_cell_length_a                    28.033231
_cell_length_b                    18.436408
_cell_length_c                    16.920493
_cell_angle_alpha                 89.986704
_cell_angle_beta                  61.477033
_cell_angle_gamma                 90.504515
_cell_volume                      7683.2336951

loop_
_atom_site_label
_atom_site_type_symbol
_atom_site_description
_atom_site_fract_x
_atom_site_fract_y
_atom_site_fract_z
_atom_type_partial_charge
O1    O     O_R   0.746490 0.236330 0.638080 -0.648212
O2    O     O_R   0.253510 0.763670 0.361920 -0.654123
O3    O     O_R   0.253510 0.236330 0.361920 -0.636531
O4    O     O_R   0.746490 0.763670 0.638080 -0.618537
O5    O     O_R   0.246490 0.736330 0.638080 -0.632879
O6    O     O_R   0.753510 0.263670 0.361920 -0.646866
O7    O     O_R   0.753510 0.736330 0.361920 -0.593109
O8    O     O_R   0.246490 0.263670 0.638080 -0.593996
O9    O     O_R   0.674170 0.186160 0.516270 -0.604402
O10   O     O_R   0.325830 0.813840 0.483730 -0.613484
O11   O     O_R   0.325830 0.186160 0.483730 -0.590627
O12   O     O_R   0.674170 0.813840 0.516270 -0.593595
O13   O     O_R   0.174170 0.686160 0.516270 -0.603145
O14   O     O_R   0.825830 0.313840 0.483730 -0.608082
O15   O     O_R   0.825830 0.686160 0.483730 -0.633773
O16   O     O_R   0.174170 0.313840 0.516270 -0.640290
O17   O     O_R   0.739960 0.127620 0.525000 -0.573832
O18   O     O_R   0.260040 0.872380 0.475000 -0.580922
O19   O     O_R   0.260040 0.127620 0.475000 -0.570052
O20   O     O_R   0.739960 0.872380 0.525000 -0.585360
O21   O     O_R   0.239960 0.627620 0.525000 -0.562551
O22   O     O_R   0.760040 0.372380 0.475000 -0.571403
O23   O     O_R   0.760040 0.627620 0.475000 -0.575233
O24   O     O_R   0.239960 0.372380 0.525000 -0.582317
O25   O     O_R   0.680700 0.294870 0.629350 -0.538827
O26   O     O_R   0.319300 0.705130 0.370650 -0.534859
O27   O     O_R   0.319300 0.294870 0.370650 -0.561348
O28   O     O_R   0.680700 0.705130 0.629350 -0.558943
O29   O     O_R   0.180700 0.794870 0.629350 -0.532584
O30   O     O_R   0.819300 0.205130 0.370650 -0.537365
O31   O     O_R   0.819300 0.794870 0.370650 -0.568121
O32   O     O_R   0.180700 0.205130 0.629350 -0.553857
C1    C     C_R   0.699743 0.263370 0.677294 0.900006
C2    C     C_R   0.299881 0.735369 0.322672 0.897489
C3    C     C_R   0.296025 0.273709 0.324597 0.899954
C4    C     C_R   0.700011 0.735776 0.677380 0.949653
C5    C     C_R   0.204986 0.775456 0.674184 0.910227
C6    C     C_R   0.800298 0.236747 0.322721 0.888170
C7    C     C_R   0.799885 0.764402 0.322618 0.939424
C8    C     C_R   0.199591 0.237319 0.677061 0.947067
C9    C     C_R   0.690422 0.129946 0.538577 0.909760
C10   C     C_R   0.309537 0.870066 0.461581 0.893228
C11   C     C_R   0.303700 0.127147 0.480980 0.969442
C12   C     C_R   0.696231 0.872852 0.519252 0.948941
C13   C     C_R   0.190305 0.629843 0.538837 0.918956
C14   C     C_R   0.809698 0.369997 0.461625 0.901107
C15   C     C_R   0.805212 0.627425 0.476122 0.944622
C16   C     C_R   0.191344 0.370829 0.535482 0.872661
Zn1   Zn    Zn3+2 0.792340 0.208750 0.507670 1.180348
Zn2   Zn    Zn3+2 0.207660 0.791250 0.492330 1.176783
Zn3   Zn    Zn3+2 0.207660 0.208750 0.492330 1.170498
Zn4   Zn    Zn3+2 0.792340 0.791250 0.507670 1.156051
Zn5   Zn    Zn3+2 0.292340 0.708750 0.507670 1.196759
Zn6   Zn    Zn3+2 0.707660 0.291250 0.492330 1.180154
Zn7   Zn    Zn3+2 0.707660 0.708750 0.492330 1.204743
Zn8   Zn    Zn3+2 0.292340 0.291250 0.507670 1.193375
H1    H     H_    0.056299 0.256907 0.474882 0.220473
H2    H     H_    0.911698 0.728855 0.618678 0.205486
H3    H     H_    0.995290 0.260410 0.412832 0.231890
H4    H     H_    0.990305 0.733946 0.637681 0.211120
H5    H     H_    0.608003 0.812343 0.308795 0.198821
H6    H     H_    0.391410 0.187182 0.692864 0.199183
H7    H     H_    0.525763 0.803812 0.302461 0.201264
H8    H     H_    0.473552 0.195475 0.699604 0.202307
C17   C     C_R   0.515186 0.110606 0.602094 -0.000976
C18   C     C_R   0.484315 0.889016 0.399556 0.006147
C19   C     C_R   0.417751 0.103211 0.589445 0.000911
C20   C     C_R   0.581739 0.896562 0.411938 0.000792
C21   C     C_R   0.018857 0.625198 0.587570 -0.014153
C22   C     C_R   0.968878 0.371888 0.452809 -0.038241
C23   C     C_R   0.921992 0.617253 0.571735 -0.000412
C24   C     C_R   0.044769 0.368836 0.518277 -0.038134
C25   C     C_R   0.471585 0.156428 0.653536 -0.132008
C26   C     C_R   0.527819 0.843026 0.348301 -0.130514
C27   C     C_R   0.423491 0.151793 0.648827 -0.134138
C28   C     C_R   0.575942 0.847786 0.352800 -0.134698
C29   C     C_R   0.982972 0.684128 0.611713 -0.144589
C30   C     C_R   0.999455 0.309179 0.444126 -0.071036
C31   C     C_R   0.935721 0.680318 0.603592 -0.125031
C32   C     C_R   0.034819 0.306705 0.480495 -0.086331
C33   C     C_R   0.459480 0.052781 0.542966 0.027476
C34   C     C_R   0.540026 0.946974 0.458481 0.030506
C35   C     C_R   0.507730 0.055728 0.550471 0.033555
C36   C     C_R   0.491780 0.943994 0.451037 0.040224
C37   C     C_R   0.958761 0.559208 0.543081 0.023220
C38   C     C_R   0.020198 0.434175 0.516436 0.030702
C39   C     C_R   0.005308 0.561802 0.555554 0.028241
C40   C     C_R   0.978886 0.434310 0.491480 0.030051
C41   C     C_R   0.947515 0.496717 0.506348 -0.020438
C42   C     C_R   0.035503 0.498723 0.543252 -0.024404
C43   C     C_R   0.451891 0.997290 0.492609 -0.015228
C44   C     C_R   0.547655 0.002494 0.508757 -0.017307
C45   C     C_R   0.893230 0.434515 0.448363 -0.061928
C46   C     C_R   0.101543 0.565325 0.571980 -0.060111
C47   C     C_R   0.106269 0.433527 0.557368 -0.053244
C48   C     C_R   0.869282 0.556239 0.510073 -0.062445
C49   C     C_R   0.394484 0.936778 0.439449 -0.071067
C50   C     C_R   0.605247 0.063110 0.561490 -0.070987
C51   C     C_R   0.631983 0.946453 0.486159 -0.065040
C52   C     C_R   0.367724 0.053510 0.514675 -0.069204
C53   C     C_R   0.845135 0.434379 0.439335 -0.140524
C54   C     C_R   0.154088 0.565337 0.567269 -0.173657
C55   C     C_R   0.156345 0.434898 0.560359 -0.180069
C56   C     C_R   0.832287 0.560233 0.474360 -0.183130
C57   C     C_R   0.344134 0.935164 0.438597 -0.133750
C58   C     C_R   0.655748 0.064825 0.561922 -0.138619
C59   C     C_R   0.669897 0.940494 0.520293 -0.198119
C60   C     C_R   0.329953 0.059494 0.480218 -0.209533
C61   C     C_R   0.822885 0.499490 0.434157 0.219734
C62   C     C_R   0.176450 0.500117 0.574924 0.223077
C63   C     C_R   0.320071 0.999780 0.438775 0.216023
C64   C     C_R   0.679849 0.000202 0.561659 0.218483
C65   C     C_R   0.904066 0.496265 0.486734 -0.010651
C66   C     C_R   0.081414 0.499461 0.556902 -0.007945
C67   C     C_R   0.404960 0.995972 0.482044 -0.015339
C68   C     C_R   0.594701 0.003917 0.519003 -0.013916
C69   C     C_R   0.078370 0.368177 0.558838 0.263933
C70   C     C_R   0.872346 0.609251 0.568872 0.284121
C71   C     C_R   0.929073 0.374457 0.423771 0.282512
C72   C     C_R   0.066765 0.626937 0.597077 0.277854
C73   C     C_R   0.628509 0.897312 0.423925 0.301551
C74   C     C_R   0.371054 0.102612 0.577121 0.300284
C75   C     C_R   0.434817 0.883529 0.396535 0.291956
C76   C     C_R   0.564782 0.116107 0.604968 0.284940
C77   C     C_R   0.723235 0.268754 0.949727 0.012384
C78   C     C_R   0.292027 0.761245 0.034690 0.009316
C79   C     C_R   0.276887 0.281437 0.045676 0.005493
C80   C     C_R   0.716658 0.741733 0.957753 0.011140
C81   C     C_R   0.231308 0.793458 0.944746 0.009244
C82   C     C_R   0.777256 0.232121 0.049851 0.012292
C83   C     C_R   0.781658 0.761151 0.043487 0.006252
C84   C     C_R   0.219530 0.245543 0.952307 0.001674
C85   C     C_R   0.757750 0.207644 0.923883 -0.065390
C86   C     C_R   0.242909 0.799982 0.079670 -0.070058
C87   C     C_R   0.225441 0.248232 0.091365 -0.068399
C88   C     C_R   0.764663 0.784245 0.915195 -0.058457
C89   C     C_R   0.286171 0.772156 0.894307 -0.057773
C90   C     C_R   0.742836 0.293355 0.075602 -0.066077
C91   C     C_R   0.733529 0.718851 0.086162 -0.076352
C92   C     C_R   0.264359 0.293685 0.912340 -0.079671
C93   C     C_R   0.781796 0.186864 0.978476 0.076725
C94   C     C_R   0.209101 0.805895 0.038192 0.086298
C95   C     C_R   0.203254 0.218056 0.039306 0.089366
C96   C     C_R   0.799177 0.788996 0.955613 0.086362
C97   C     C_R   0.313545 0.746362 0.941807 0.084206
C98   C     C_R   0.718725 0.314084 0.021039 0.075095
C99   C     C_R   0.699045 0.714083 0.045710 0.084761
C100  C     C_R   0.298248 0.300336 0.953707 0.092203
C101  C     C_R   0.659772 0.346970 0.927409 0.027540
C102  C     C_R   0.365679 0.692764 0.041073 0.037060
C103  C     C_R   0.361090 0.319307 0.043901 0.035978
C104  C     C_R   0.636488 0.687721 0.956396 0.028687
C105  C     C_R   0.144268 0.825233 0.951151 0.034825
C106  C     C_R   0.840476 0.153546 0.072393 0.031038
C107  C     C_R   0.862418 0.813874 0.044189 0.030511
C108  C     C_R   0.153065 0.166154 0.939026 0.049151
C109  C     C_R   0.623316 0.355370 0.891220 -0.240945
C110  C     C_R   0.389806 0.664642 0.093184 -0.238966
C111  C     C_R   0.389343 0.337416 0.092516 -0.222403
C112  C     C_R   0.609854 0.664611 0.906510 -0.217736
C113  C     C_R   0.114515 0.842185 0.904488 -0.220056
C114  C     C_R   0.876822 0.144884 0.108765 -0.243277
C115  C     C_R   0.889567 0.836038 0.093677 -0.215832
C116  C     C_R   0.120655 0.150503 0.896098 -0.226526
C117  C     C_R   0.629706 0.313765 0.818067 0.233903
C118  C     C_R   0.373624 0.690823 0.179476 0.229877
C119  C     C_R   0.370790 0.312621 0.179524 0.218261
C120  C     C_R   0.625909 0.692199 0.820818 0.223294
C121  C     C_R   0.132022 0.817520 0.818171 0.227460
C122  C     C_R   0.870354 0.186359 0.182091 0.220021
C123  C     C_R   0.873705 0.808039 0.179077 0.227016
C124  C     C_R   0.129287 0.188357 0.819004 0.205095
C125  C     C_R   0.674937 0.270260 0.775987 -0.180608
C126  C     C_R   0.326040 0.730878 0.223333 -0.187330
C127  C     C_R   0.316654 0.290613 0.229177 -0.207830
C128  C     C_R   0.674765 0.730262 0.776323 -0.190373
C129  C     C_R   0.186037 0.796322 0.767546 -0.206513
C130  C     C_R   0.825196 0.229992 0.224012 -0.185761
C131  C     C_R   0.824697 0.770428 0.223791 -0.186202
C132  C     C_R   0.175396 0.231170 0.775190 -0.172432
C133  C     C_R   0.701678 0.246988 0.825766 -0.025605
C134  C     C_R   0.300910 0.759222 0.172934 -0.030349
C135  C     C_R   0.283372 0.283869 0.185679 -0.019728
C136  C     C_R   0.702368 0.753911 0.825213 0.018116
C137  C     C_R   0.221209 0.794963 0.807782 -0.025585
C138  C     C_R   0.798632 0.253522 0.174064 -0.022209
C139  C     C_R   0.796493 0.747844 0.175405 0.006871
C140  C     C_R   0.203199 0.256225 0.822763 0.007352
C141  C     C_R   0.694406 0.286747 0.901780 0.076389
C142  C     C_R   0.319609 0.737668 0.082917 0.074457
C143  C     C_R   0.307323 0.294100 0.091651 0.072080
C144  C     C_R   0.685271 0.727659 0.912921 0.072389
C145  C     C_R   0.198780 0.803626 0.901420 0.076543
C146  C     C_R   0.805960 0.213905 0.097941 0.078769
C147  C     C_R   0.813380 0.774517 0.087941 0.069033
C148  C     C_R   0.191393 0.223409 0.905184 0.083634
C149  C     C_R   0.664349 0.397601 0.985582 -0.128271
C150  C     C_R   0.386764 0.679941 0.947894 -0.117278
C151  C     C_R   0.384700 0.326170 0.949289 -0.113428
C152  C     C_R   0.614418 0.676434 0.049899 -0.123299
C153  C     C_R   0.121378 0.828946 0.045460 -0.123808
C154  C     C_R   0.835885 0.103030 0.014129 -0.130109
C155  C     C_R   0.884208 0.825483 0.950774 -0.126121
C156  C     C_R   0.148756 0.127863 0.015017 -0.127757
C157  C     C_R   0.694316 0.382190 0.029381 -0.094415
C158  C     C_R   0.360608 0.704141 0.900556 -0.097682
C159  C     C_R   0.353494 0.319165 0.905498 -0.131998
C160  C     C_R   0.645091 0.688995 0.093350 -0.134525
C161  C     C_R   0.153078 0.819570 0.087927 -0.124661
C162  C     C_R   0.806087 0.118681 0.970131 -0.096131
C163  C     C_R   0.853184 0.813813 0.907762 -0.116209
C164  C     C_R   0.170312 0.156092 0.067262 -0.086840
C165  C     C_R   0.737021 0.187844 0.799780 -0.160025
C166  C     C_R   0.260437 0.813038 0.206757 -0.163517
C167  C     C_R   0.226958 0.268269 0.231875 -0.202171
C168  C     C_R   0.743369 0.807818 0.793153 -0.108523
C169  C     C_R   0.278216 0.789014 0.757696 -0.190437
C170  C     C_R   0.763444 0.312822 0.199950 -0.159381
C171  C     C_R   0.755165 0.694395 0.207578 -0.101176
C172  C     C_R   0.241266 0.314161 0.792117 -0.111264
C173  C     C_R   0.767799 0.171343 0.842692 0.255129
C174  C     C_R   0.230728 0.832455 0.162990 0.260512
C175  C     C_R   0.198676 0.246723 0.186362 0.288701
C176  C     C_R   0.773833 0.824051 0.836964 0.274314
C177  C     C_R   0.310792 0.778452 0.799057 0.278241
C178  C     C_R   0.732894 0.329708 0.156737 0.256734
C179  C     C_R   0.724376 0.678829 0.164209 0.260526
C180  C     C_R   0.272833 0.331910 0.833817 0.277570
H9    H     H_    0.646828 0.450970 0.995316 0.182160
H10   H     H_    0.425029 0.653899 0.907548 0.203917
H11   H     H_    0.427764 0.335864 0.907684 0.200555
H12   H     H_    0.572549 0.660559 0.091910 0.205225
H13   H     H_    0.078295 0.836548 0.087966 0.196929
H14   H     H_    0.853245 0.049565 0.004474 0.179266
H15   H     H_    0.926168 0.840750 0.908371 0.202667
H16   H     H_    0.130154 0.075198 0.035989 0.190645
H17   H     H_    0.699049 0.425516 0.067905 0.213430
H18   H     H_    0.377308 0.687195 0.831396 0.194826
H19   H     H_    0.373662 0.325044 0.833076 0.177954
H20   H     H_    0.625264 0.680882 0.165359 0.182175
H21   H     H_    0.132734 0.820812 0.160620 0.181063
H22   H     H_    0.801378 0.075495 0.931412 0.212996
H23   H     H_    0.872868 0.822114 0.835794 0.182681
H24   H     H_    0.163890 0.126438 0.126875 0.196714
H25   H     H_    0.742288 0.154189 0.743994 0.224953
H26   H     H_    0.253905 0.845369 0.264095 0.230989
H27   H     H_    0.202740 0.275381 0.303369 0.197902
H28   H     H_    0.749327 0.842811 0.737959 0.208112
H29   H     H_    0.298923 0.797954 0.685890 0.200011
H30   H     H_    0.758135 0.346320 0.255891 0.224763
H31   H     H_    0.749367 0.658825 0.262194 0.212231
H32   H     H_    0.245172 0.348949 0.737883 0.209912
O33   O     O_R   0.062020 0.072840 0.007170 -0.634693
O34   O     O_R   0.937980 0.927160 0.992830 -0.654115
O35   O     O_R   0.937980 0.072840 0.992830 -0.612865
O36   O     O_R   0.062020 0.927160 0.007170 -0.651955
O37   O     O_R   0.562020 0.572840 0.007170 -0.651002
O38   O     O_R   0.437980 0.427160 0.992830 -0.633525
O39   O     O_R   0.437980 0.572840 0.992830 -0.642470
O40   O     O_R   0.562020 0.427160 0.007170 -0.621550
O41   O     O_R   0.947860 0.073950 0.109290 -0.549847
O42   O     O_R   0.052140 0.926050 0.890710 -0.558303
O43   O     O_R   0.052140 0.073950 0.890710 -0.544742
O44   O     O_R   0.947860 0.926050 0.109290 -0.558473
O45   O     O_R   0.447860 0.573950 0.109290 -0.548875
O46   O     O_R   0.552140 0.426050 0.890710 -0.562016
O47   O     O_R   0.552140 0.573950 0.890710 -0.557974
O48   O     O_R   0.447860 0.426050 0.109290 -0.544805
C181  C     C_R   0.076862 0.096943 0.931708 0.953624
C182  C     C_R   0.929124 0.895799 0.062505 0.903367
C183  C     C_R   0.921982 0.094565 0.069959 0.951372
C184  C     C_R   0.071694 0.896776 0.937194 0.908293
C185  C     C_R   0.570653 0.604401 0.937644 0.903908
C186  C     C_R   0.430495 0.394699 0.060993 0.940611
C187  C     C_R   0.428392 0.603607 0.063024 0.915267
C188  C     C_R   0.578108 0.405599 0.929981 0.936044
Zn9   Zn    Zn3+2 0.505960 0.500000 0.080520 1.140485
Zn10  Zn    Zn3+2 0.494040 0.500000 0.919480 1.114483
Zn11  Zn    Zn3+2 0.005960 0.000000 0.080520 1.126037
Zn12  Zn    Zn3+2 0.994040 0.000000 0.919480 1.144989
N1    N     N_R   0.791762 0.502778 0.386838 0.209718
O49   O     O_R   0.738924 0.502806 0.431045 -0.305671
O50   O     O_R   0.815696 0.489313 0.301051 -0.362858
N2    N     N_R   0.216215 0.500135 0.605863 0.224784
O51   O     O_R   0.267964 0.499363 0.549135 -0.316149
O52   O     O_R   0.200485 0.510032 0.690841 -0.338245
N3    N     N_R   0.287719 0.003825 0.393570 0.224930
O53   O     O_R   0.234922 0.002518 0.439653 -0.307428
O54   O     O_R   0.310682 0.992165 0.307416 -0.346250
N4    N     N_R   0.712227 0.996085 0.606812 0.218005
O55   O     O_R   0.765023 0.997504 0.560754 -0.306612
O56   O     O_R   0.689224 0.007082 0.693104 -0.358952
N5    N     N_R   0.071801 0.311323 0.622492 0.246099
O57   O     O_R   0.048182 0.249889 0.623991 -0.320467
O58   O     O_R   0.081897 0.325380 0.688476 -0.339640
N6    N     N_R   0.822328 0.638793 0.639577 0.218742
O59   O     O_R   0.822680 0.688567 0.693663 -0.422935
O60   O     O_R   0.776701 0.604391 0.663092 -0.414029
N7    N     N_R   0.929499 0.322419 0.359974 0.220496
O61   O     O_R   0.924388 0.253310 0.378111 -0.327874
O62   O     O_R   0.927686 0.345085 0.288638 -0.329009
N8    N     N_R   0.074366 0.684102 0.647783 0.216960
O63   O     O_R   0.085478 0.667751 0.711984 -0.341398
O64   O     O_R   0.077397 0.751506 0.622805 -0.338231
N9    N     N_R   0.674347 0.854354 0.366121 0.188795
O65   O     O_R   0.721882 0.884769 0.319977 -0.433836
O66   O     O_R   0.668638 0.784906 0.359509 -0.390155
N10   N     N_R   0.325075 0.145451 0.634898 0.190132
O67   O     O_R   0.330665 0.214789 0.642538 -0.392052
O68   O     O_R   0.277488 0.114970 0.680167 -0.435123
N11   N     N_R   0.427876 0.828318 0.342965 0.202884
O69   O     O_R   0.430892 0.760219 0.360188 -0.316071
O70   O     O_R   0.414922 0.845827 0.281179 -0.367778
N12   N     N_R   0.571661 0.170739 0.659247 0.203533
O71   O     O_R   0.585412 0.152555 0.719879 -0.359667
O72   O     O_R   0.567834 0.239011 0.643815 -0.327381
N13   N     N_R   0.589724 0.313974 0.787784 0.255252
O73   O     O_R   0.591657 0.363541 0.731445 -0.304344
O74   O     O_R   0.544959 0.277042 0.833126 -0.338035
N14   N     N_R   0.407902 0.680049 0.220200 0.257781
O75   O     O_R   0.399201 0.624912 0.273742 -0.313193
O76   O     O_R   0.455371 0.711658 0.183941 -0.341452
N15   N     N_R   0.408011 0.308329 0.215510 0.224071
O77   O     O_R   0.409824 0.359587 0.266992 -0.316235
O78   O     O_R   0.446941 0.261240 0.182349 -0.347942
N16   N     N_R   0.590425 0.685932 0.781563 0.216457
O79   O     O_R   0.594007 0.631124 0.730504 -0.316980
O80   O     O_R   0.550608 0.731153 0.805156 -0.367965
N17   N     N_R   0.094238 0.815895 0.782993 0.258854
O81   O     O_R   0.096628 0.866800 0.727753 -0.303899
O82   O     O_R   0.048577 0.780690 0.828084 -0.342037
N18   N     N_R   0.910082 0.185850 0.212933 0.251554
O83   O     O_R   0.908270 0.135777 0.268632 -0.296275
O84   O     O_R   0.954180 0.224528 0.169917 -0.284067
N19   N     N_R   0.909520 0.813398 0.217781 0.215141
O85   O     O_R   0.906525 0.867876 0.268909 -0.323932
O86   O     O_R   0.948800 0.767294 0.194195 -0.387455
N20   N     N_R   0.089469 0.187242 0.788215 0.245328
O87   O     O_R   0.091228 0.137830 0.731916 -0.291045
O88   O     O_R   0.045139 0.224083 0.832350 -0.291655
N21   N     N_R   0.814255 0.126055 0.794286 0.198677
O89   O     O_R   0.862029 0.148892 0.778799 -0.327672
O90   O     O_R   0.810826 0.069504 0.751184 -0.279108
N22   N     N_R   0.194175 0.892568 0.197915 0.204979
O91   O     O_R   0.195185 0.943696 0.144046 -0.370029
O92   O     O_R   0.165702 0.901857 0.284372 -0.343576
N23   N     N_R   0.141461 0.231586 0.237881 0.190157
O93   O     O_R   0.107668 0.259087 0.213918 -0.349466
O94   O     O_R   0.122435 0.196958 0.314119 -0.391233
N24   N     N_R   0.808067 0.887586 0.807878 0.202735
O95   O     O_R   0.804451 0.936051 0.866351 -0.378112
O96   O     O_R   0.836689 0.902405 0.722515 -0.320751
N25   N     N_R   0.368681 0.785039 0.744077 0.191276
O97   O     O_R   0.396771 0.824813 0.770874 -0.349579
O98   O     O_R   0.392139 0.760956 0.661926 -0.358003
N26   N     N_R   0.686764 0.375575 0.204794 0.198612
O99   O     O_R   0.690715 0.432486 0.246874 -0.278978
O100  O     O_R   0.638780 0.353057 0.221034 -0.337598
N27   N     N_R   0.690068 0.615352 0.193159 0.206991
O101  O     O_R   0.661389 0.600490 0.278500 -0.303194
O102  O     O_R   0.693852 0.566833 0.134629 -0.370026
N28   N     N_R   0.307808 0.394678 0.802001 0.201758
O103  O     O_R   0.307158 0.442774 0.858799 -0.361379
O104  O     O_R   0.333907 0.409535 0.716367 -0.327558

loop_
_geom_bond_atom_site_label_1
_geom_bond_atom_site_label_2
_geom_bond_distance
_ccdc_geom_bond_type
O4    C4    1.250977 A    
C167  H27   1.076478 S    
O5    C5    1.258342 A    
C150  C158  1.394532 A    
C59   C64   1.400322 A    
O7    Zn7   2.014704 S    
O31   Zn4   2.067963 S    
C123  C131  1.389611 A    
O8    Zn8   2.014704 S    
O46   Zn10  2.007670 S    
C110  C118  1.393667 A    
C120  N16   1.439809 S    
C122  C130  1.383282 A    
N2    O51   1.302536 A    
C77   C98   1.423725 A    
C38   C40   1.409467 A    
C104  C152  1.411367 A    
C153  C161  1.395836 A    
C90   C178  1.431731 A    
C82   C93   1.423540 A    
C151  H11   1.081399 S    
C166  C174  1.401543 A    
C33   C35   1.418232 A    
C8    C132  1.467243 S    
C122  N18   1.438043 S    
N10   O68   1.301112 A    
C179  N27   1.436846 S    
N3    O54   1.300804 A    
N16   O79   1.302633 A    
C36   C43   1.406822 A    
C49   C67   1.411921 A    
C124  N20   1.439702 S    
C51   C73   1.426887 A    
C49   C57   1.418465 A    
O2    C2    1.261257 A    
C152  C160  1.390612 A    
C170  H30   1.080212 S    
C52   C67   1.410369 A    
O6    Zn6   2.020667 S    
N25   O98   1.301624 A    
C105  C153  1.409178 A    
C29   C31   1.396627 A    
C135  C167  1.416366 A    
C41   C65   1.407001 A    
C118  C126  1.395585 A    
C92   C180  1.419006 A    
C115  C182  1.463364 S    
N15   O77   1.302411 A    
C134  C142  1.412118 A    
C162  H22   1.077756 S    
C38   C42   1.408313 A    
C45   C53   1.427512 A    
C51   C68   1.410195 A    
N19   O86   1.300464 A    
C81   C94   1.415203 A    
O27   C3    1.290878 A    
N12   O71   1.301267 A    
C173  N21   1.436937 S    
O48   Zn9   1.987941 S    
C69   N5    1.448902 S    
C168  C176  1.403073 A    
C2    C126  1.481172 S    
C154  H14   1.080627 S    
C61   N1    1.440155 S    
C24   C38   1.400559 A    
C156  C164  1.386494 A    
C158  H18   1.079698 S    
C44   C68   1.409911 A    
H2    C31   1.079802 S    
N6    O59   1.299437 A    
O30   Zn1   2.068427 S    
C34   C36   1.417557 A    
C172  H32   1.080744 S    
H6    C27   1.077166 S    
O24   Zn8   2.026586 S    
O17   Zn1   2.007309 S    
C82   C90   1.418911 A    
C106  C114  1.429690 A    
C127  C135  1.442727 A    
C128  C136  1.441772 A    
O47   C185  1.266450 A    
C73   N9    1.432857 S    
C15   C56   1.451375 S    
O9    C9    1.263511 A    
C83   C147  1.432603 A    
C20   C73   1.419136 A    
C80   C99   1.418480 A    
O23   Zn7   2.026586 S    
H7    C26   1.081598 S    
C168  H28   1.079435 S    
C87   C175  1.412549 A    
C101  C141  1.407319 A    
C50   C58   1.419276 A    
C60   C63   1.400370 A    
C3    C127  1.463979 S    
C156  H16   1.074605 S    
O13   C13   1.265480 A    
O40   Zn9   1.997179 S    
C105  C113  1.431831 A    
C111  C119  1.382443 A    
C11   C60   1.450731 S    
C112  C120  1.391409 A    
N24   O95   1.301453 A    
C13   C54   1.479375 S    
N19   O85   1.302607 A    
C130  C138  1.436496 A    
C81   C89   1.416077 A    
C40   C41   1.402556 A    
C46   C54   1.436644 A    
C104  C144  1.405236 A    
O48   C186  1.270461 A    
N27   O101  1.301471 A    
O7    C7    1.250024 A    
O9    Zn6   2.098510 S    
C152  H12   1.079661 S    
C80   C144  1.431946 A    
C53   C61   1.379487 A    
C170  C178  1.402715 A    
C96   C163  1.404997 A    
O11   Zn8   2.113892 S    
C103  C111  1.425861 A    
C116  C181  1.455062 S    
O37   Zn9   1.978090 S    
O38   C186  1.224234 A    
C21   C29   1.409337 A    
O16   Zn3   2.113892 S    
C126  C134  1.441035 A    
C109  C188  1.456344 S    
C23   C31   1.407503 A    
C129  C137  1.441477 A    
C110  C187  1.480278 S    
O22   Zn6   2.007309 S    
C47   C69   1.424323 A    
C42   C66   1.411935 A    
C50   C76   1.416172 A    
C138  C170  1.402415 A    
O30   C6    1.303483 A    
C26   C28   1.389025 A    
C55   C62   1.394636 A    
C70   N6    1.451096 S    
O18   C10   1.295705 A    
C30   C32   1.395339 A    
C62   N2    1.440161 S    
N28   O103  1.301590 A    
O43   Zn12  1.987940 S    
C18   C26   1.402449 A    
C17   C76   1.416942 A    
C78   C142  1.435635 A    
C89   C177  1.422493 A    
O2    Zn2   2.020667 S    
C100  C159  1.402980 A    
C46   C72   1.430175 A    
N9    O66   1.300399 A    
H8    C25   1.081422 S    
O6    C6    1.259925 A    
O33   Zn11  1.978090 S    
C113  C121  1.378589 A    
C87   C95   1.410544 A    
C74   N10   1.433772 S    
N17   O82   1.301658 A    
H1    C32   1.081515 S    
C155  C163  1.390569 A    
C169  H29   1.079357 S    
C98   C157  1.409865 A    
C107  C155  1.411649 A    
H3    C30   1.076967 S    
C121  C129  1.396841 A    
O20   C12   1.275291 A    
C78   C97   1.416641 A    
C47   C55   1.428648 A    
O21   C13   1.297663 A    
N21   O90   1.301418 A    
C113  C184  1.465372 S    
C14   C53   1.469435 S    
N8    O64   1.301434 A    
C114  C183  1.456570 S    
C52   C60   1.436937 A    
O23   C15   1.275532 A    
O24   C16   1.287678 A    
N18   O83   1.302355 A    
N27   O102  1.301518 A    
C109  C117  1.394150 A    
C107  C115  1.432013 A    
C16   C55   1.470133 S    
C79   C143  1.420585 A    
N15   O78   1.300625 A    
N14   O76   1.301243 A    
N5    O57   1.301000 A    
H5    C28   1.077319 S    
C88   C176  1.424116 A    
O3    C3    1.249279 A    
N26   O100  1.301667 A    
C165  H25   1.080089 S    
C78   C86   1.414914 A    
C165  C173  1.402492 A    
C19   C33   1.411476 A    
N20   O88   1.300836 A    
N11   O70   1.301348 A    
C116  C124  1.393699 A    
C19   C27   1.410673 A    
C119  C127  1.394616 A    
C12   C59   1.450605 S    
C120  C128  1.390368 A    
O44   C182  1.267179 A    
C138  C146  1.408944 A    
C71   N7    1.440198 S    
C7    C131  1.476543 S    
C95   C164  1.394845 A    
C149  H9    1.080662 S    
C20   C28   1.410498 A    
C5    C129  1.458816 S    
O47   Zn10  1.987940 S    
C20   C34   1.411178 A    
N2    O52   1.300465 A    
C49   C75   1.416065 A    
C90   C98   1.433758 A    
C99   C160  1.405177 A    
O41   C183  1.256748 A    
O12   Zn7   2.113892 S    
C83   C91   1.414481 A    
C180  N28   1.437332 S    
O42   C184  1.275613 A    
O13   Zn2   2.098510 S    
O40   C188  1.228041 A    
O43   C181  1.263054 A    
C105  C145  1.408843 A    
N22   O91   1.301780 A    
C18   C75   1.415446 A    
O12   C12   1.259626 A    
C75   N11   1.435616 S    
C45   C71   1.424529 A    
C94   C161  1.408232 A    
O25   C1    1.303524 A    
N16   O80   1.300511 A    
C177  N25   1.438204 S    
C19   C74   1.420451 A    
O35   Zn12  1.997177 S    
O10   C10   1.263040 A    
C25   C27   1.389959 A    
O36   Zn11  1.997179 S    
C149  C157  1.390802 A    
N25   O97   1.301679 A    
O14   C14   1.259349 A    
C89   C97   1.433967 A    
C108  C148  1.410231 A    
C79   C87   1.404217 A    
C80   C88   1.414059 A    
C136  C168  1.409718 A    
C131  C139  1.442674 A    
C47   C66   1.408327 A    
N12   O72   1.301137 A    
O44   Zn11  1.987941 S    
C34   C44   1.409772 A    
C172  C180  1.406891 A    
C91   C179  1.423667 A    
N4    O55   1.302430 A    
N13   O74   1.300872 A    
O10   Zn5   2.098510 S    
C132  C140  1.435894 A    
C133  C141  1.409177 A    
O45   C187  1.273870 A    
O46   C188  1.257116 A    
O38   Zn10  1.978090 S    
C85   C173  1.431335 A    
C136  C144  1.408080 A    
O39   C187  1.225873 A    
C115  C123  1.390757 A    
C174  N22   1.438565 S    
C21   C39   1.411684 A    
C159  H19   1.081772 S    
C79   C100  1.416952 A    
C124  C132  1.382016 A    
C84   C95   1.409291 A    
N6    O60   1.302396 A    
C57   C63   1.373463 A    
C125  C133  1.436672 A    
C171  H31   1.079292 S    
C160  H20   1.080535 S    
C72   N8    1.436435 S    
C106  C154  1.405485 A    
O19   C11   1.275457 A    
C140  C172  1.414146 A    
C9    C58   1.467940 S    
C163  H23   1.080499 S    
O25   Zn6   2.068427 S    
N23   O93   1.301585 A    
O3    Zn3   2.014704 S    
O27   Zn8   2.067963 S    
O35   C183  1.228486 A    
C161  H21   1.081203 S    
C167  C175  1.398974 A    
N7    O61   1.301049 A    
O32   Zn3   2.067963 S    
C155  H15   1.079661 S    
C86   C94   1.428192 A    
C153  H13   1.081227 S    
N3    O53   1.302466 A    
O41   Zn11  2.007668 S    
O42   Zn12  2.007670 S    
O34   Zn12  1.978090 S    
C45   C65   1.411552 A    
O15   Zn4   2.113892 S    
C157  H17   1.077762 S    
O22   C14   1.300464 A    
C4    C128  1.476856 S    
C176  N24   1.436719 S    
C48   C65   1.407410 A    
C54   C62   1.395116 A    
N1    O50   1.300700 A    
O8    C8    1.249005 A    
O18   Zn2   2.007309 S    
O5    Zn5   2.020667 S    
C37   C41   1.412141 A    
C102  C110  1.441967 A    
C111  C186  1.456481 S    
C82   C146  1.432585 A    
C175  N23   1.437723 S    
C84   C92   1.411683 A    
C51   C59   1.436523 A    
C21   C72   1.426929 A    
C85   C93   1.433016 A    
C88   C96   1.428961 A    
O45   Zn9   2.007668 S    
N28   O104  1.301419 A    
C43   C67   1.409788 A    
C178  N26   1.436641 S    
C10   C57   1.466759 S    
C107  C147  1.405201 A    
C33   C43   1.409815 A    
O28   C4    1.299137 A    
C24   C32   1.401285 A    
N9    O65   1.301073 A    
C39   C42   1.400515 A    
O29   C5    1.290173 A    
C63   N3    1.441105 S    
C171  C179  1.402306 A    
C101  C109  1.429628 A    
C93   C162  1.409638 A    
C102  C150  1.415514 A    
C83   C96   1.418931 A    
C117  N13   1.437831 S    
N11   O69   1.301394 A    
C104  C112  1.431071 A    
C6    C130  1.476678 S    
C22   C30   1.410751 A    
C64   N4    1.441123 S    
N17   O81   1.302901 A    
O15   C15   1.258313 A    
C22   C40   1.414670 A    
C92   C100  1.428463 A    
O16   C16   1.257822 A    
C46   C66   1.408400 A    
O1    C1    1.259906 A    
C58   C64   1.373780 A    
N21   O89   1.301690 A    
C35   C44   1.406869 A    
O36   C184  1.218835 A    
C91   C99   1.428695 A    
C137  C169  1.412023 A    
O4    Zn4   2.014704 S    
C48   C70   1.425830 A    
N18   O84   1.300555 A    
C56   C61   1.397411 A    
C17   C35   1.414697 A    
O14   Zn1   2.098510 S    
C102  C142  1.414363 A    
C117  C125  1.383473 A    
C17   C25   1.402781 A    
C133  C165  1.402556 A    
C23   C37   1.408961 A    
O26   C2    1.301290 A    
C114  C122  1.394624 A    
C24   C69   1.405737 A    
O11   C11   1.259537 A    
C1    C125  1.476836 S    
C52   C74   1.427527 A    
N5    O58   1.301711 A    
C103  C143  1.401815 A    
C154  C162  1.390438 A    
C97   C158  1.404502 A    
O28   Zn7   2.067963 S    
O29   Zn2   2.068427 S    
C37   C39   1.418226 A    
H4    C29   1.077974 S    
C123  N19   1.439768 S    
C103  C151  1.415433 A    
C86   C174  1.416635 A    
N1    O49   1.302063 A    
O34   C182  1.226148 A    
N24   O96   1.301474 A    
N23   O94   1.301017 A    
C50   C68   1.411684 A    
C22   C71   1.418909 A    
C151  C159  1.395736 A    
C166  H26   1.078236 S    
N7    O62   1.301099 A    
C140  C148  1.405621 A    
C121  N17   1.441764 S    
N22   O92   1.301502 A    
C118  N14   1.439899 S    
C139  C171  1.409594 A    
C108  C156  1.419847 A    
O26   Zn5   2.068427 S    
O33   C181  1.220686 A    
N10   O67   1.300514 A    
C134  C166  1.413938 A    
C77   C85   1.418473 A    
N8    O63   1.301018 A    
C23   C70   1.421907 A    
C139  C147  1.408046 A    
C137  C145  1.407722 A    
C135  C143  1.412493 A    
C81   C145  1.430168 A    
C150  H10   1.075695 S    
O37   C185  1.227349 A    
O20   Zn4   2.026586 S    
N14   O75   1.302977 A    
C48   C56   1.430367 A    
C164  H24   1.083189 S    
O21   Zn5   2.007309 S    
O1    Zn1   2.020667 S    
C76   N12   1.435744 S    
N26   O99   1.301452 A    
O31   C7    1.299812 A    
N4    O56   1.300787 A    
O32   C8    1.298987 A    
N13   O73   1.302369 A    
O17   C9    1.295966 A    
C18   C36   1.414477 A    
C106  C146  1.407543 A    
O19   Zn3   2.026586 S    
C108  C116  1.436003 A    
N20   O87   1.302361 A    
C169  C177  1.405378 A    
C84   C148  1.421116 A    
O39   Zn10  1.997177 S    
C77   C141  1.432542 A    
C112  C185  1.463809 S    
C119  N15   1.440119 S    
C101  C149  1.405552 A    
