data_mof_unit_68245.cif
_audit_creation_date              2013-03-05T15:59:00-0500
_audit_creation_method            fapswitch 2.2
_symmetry_space_group_name_H-M    P1
_symmetry_Int_Tables_number       1
_space_group_crystal_system       triclinic
_cell_length_a                    8.333798
_cell_length_b                    12.733992
_cell_length_c                    15.119416
_cell_angle_alpha                 95.71516
_cell_angle_beta                  97.822626
_cell_angle_gamma                 99.861987
_cell_volume                      1553.62683892

loop_
_atom_site_label
_atom_site_type_symbol
_atom_site_description
_atom_site_fract_x
_atom_site_fract_y
_atom_site_fract_z
_atom_type_partial_charge
P1    P     P_3+3 0.998730 0.403530 0.291970 0.498829
O1    O     O_2   0.827880 0.435260 0.277750 -0.394024
O2    O     O_3   0.100280 0.438960 0.391170 -0.352845
O3    O     O_3   0.625580 0.634130 0.333250 -0.340878
O4    O     O_2   0.712227 0.562884 0.178467 -0.373978
O5    O     O_3   0.956972 0.264598 0.260416 -0.545485
O6    O     O_3   0.636645 0.752383 0.184705 -0.527587
H1    H     H_    0.684942 0.857648 0.301935 0.126965
C1    C     C_3   0.544925 0.920108 0.195057 -1.015420
H2    H     H_    0.518767 0.984299 0.243313 0.248316
H3    H     H_    0.650066 0.953363 0.162086 0.278040
P2    P     P_3+3 0.687380 0.751030 0.571310 0.488457
P3    P     P_3+3 0.109480 0.830641 0.384902 0.494978
O7    O     O_2   0.857130 0.766340 0.543890 -0.380579
O8    O     O_3   0.056550 0.691050 0.379010 -0.290455
O9    O     O_2   0.001635 0.879090 0.446206 -0.401436
O10   O     O_3   0.728702 0.782659 0.688221 -0.564917
O11   O     O_3   0.048669 0.873689 0.281759 -0.562641
C2    C     C_3   0.064192 0.797096 0.211987 0.210181
H4    H     H_    0.973173 0.722146 0.211242 0.175327
H5    H     H_    0.190692 0.778839 0.219021 0.039071
C3    C     C_3   0.029326 0.843308 0.123718 -0.055757
H6    H     H_    0.910489 0.872444 0.119509 0.168289
H7    H     H_    0.128762 0.912954 0.121282 0.140401
C4    C     C_3   0.284302 0.787751 0.664080 0.420466
H8    H     H_    0.394228 0.759483 0.644756 0.114938
H9    H     H_    0.180694 0.773460 0.607128 0.132405
C5    C     C_3   0.331462 0.908290 0.693132 -0.939665
H10   H     H_    0.432109 0.925842 0.751804 0.264763
H11   H     H_    0.374859 0.949469 0.637071 0.218218
H12   H     H_    0.222864 0.939958 0.711728 0.305345
Ba1   Ba    Ba6+2 0.843750 0.550210 0.455600 1.639949
C6    C     C_3   0.930499 0.209197 0.333041 0.310007
H13   H     H_    0.800122 0.205948 0.340955 0.111061
H14   H     H_    0.016346 0.245668 0.395441 0.126292
C7    C     C_3   0.958976 0.095644 0.310459 -0.827366
H15   H     H_    0.887676 0.059700 0.243910 0.261571
H16   H     H_    0.919409 0.045021 0.361891 0.233112
H17   H     H_    0.091857 0.097128 0.307963 0.260818
C8    C     C_3   0.787428 0.698288 0.726228 0.321159
H18   H     H_    0.904608 0.687793 0.703061 0.103799
H19   H     H_    0.695731 0.622285 0.708590 0.144432
C9    C     C_3   0.818650 0.726407 0.827702 -0.719648
H20   H     H_    0.909413 0.802728 0.846935 0.295657
H21   H     H_    0.868134 0.661582 0.859308 0.239909
H22   H     H_    0.701783 0.735621 0.852585 0.240980
P4    P     P_3+3 0.190990 0.596560 0.708040 0.493191
O12   O     O_2   0.361830 0.564780 0.722310 -0.351072
O13   O     O_3   0.089430 0.561130 0.608830 -0.369383
O14   O     O_3   0.564130 0.365960 0.666760 -0.362377
O15   O     O_3   0.235609 0.736930 0.736244 -0.556509
P5    P     P_3+3 0.088980 0.168686 0.616419 0.475242
O16   O     O_3   0.601940 0.368240 0.453770 -0.370436
O17   O     O_3   0.133170 0.309040 0.621000 -0.371712
O18   O     O_2   0.238894 0.126703 0.585722 -0.384335
O19   O     O_3   0.085301 0.130604 0.726490 -0.527854
Ba2   Ba    Ba6+2 0.346090 0.449880 0.544410 1.598221
P6    P     P_3+3 0.585077 0.623235 0.215423 0.493881
C10   C     C_3   0.584386 0.826943 0.244304 0.416469
H23   H     H_    0.471265 0.792793 0.270449 0.074231
H24   H     H_    0.434946 0.891832 0.142483 0.274182
O20   O     O_3   0.587780 0.631850 0.546230 -0.345341
C11   C     C_3   0.418621 0.274068 0.262084 0.202014
H25   H     H_    0.290853 0.280277 0.272018 0.119929
H26   H     H_    0.502823 0.352910 0.283015 0.107903
C12   C     C_3   0.424534 0.238255 0.163430 -0.132617
H27   H     H_    0.382529 0.149708 0.147618 0.167764
H28   H     H_    0.554017 0.257208 0.150823 0.122514
P7    P     P_3+3 0.506528 0.233759 0.425288 0.435266
O21   O     O_2   0.332590 0.233690 0.456160 -0.373102
O22   O     O_3   0.469476 0.194364 0.309576 -0.616896
C13   C     C_3   0.018334 0.201206 0.784345 0.461225
H29   H     H_    0.050578 0.285494 0.770497 0.071654
C14   C     C_3   0.087695 0.200362 0.884637 -0.136600
H30   H     H_    0.216308 0.240926 0.901970 0.173756
H31   H     H_    0.024624 0.250699 0.927615 0.122042
P8    P     P_3+3 0.608902 0.384127 0.786819 0.451418
C15   C     C_3   0.469463 0.197352 0.840537 0.330802
H32   H     H_    0.534230 0.164081 0.793060 0.085069
O23   O     O_2   0.563021 0.494108 0.809970 -0.372098
O24   O     O_3   0.465723 0.308930 0.844429 -0.503056
H33   H     H_    0.345776 0.151561 0.815323 0.175901
H34   H     H_    0.658136 0.198164 0.956702 0.243636
C16   C     C_3   0.527377 0.162523 0.931261 -0.931218
H35   H     H_    0.517048 0.073831 0.923353 0.259789
H36   H     H_    0.448819 0.182973 0.980812 0.294751
C17   C     C_R   0.831190 0.430128 0.831717 0.192892
C18   C     C_R   0.897259 0.444615 0.924496 -0.037809
C19   C     C_R   0.035077 0.462798 0.110577 0.003830
C20   C     C_R   0.871009 0.413312 0.078872 0.002942
C21   C     C_R   0.802014 0.409688 0.989259 -0.177035
C22   C     C_R   0.107764 0.466088 0.202501 0.240354
H37   H     H_    0.792614 0.375932 0.122240 0.160997
H38   H     H_    0.672629 0.377925 0.971808 0.216205
C23   C     C_R   0.277096 0.502987 0.224625 -0.369050
C24   C     C_R   0.088610 0.528880 0.796646 0.215931
C25   C     C_R   0.158496 0.541450 0.890085 -0.020029
C26   C     C_R   0.063288 0.496442 0.953549 0.076589
C27   C     C_R   0.319049 0.598677 0.922856 -0.000268
C28   C     C_R   0.388363 0.605081 0.013374 -0.094508
C29   C     C_R   0.298081 0.558326 0.076337 0.001132
C30   C     C_R   0.131892 0.506604 0.047000 0.109448
C31   C     C_R   0.370446 0.556406 0.166678 0.197335
C32   C     C_R   0.928898 0.470277 0.769767 -0.521560
H39   H     H_    0.514982 0.645733 0.032753 0.190601
H40   H     H_    0.394417 0.638907 0.879216 0.164594
H41   H     H_    0.337963 0.489916 0.289264 0.181583
H42   H     H_    0.875121 0.462318 0.699572 0.175529
C33   C     C_R   0.795624 0.173938 0.503398 -0.571150
C34   C     C_R   0.423270 0.810757 0.466201 -0.037375
C35   C     C_R   0.392739 0.988455 0.435938 -0.260914
C36   C     C_R   0.326489 0.880951 0.432503 0.123455
C37   C     C_R   0.584940 0.847734 0.509854 0.124835
C38   C     C_R   0.658496 0.957085 0.508456 -0.120292
C39   C     C_R   0.558959 0.028148 0.471813 -0.060260
C40   C     C_R   0.626654 0.137882 0.474012 0.298463
C41   C     C_R   0.895668 0.106256 0.540201 0.262593
C42   C     C_R   0.825965 0.998852 0.544044 -0.129453
H43   H     H_    0.312613 0.038895 0.408107 0.198719
H44   H     H_    0.899759 0.953343 0.583414 0.194199
H45   H     H_    0.846076 0.258660 0.506312 0.167310
N1    N     N_R   0.319219 0.289944 0.104432 0.214539
O25   O     O_R   0.160154 0.259664 0.095300 -0.403740
O26   O     O_R   0.383027 0.350942 0.049307 -0.456456
N2    N     N_R   0.020031 0.761774 0.047862 0.230824
O27   O     O_R   0.126676 0.773984 0.992664 -0.404531
O28   O     O_R   0.898160 0.680173 0.031760 -0.420648
C43   C     C_3   0.831167 0.167529 0.778025 -0.440872
C44   C     C_3   0.738534 0.180660 0.688371 -0.833593
H46   H     H_    0.807401 0.248351 0.660436 0.246240
H47   H     H_    0.706673 0.100717 0.651277 0.245537
H48   H     H_    0.614456 0.197195 0.682545 0.252318
H49   H     H_    0.797794 0.083069 0.792268 0.245108
H50   H     H_    0.792794 0.219839 0.830435 0.157977
N3    N     N_R   0.065767 0.091752 0.910906 0.282442
O29   O     O_R   0.142953 0.020522 0.877344 -0.371402
O30   O     O_R   0.969499 0.066006 0.969359 -0.365723
N4    N     N_R   0.362013 0.699163 0.446299 0.258873
O31   O     O_R   0.341776 0.658333 0.363246 -0.457929
O32   O     O_R   0.277634 0.649290 0.500388 -0.346090

loop_
_geom_bond_atom_site_label_1
_geom_bond_atom_site_label_2
_geom_bond_distance
_ccdc_geom_bond_type
C12   H28   1.111274 S    
C17   C18   1.417168 A    
C11   H26   1.111519 S    
P7    C40   1.852716 S    
C29   C30   1.418035 A    
C19   C30   1.431733 A    
C2    H4    1.110827 S    
O16   P7    1.744635 S    
C43   C44   1.505278 S    
C38   C39   1.430317 A    
C33   C41   1.401043 A    
Ba2   O20   2.792956 S    
P4    O13   1.599599 S    
C4    C5    1.521689 S    
C28   H39   1.079727 S    
C14   H31   1.111225 S    
O4    P6    1.542802 D    
C13   C43   1.532375 S    
C1    H24   1.110488 S    
O1    Ba1   2.905807 S    
C5    H10   1.110938 S    
C2    H5    1.111351 S    
C16   H36   1.100342 S    
O11   C2    1.398677 S    
P3    C36   1.831959 S    
H1    C10   1.111541 S    
C39   C40   1.409814 A    
C6    C7    1.518240 S    
O13   Ba2   2.976738 S    
C35   H43   1.076922 S    
P1    O1    1.538769 D    
P7    O22   1.741505 S    
C33   C40   1.399543 A    
C37   C38   1.425553 A    
C8    C9    1.516507 S    
H34   C16   1.105957 S    
P5    O17   1.754333 S    
C24   C32   1.394892 A    
O19   C13   1.425851 S    
P2    O10   1.746507 S    
P4    C24   1.885385 S    
C12   N1    1.449463 S    
Ba2   O21   2.914316 S    
C1    H2    1.110648 S    
O6    P6    1.751960 S    
P5    O18   1.548967 D    
C44   H48   1.083884 S    
P5    C41   1.851706 S    
N3    O29   1.300398 A    
C12   H27   1.113274 S    
C11   C12   1.525619 S    
C10   H23   1.108764 S    
C29   C31   1.420368 A    
P2    Ba1   3.488474 S    
P7    O21   1.582066 D    
Ba1   Ba2   4.547385 S    
C14   N3    1.465106 S    
O6    C10   1.407555 S    
C25   C27   1.407285 A    
C23   C31   1.399457 A    
C25   C26   1.428204 A    
C34   C36   1.390995 A    
C7    H17   1.110172 S    
C14   H30   1.091443 S    
P1    O5    1.747689 S    
O12   Ba2   2.906389 S    
C2    C3    1.523562 S    
C16   H35   1.110977 S    
C13   C14   1.549302 S    
O16   Ba2   2.962450 S    
C15   H32   1.053250 S    
C3    N2    1.452748 S    
P4    O15   1.758554 S    
C4    H8    1.104111 S    
C26   C30   1.434685 A    
C22   C23   1.391819 A    
C11   H25   1.110219 S    
P1    O2    1.599443 S    
O10   C8    1.396620 S    
C9    H20   1.110525 S    
C4    O15   1.394673 S    
C43   H50   1.100330 S    
P4    Ba2   3.472360 S    
P2    O20   1.582459 S    
C15   H33   1.091203 S    
P4    O12   1.538998 D    
C18   C21   1.401436 A    
P8    O24   1.776813 S    
C24   C25   1.435171 A    
C6    H13   1.103424 S    
C38   C42   1.415816 A    
C19   C22   1.432090 A    
C9    H21   1.105150 S    
C34   C37   1.396900 A    
O3    Ba1   2.830811 S    
C23   H41   1.080048 S    
P3    O11   1.743427 S    
C34   N4    1.412455 S    
C8    H18   1.105759 S    
C11   O22   1.391045 S    
P1    C22   1.895097 S    
C1    H3    1.108801 S    
N2    O27   1.300368 A    
C3    H7    1.112502 S    
N1    O26   1.299568 A    
C7    H16   1.107168 S    
C19   C20   1.400962 A    
O14   P8    1.786107 S    
O2    Ba2   2.851333 S    
Ba1   O16   2.793508 S    
C32   H42   1.082146 S    
C20   H37   1.074992 S    
P2    C37   1.865656 S    
P8    O23   1.533732 D    
N3    O30   1.301085 A    
C27   H40   1.078050 S    
C7    H15   1.107844 S    
C35   C36   1.378664 A    
O14   Ba2   2.830142 S    
C5    H12   1.110166 S    
O7    Ba1   2.914036 S    
C13   H29   1.108770 S    
O8    Ba1   2.754206 S    
O5    C6    1.385281 S    
N4    O32   1.293678 A    
C4    H9    1.110267 S    
C27   C28   1.399929 A    
P3    O8    1.746818 S    
C44   H46   1.104450 S    
Ba1   O20   2.963213 S    
C5    H11   1.109590 S    
C41   C42   1.401519 A    
C21   H38   1.071345 S    
C15   O24   1.422044 S    
C33   H45   1.082940 S    
C20   C21   1.390999 A    
C8    H19   1.109751 S    
C28   C29   1.407556 A    
C6    H14   1.110314 S    
P1    Ba1   3.471799 S    
O2    Ba1   2.975880 S    
C9    H22   1.110841 S    
C42   H44   1.076799 S    
Ba1   O13   2.850576 S    
N4    O31   1.287581 A    
C17   C32   1.400759 A    
C15   C16   1.524944 S    
P2    O7    1.514074 D    
P8    C17   1.855394 S    
P3    O9    1.533074 D    
O3    P6    1.754385 S    
N2    O28   1.300511 A    
C3    H6    1.111733 S    
C35   C39   1.403431 A    
P6    C31   1.860537 S    
C1    C10   1.520842 S    
N1    O25   1.299808 A    
C43   H49   1.113744 S    
C18   C26   1.416690 A    
P5    O19   1.781915 S    
C44   H47   1.083755 S    
O17   Ba2   2.754795 S    
