data_mof_unit_15681.cif
_audit_creation_date              2012-10-26T17:29:19-0400
_audit_creation_method            fapswitch 2.2
_symmetry_space_group_name_H-M    P1
_symmetry_Int_Tables_number       1
_space_group_crystal_system       triclinic
_cell_length_a                    28.14063
_cell_length_b                    18.32606
_cell_length_c                    21.847945
_cell_angle_alpha                 88.441965
_cell_angle_beta                  139.354097
_cell_angle_gamma                 91.04863
_cell_volume                      7336.45238278

loop_
_atom_site_label
_atom_site_type_symbol
_atom_type_description
_atom_site_fract_x
_atom_site_fract_y
_atom_site_fract_z
_atom_type_partial_charge
C1    C     C_R   0.860208 0.000091 0.857435 0.549269
C2    C     C_R   0.999859 0.139891 0.500977 0.574913
C3    C     C_R   0.082289 0.198712 0.361756 -0.042765
C4    C     C_R   0.985498 0.846230 0.291224 -0.005529
C5    C     C_R   0.930058 0.841363 0.282100 -0.108736
C6    C     C_R   0.897147 0.774857 0.266065 -0.120459
C7    C     C_R   0.919506 0.710695 0.260912 -0.096254
C8    C     C_R   0.974343 0.712869 0.270682 -0.103525
C9    C     C_R   0.007291 0.779100 0.286532 -0.078607
C10   C     C_R   0.012260 0.152885 0.706309 0.051210
C11   C     C_R   0.068396 0.158529 0.716777 -0.077063
C12   C     C_R   0.100547 0.225525 0.732454 -0.125597
C13   C     C_R   0.500143 0.360110 0.499013 0.539689
C14   C     C_R   0.076673 0.289365 0.735799 -0.098216
C15   C     C_R   0.020866 0.286424 0.724195 -0.096328
C16   C     C_R   0.988676 0.219701 0.708704 -0.075355
C17   C     C_R   0.465103 0.356593 0.660251 0.048093
C18   C     C_R   0.520799 0.337580 0.672938 -0.107107
C19   C     C_R   0.539260 0.264609 0.681568 -0.128016
C20   C     C_R   0.500054 0.208560 0.671920 -0.094076
C21   C     C_R   0.441116 0.225207 0.651447 -0.102422
C22   C     C_R   0.423547 0.297888 0.645020 -0.046236
C23   C     C_R   0.538712 0.641162 0.343980 0.056426
C24   C     C_R   0.499859 0.639891 0.500977 0.574915
C25   C     C_R   0.482769 0.661654 0.330284 -0.107254
C26   C     C_R   0.466170 0.735099 0.323301 -0.133124
C27   C     C_R   0.507532 0.790055 0.335762 -0.095792
C28   C     C_R   0.566648 0.771813 0.357174 -0.103026
C29   C     C_R   0.582295 0.698701 0.361761 -0.042759
C30   C     C_R   0.485492 0.346222 0.291204 -0.005389
C31   C     C_R   0.430062 0.341355 0.282098 -0.108745
C32   C     C_R   0.397152 0.274850 0.266065 -0.120465
C33   C     C_R   0.419502 0.210687 0.260898 -0.096259
C34   C     C_R   0.474327 0.212863 0.270645 -0.103535
C35   C     C_R   0.998855 0.001945 0.618938 0.560655
C36   C     C_R   0.507273 0.279093 0.286490 -0.078511
C37   C     C_R   0.512252 0.652883 0.706298 0.051209
C38   C     C_R   0.568392 0.658528 0.716773 -0.077067
C39   C     C_R   0.600541 0.725526 0.732447 -0.125600
C40   C     C_R   0.576662 0.789366 0.735783 -0.098221
C41   C     C_R   0.520852 0.786424 0.724173 -0.096326
C42   C     C_R   0.488664 0.719700 0.708684 -0.075341
C43   C     C_R   0.125558 0.928358 0.937378 0.023561
C44   C     C_R   0.124328 0.857751 0.911016 -0.112750
C45   C     C_R   0.164803 0.799611 0.975729 -0.109029
C46   C     C_R   0.001141 0.997323 0.381089 0.507440
C47   C     C_R   0.208217 0.809681 0.069292 -0.101921
C48   C     C_R   0.210438 0.877737 0.097885 -0.087798
C49   C     C_R   0.169306 0.935932 0.033003 -0.051593
C50   C     C_R   0.875571 0.072415 0.063833 0.024270
C51   C     C_R   0.831793 0.065506 0.968106 -0.050355
C52   C     C_R   0.791500 0.124249 0.904020 -0.088693
C53   C     C_R   0.794564 0.192218 0.933546 -0.103044
C54   C     C_R   0.838047 0.201636 0.027262 -0.108671
C55   C     C_R   0.877762 0.142946 0.091220 -0.112436
C56   C     C_R   0.860009 0.938110 0.068629 0.015213
C57   C     C_R   0.498855 0.501943 0.618938 0.560653
C58   C     C_R   0.869322 0.877695 0.039233 -0.104005
C59   C     C_R   0.817287 0.822384 0.985650 -0.112064
C60   C     C_R   0.752970 0.826907 0.956032 -0.115947
C61   C     C_R   0.739073 0.887943 0.976941 -0.115137
C62   C     C_R   0.790964 0.943241 0.030683 -0.096209
C63   C     C_R   0.139530 0.062804 0.930629 0.013284
C64   C     C_R   0.129447 0.123472 0.958866 -0.106413
C65   C     C_R   0.180715 0.179539 0.011245 -0.113300
C66   C     C_R   0.245034 0.175587 0.040808 -0.116361
C67   C     C_R   0.259748 0.114365 0.021149 -0.116199
C68   C     C_R   0.501142 0.497315 0.381090 0.507417
C69   C     C_R   0.208621 0.058310 0.968610 -0.096904
C70   C     C_R   0.625560 0.428359 0.937380 0.023564
C71   C     C_R   0.624331 0.357752 0.911020 -0.112752
C72   C     C_R   0.664808 0.299613 0.975733 -0.109033
C73   C     C_R   0.708221 0.309683 0.069296 -0.101921
C74   C     C_R   0.710441 0.377739 0.097888 -0.087800
C75   C     C_R   0.669307 0.435933 0.033005 -0.051599
C76   C     C_R   0.375579 0.572402 0.063839 0.024263
C77   C     C_R   0.331792 0.565490 0.968109 -0.050372
C78   C     C_R   0.291494 0.624232 0.904021 -0.088696
C79   C     C_R   0.500025 0.139407 0.499300 0.558423
C80   C     C_R   0.294565 0.692202 0.933549 -0.103042
C81   C     C_R   0.338058 0.701624 0.027269 -0.108672
C82   C     C_R   0.377777 0.642935 0.091228 -0.112429
C83   C     C_R   0.360025 0.438094 0.068644 0.015222
C84   C     C_R   0.369345 0.377675 0.039262 -0.103995
C85   C     C_R   0.317312 0.322363 0.985678 -0.112072
C86   C     C_R   0.252990 0.326888 0.956046 -0.115947
C87   C     C_R   0.239087 0.387927 0.976945 -0.115139
C88   C     C_R   0.290976 0.443225 0.030688 -0.096215
C89   C     C_R   0.639531 0.562805 0.930630 0.013282
C90   C     C_R   0.499972 0.860594 0.500700 0.558659
C91   C     C_R   0.629447 0.623473 0.958866 -0.106417
C92   C     C_R   0.680716 0.679540 0.011244 -0.113303
C93   C     C_R   0.745034 0.675588 0.040807 -0.116359
C94   C     C_R   0.759748 0.614366 0.021149 -0.116196
C95   C     C_R   0.708621 0.558310 0.968611 -0.096903
C96   C     C_R   0.000025 0.639407 0.499300 0.558422
C97   C     C_R   0.139785 0.999918 0.142629 0.547854
C98   C     C_R   0.999972 0.360594 0.500700 0.558661
C99   C     C_R   0.639421 0.999813 0.638655 0.557363
C100  C     C_R   0.360578 0.000238 0.361355 0.559045
C101  C     C_R   0.139421 0.499813 0.638655 0.557361
C102  C     C_R   0.860578 0.500238 0.361355 0.559044
C103  C     C_1   0.000299 0.782504 0.498050 -0.038850
C104  C     C_1   0.999697 0.217495 0.501972 -0.018605
C105  C     C_1   0.500299 0.282504 0.498050 -0.038837
C106  C     C_1   0.499697 0.717495 0.501971 -0.018607
C107  C     C_1   0.500185 0.217086 0.497961 -0.038302
C108  C     C_R   0.360208 0.500091 0.857436 0.549263
C109  C     C_1   0.499809 0.782914 0.502056 -0.033245
C110  C     C_1   0.000185 0.717086 0.497961 -0.038313
C111  C     C_1   0.999809 0.282914 0.502057 -0.033245
C112  C     C_R   0.002284 0.001110 0.882119 0.548250
C113  C     C_R   0.997806 0.998797 0.117958 0.540208
C114  C     C_R   0.502284 0.501110 0.882119 0.548237
C115  C     C_R   0.497813 0.498796 0.117965 0.540337
C116  C     C_3   0.956625 0.935325 0.745586 -0.158472
C117  C     C_3   0.044535 0.063124 0.255787 -0.163272
C118  C     C_3   0.034912 0.923153 0.249427 -0.110816
C119  C     C_R   0.639785 0.499918 0.142629 0.547939
C120  C     C_3   0.964478 0.075490 0.749641 -0.156622
C121  C     C_3   0.456626 0.435323 0.745588 -0.158470
C122  C     C_3   0.544547 0.563115 0.255801 -0.163263
C123  C     C_3   0.534934 0.423152 0.249444 -0.110804
C124  C     C_3   0.464479 0.575488 0.749641 -0.156623
C125  C     C_3   0.946738 0.935996 0.663603 -0.042444
C126  C     C_3   0.054759 0.061447 0.337975 -0.034788
C127  C     C_3   0.031954 0.916028 0.319791 -0.047575
C128  C     C_3   0.967085 0.082055 0.679187 -0.048275
C129  C     C_3   0.446741 0.435991 0.663606 -0.042449
C130  C     C_1   0.717113 0.999683 0.714443 -0.049734
C131  C     C_3   0.554765 0.561437 0.337985 -0.034786
C132  C     C_3   0.531958 0.416016 0.319791 -0.047611
C133  C     C_3   0.467082 0.582051 0.679184 -0.048275
C134  C     C_3   0.084915 0.997151 0.868584 -0.035697
C135  C     C_3   0.915375 0.003063 0.131663 -0.035442
C136  C     C_3   0.584915 0.497151 0.868585 -0.035697
C137  C     C_3   0.415386 0.503052 0.131672 -0.035455
C138  C     C_3   0.001998 0.003225 0.812832 -0.027876
C139  C     C_3   0.998193 0.996109 0.187332 -0.041576
C140  C     C_3   0.501998 0.503224 0.812832 -0.027876
C141  C     C_1   0.282885 0.000419 0.285629 -0.048297
C142  C     C_3   0.498204 0.496104 0.187343 -0.041518
C143  C     C_3   0.996355 0.003040 0.685320 -0.012771
C144  C     C_3   0.003728 0.995552 0.314742 -0.023733
C145  C     C_3   0.496356 0.503038 0.685320 -0.012773
C146  C     C_3   0.503732 0.495542 0.314746 -0.023787
C147  C     C_3   0.076178 0.991637 0.788695 -0.243300
C148  C     C_3   0.924135 0.008201 0.211562 -0.234771
C149  C     C_3   0.576179 0.491636 0.788696 -0.243300
C150  C     C_3   0.424141 0.508193 0.211568 -0.234758
C151  C     C_1   0.782540 0.999858 0.779033 -0.049993
C152  C     C_1   0.217113 0.499682 0.714443 -0.049742
C153  C     C_1   0.217453 0.000212 0.221078 -0.049422
C154  C     C_1   0.282540 0.499857 0.779033 -0.049992
C155  C     C_1   0.717453 0.500212 0.221078 -0.049363
C156  C     C_2   0.887673 0.916951 0.715384 0.197411
C157  C     C_2   0.113754 0.080985 0.286454 0.191641
C158  C     C_2   0.107500 0.905322 0.290160 0.269680
C159  C     C_2   0.891202 0.093161 0.707369 0.187561
C160  C     C_2   0.387674 0.416950 0.715384 0.197406
C161  C     C_2   0.613775 0.580960 0.286486 0.191678
C162  C     C_2   0.607536 0.405361 0.290199 0.269552
C163  C     C_1   0.782885 0.500419 0.285629 -0.048288
C164  C     C_2   0.391205 0.593164 0.707374 0.187567
C165  C     C_2   0.866276 0.947415 0.567261 0.243401
C166  C     C_2   0.134877 0.046763 0.433557 0.239325
C167  C     C_2   0.103784 0.894198 0.422824 0.215403
C168  C     C_2   0.892496 0.101162 0.577101 0.242299
C169  C     C_2   0.366279 0.447403 0.567261 0.243399
C170  C     C_2   0.634881 0.546747 0.433575 0.239232
C171  C     C_2   0.603781 0.394169 0.422822 0.215208
C172  C     C_2   0.392490 0.601153 0.577098 0.242310
C173  C     C_R   0.965095 0.856597 0.660242 0.048096
C174  C     C_R   0.000143 0.860109 0.499013 0.539684
C175  C     C_R   0.020792 0.837582 0.672932 -0.107109
C176  C     C_R   0.039249 0.764610 0.681558 -0.128016
C177  C     C_R   0.000037 0.708563 0.671901 -0.094078
C178  C     C_R   0.941098 0.725213 0.651426 -0.102421
C179  C     C_R   0.923534 0.797895 0.645004 -0.046223
C180  C     C_R   0.038706 0.141172 0.343972 0.056385
C181  C     C_R   0.982764 0.161661 0.330279 -0.107259
C182  C     C_R   0.966163 0.235105 0.323298 -0.133122
C183  C     C_R   0.007525 0.290062 0.335759 -0.095790
C184  C     C_R   0.066641 0.271823 0.357171 -0.103015
Cu1   Cu    Cu3+1 0.000000 0.927450 0.000000 1.041184
Cu2   Cu    Cu3+1 0.500040 0.000000 0.562520 0.924012
Cu3   Cu    Cu3+1 0.999960 0.500000 0.437480 0.917269
Cu4   Cu    Cu3+1 0.000040 0.500000 0.562520 0.924009
Cu5   Cu    Cu3+1 0.000000 0.072550 0.000000 1.042515
Cu6   Cu    Cu3+1 0.500000 0.427450 0.000000 1.041243
Cu7   Cu    Cu3+1 0.500000 0.572550 0.000000 1.042523
Cu8   Cu    Cu3+1 0.927450 0.000000 0.427440 1.029227
Cu9   Cu    Cu3+1 0.072550 0.000000 0.572560 0.974644
Cu10  Cu    Cu3+1 0.427450 0.500000 0.427440 1.029240
Cu11  Cu    Cu3+1 0.572550 0.500000 0.572560 0.974603
Cu12  Cu    Cu3+1 0.499960 0.000000 0.437480 0.917286
H1    H     H_    0.991477 0.887915 0.791612 0.179831
H2    H     H_    0.899622 0.058241 0.204604 0.103308
H3    H     H_    0.263344 0.737563 0.883853 0.110248
H4    H     H_    0.341030 0.754642 0.050716 0.114786
H5    H     H_    0.410701 0.654858 0.161993 0.109240
H6    H     H_    0.414696 0.370736 0.054159 0.148097
H7    H     H_    0.326813 0.275850 0.966463 0.115161
H8    H     H_    0.213738 0.283255 0.916217 0.128592
H9    H     H_    0.188048 0.392466 0.951612 0.107652
H10   H     H_    0.277529 0.490451 0.044152 0.106292
H11   H     H_    0.584036 0.630119 0.943890 0.148777
H12   H     H_    0.670614 0.726211 0.029553 0.115446
H13   H     H_    0.888690 0.968465 0.200533 0.134801
H14   H     H_    0.783700 0.719780 0.079731 0.131383
H15   H     H_    0.810816 0.610280 0.046488 0.108008
H16   H     H_    0.722650 0.511023 0.955991 0.107353
H17   H     H_    0.111135 0.031691 0.799171 0.130956
H18   H     H_    0.601388 0.441896 0.796415 0.103129
H19   H     H_    0.399632 0.558236 0.204610 0.103316
H20   H     H_    0.388693 0.468461 0.200536 0.134801
H21   H     H_    0.611135 0.531691 0.799171 0.130955
H22   H     H_    0.840463 0.951920 0.669527 0.095616
H23   H     H_    0.161690 0.046984 0.334867 0.087808
H24   H     H_    0.156633 0.934366 0.348547 0.131353
H25   H     H_    0.010278 0.111101 0.210746 0.180947
H26   H     H_    0.842305 0.063905 0.648773 0.078456
H27   H     H_    0.340463 0.451917 0.669521 0.095605
H28   H     H_    0.661719 0.546968 0.334944 0.087817
H29   H     H_    0.656674 0.434345 0.348666 0.131408
H30   H     H_    0.342309 0.563904 0.648786 0.078463
H31   H     H_    0.829794 0.978299 0.559754 0.058063
H32   H     H_    0.168347 0.010724 0.439907 0.119772
H33   H     H_    0.104315 0.889410 0.472830 0.164067
H34   H     H_    0.841564 0.095905 0.551623 0.098165
H35   H     H_    0.329792 0.478282 0.559749 0.058067
H36   H     H_    0.000339 0.879846 0.198765 0.151045
H37   H     H_    0.668342 0.510668 0.439943 0.119617
H38   H     H_    0.604336 0.389464 0.472852 0.164135
H39   H     H_    0.341560 0.595884 0.551623 0.098156
H40   H     H_    0.053527 0.876744 0.680788 0.137091
H41   H     H_    0.084458 0.751542 0.696036 0.114749
H42   H     H_    0.014864 0.652223 0.679420 0.139992
H43   H     H_    0.909273 0.681728 0.641450 0.127517
H44   H     H_    0.877057 0.808061 0.628476 0.163030
H45   H     H_    0.948461 0.123386 0.320347 0.136221
H46   H     H_    0.920687 0.249400 0.307847 0.115490
H47   H     H_    0.998428 0.119357 0.799589 0.160095
H48   H     H_    0.994164 0.346781 0.329546 0.141210
H49   H     H_    0.100027 0.314419 0.369144 0.126439
H50   H     H_    0.128822 0.187308 0.378728 0.161978
H51   H     H_    0.911920 0.886391 0.289812 0.149518
H52   H     H_    0.854980 0.772925 0.259562 0.121298
H53   H     H_    0.894508 0.659232 0.249764 0.133877
H54   H     H_    0.992390 0.662928 0.267638 0.113419
H55   H     H_    0.051913 0.777444 0.297818 0.175369
H56   H     H_    0.087622 0.113768 0.710301 0.145489
H57   H     H_    0.143338 0.228079 0.740125 0.118005
H58   H     H_    0.491479 0.387914 0.791615 0.179830
H59   H     H_    0.101165 0.341187 0.746797 0.133662
H60   H     H_    0.001548 0.336118 0.725635 0.116483
H61   H     H_    0.943361 0.220632 0.696087 0.150152
H62   H     H_    0.553530 0.376744 0.680788 0.137096
H63   H     H_    0.584468 0.251544 0.696044 0.114750
H64   H     H_    0.514884 0.152221 0.679442 0.139989
H65   H     H_    0.409295 0.181721 0.641478 0.127514
H66   H     H_    0.377072 0.308052 0.628496 0.163026
H67   H     H_    0.448464 0.623380 0.320351 0.136232
H68   H     H_    0.420693 0.749395 0.307849 0.115490
H69   H     H_    0.510297 0.611095 0.210762 0.180916
H70   H     H_    0.494171 0.846775 0.329548 0.141204
H71   H     H_    0.600034 0.814409 0.369144 0.126436
H72   H     H_    0.628826 0.687296 0.378729 0.161969
H73   H     H_    0.411934 0.386383 0.289825 0.149504
H74   H     H_    0.354993 0.272917 0.259577 0.121303
H75   H     H_    0.394506 0.159225 0.249756 0.133879
H76   H     H_    0.492366 0.162922 0.267588 0.113398
H77   H     H_    0.551886 0.277437 0.297759 0.175270
H78   H     H_    0.587623 0.613767 0.710305 0.145488
H79   H     H_    0.643335 0.728080 0.740125 0.118006
H80   H     H_    0.500383 0.379836 0.198790 0.151014
H81   H     H_    0.601152 0.841189 0.746781 0.133668
H82   H     H_    0.501529 0.836118 0.725606 0.116493
H83   H     H_    0.443347 0.720630 0.696064 0.150172
H84   H     H_    0.091638 0.845315 0.840515 0.110568
H85   H     H_    0.162514 0.746530 0.952995 0.114989
H86   H     H_    0.240069 0.764767 0.119608 0.112232
H87   H     H_    0.244640 0.885302 0.170869 0.119993
H88   H     H_    0.173436 0.987943 0.058536 0.108938
H89   H     H_    0.827036 0.013621 0.941860 0.108783
H90   H     H_    0.757350 0.117127 0.830961 0.118611
H91   H     H_    0.498431 0.619355 0.799588 0.160100
H92   H     H_    0.763345 0.237579 0.883851 0.110250
H93   H     H_    0.841014 0.254652 0.050708 0.114789
H94   H     H_    0.910679 0.154867 0.161982 0.109245
H95   H     H_    0.914669 0.870759 0.054123 0.148120
H96   H     H_    0.826783 0.775874 0.966426 0.115172
H97   H     H_    0.713718 0.783274 0.916205 0.128589
H98   H     H_    0.688038 0.892482 0.951617 0.107652
H99   H     H_    0.777522 0.990465 0.044154 0.106289
H100  H     H_    0.084036 0.130118 0.943891 0.148776
H101  H     H_    0.170614 0.226210 0.029555 0.115448
H102  H     H_    0.101386 0.941896 0.796413 0.103128
H103  H     H_    0.283699 0.219779 0.079732 0.131386
H104  H     H_    0.310815 0.110280 0.046488 0.108000
H105  H     H_    0.222649 0.011024 0.955990 0.107352
H106  H     H_    0.591641 0.345315 0.840519 0.110571
H107  H     H_    0.662520 0.246532 0.953000 0.114990
H108  H     H_    0.740075 0.264771 0.119613 0.112230
H109  H     H_    0.744642 0.385304 0.170872 0.119993
H110  H     H_    0.673436 0.487943 0.058536 0.108923
H111  H     H_    0.327030 0.513604 0.941860 0.108785
H112  H     H_    0.257337 0.617108 0.830959 0.118606
O1    O     O_R   0.894190 0.938730 0.894180 -0.494659
O2    O     O_R   0.000020 0.061270 0.091170 -0.469379
O3    O     O_R   0.000020 0.938730 0.091170 -0.517401
O4    O     O_R   0.999980 0.061270 0.908830 -0.511794
O5    O     O_R   0.499980 0.438730 0.908830 -0.472916
O6    O     O_R   0.500020 0.561270 0.091170 -0.469388
O7    O     O_R   0.500020 0.438730 0.091170 -0.517309
O8    O     O_R   0.499980 0.561270 0.908830 -0.511805
O9    O     O_R   0.938700 0.894210 0.438700 -0.496175
O10   O     O_R   0.061300 0.105790 0.561300 -0.500887
O11   O     O_R   0.061300 0.894210 0.561300 -0.529928
O12   O     O_R   0.105810 0.061270 0.105820 -0.493844
O13   O     O_R   0.938700 0.105790 0.438700 -0.480494
O14   O     O_R   0.438700 0.394210 0.438700 -0.496174
O15   O     O_R   0.561300 0.605790 0.561300 -0.500878
O16   O     O_R   0.561300 0.394210 0.561300 -0.529929
O17   O     O_R   0.438700 0.605790 0.438700 -0.480494
O18   O     O_R   0.938740 0.000000 0.529880 -0.405648
O19   O     O_R   0.061260 0.000000 0.470120 -0.470028
O20   O     O_R   0.438740 0.500000 0.529880 -0.405649
O21   O     O_R   0.561260 0.500000 0.470120 -0.470099
O22   O     O_R   0.061220 0.000000 0.652370 -0.575903
O23   O     O_R   0.105810 0.938730 0.105820 -0.490395
O24   O     O_R   0.938780 0.000000 0.347630 -0.568942
O25   O     O_R   0.561220 0.500000 0.652370 -0.575901
O26   O     O_R   0.438780 0.500000 0.347630 -0.568921
O27   O     O_R   0.499910 0.105770 0.447130 -0.503070
O28   O     O_R   0.500090 0.894230 0.552870 -0.499956
O29   O     O_R   0.500090 0.105770 0.552870 -0.517567
O30   O     O_R   0.499910 0.894230 0.447130 -0.520124
O31   O     O_R   0.999910 0.605770 0.447130 -0.503079
O32   O     O_R   0.000090 0.394230 0.552870 -0.499951
O33   O     O_R   0.000090 0.605770 0.552870 -0.517569
O34   O     O_R   0.894190 0.061270 0.894180 -0.489806
O35   O     O_R   0.999910 0.394230 0.447130 -0.520126
O36   O     O_R   0.605760 0.000000 0.553010 -0.492974
O37   O     O_R   0.394240 0.000000 0.446990 -0.489752
O38   O     O_R   0.105760 0.500000 0.553010 -0.492977
O39   O     O_R   0.894240 0.500000 0.446990 -0.489748
O40   O     O_R   0.605780 0.000000 0.658540 -0.518757
O41   O     O_R   0.394220 0.000000 0.341460 -0.518422
O42   O     O_R   0.105780 0.500000 0.658540 -0.518757
O43   O     O_R   0.894220 0.500000 0.341460 -0.518424
O44   O     O_2   0.884637 0.860643 0.743600 -0.487920
O45   O     O_R   0.394190 0.438730 0.894180 -0.494666
O46   O     O_2   0.116609 0.136352 0.256858 -0.483598
O47   O     O_2   0.112162 0.855344 0.258982 -0.483223
O48   O     O_2   0.885841 0.143042 0.737875 -0.482049
O49   O     O_2   0.384639 0.360646 0.743606 -0.487919
O50   O     O_2   0.616632 0.636304 0.256865 -0.483581
O51   O     O_2   0.612198 0.355504 0.258910 -0.483160
O52   O     O_2   0.385846 0.643054 0.737873 -0.482067
O53   O     O_2   0.840606 0.921150 0.496069 -0.463862
O54   O     O_2   0.163361 0.075327 0.505299 -0.468584
O55   O     O_2   0.158767 0.874134 0.450387 -0.523772
O56   O     O_R   0.605810 0.561270 0.105820 -0.493848
O57   O     O_2   0.888520 0.125577 0.520676 -0.462946
O58   O     O_2   0.340614 0.421139 0.496072 -0.463855
O59   O     O_2   0.663374 0.575345 0.505304 -0.468613
O60   O     O_2   0.658721 0.373970 0.450347 -0.523754
O61   O     O_2   0.388509 0.625574 0.520671 -0.462940
O62   O     O_R   0.605810 0.438730 0.105820 -0.490323
O63   O     O_R   0.394190 0.561270 0.894180 -0.489816
O64   O     O_R   0.999980 0.938730 0.908830 -0.472907

loop_
_geom_bond_atom_site_label_1
_geom_bond_atom_site_label_2
_ccdc_geom_bond_type
C57   C145  S    
C67   H104  S    
C19   C20   A    
C136  C140  S    
C44   C45   A    
C135  C139  S    
C122  C161  S    
C124  C133  S    
C79   O27   A    
C95   H16   S    
C121  C140  S    
C6    H52   S    
C9    H55   S    
C19   H63   S    
C5    C6    A    
Cu2   O29   S    
C173  C179  A    
C161  H28   S    
C112  O64   A    
C131  C146  S    
C41   C42   A    
C37   C42   A    
C182  C183  A    
C87   H9    S    
Cu5   O4    S    
C41   H82   S    
C146  C150  S    
C98   O32   A    
Cu12  O41   S    
C65   H101  S    
C102  C163  S    
C126  C180  S    
C3    C184  A    
C129  C145  S    
C24   O15   A    
C156  O44   D    
C83   C88   A    
C59   C60   A    
C89   C136  S    
C21   C22   A    
C33   H75   S    
C70   C136  S    
C34   H76   S    
C117  C139  S    
C114  O5    A    
C102  O39   A    
Cu11  O15   S    
C178  H43   S    
C51   H89   S    
C167  H33   S    
C45   C47   A    
C73   C74   A    
C51   C52   A    
C112  C138  S    
C72   H107  S    
C38   H78   S    
C181  C182  A    
C17   C129  S    
C101  O38   A    
Cu10  O20   S    
C169  H35   S    
C13   O16   A    
C43   C44   A    
C37   C38   A    
C47   H86   S    
C175  C176  A    
C147  H102  S    
C2    C104  S    
Cu7   O6    S    
C73   H108  S    
C64   H100  S    
C127  C167  S    
C149  H21   S    
C74   H109  S    
C58   H95   S    
C40   H81   S    
Cu1   O64   S    
C56   C62   A    
C118  C158  S    
C133  C145  S    
C161  O50   D    
C39   C40   A    
C68   C146  S    
C4    C127  S    
C113  O2    A    
C35   O18   A    
C72   C73   A    
C165  O53   D    
C6    C7    A    
Cu6   O45   S    
C49   H88   S    
C30   C36   A    
C100  C141  S    
C10   C16   A    
C159  O48   D    
C32   C33   A    
C116  H1    S    
C22   H66   S    
C170  O59   D    
C24   O17   A    
C116  C156  S    
C124  H91   S    
C57   O25   A    
C20   C21   A    
C61   H98   S    
C29   H72   S    
C68   O21   A    
C137  C142  S    
Cu6   Cu7   S    
C123  C132  S    
C71   H106  S    
C174  O11   A    
C81   H4    S    
C178  C179  A    
C7    C8    A    
C76   C137  S    
C105  C107  T    
C8    H54   S    
C46   O19   A    
C113  O3    A    
C69   H105  S    
C103  C110  T    
C23   C29   A    
Cu2   Cu12  S    
C133  C172  S    
C54   H93   S    
C85   C86   A    
C38   C39   A    
Cu2   O37   S    
Cu3   O35   S    
C27   H70   S    
C90   O30   A    
Cu7   O56   S    
C60   H97   S    
Cu4   O42   S    
C113  C139  S    
C3    H50   S    
C114  C140  S    
C89   C91   A    
Cu11  O25   S    
C66   C67   A    
C157  O46   D    
C10   C128  S    
C181  H45   S    
C17   C18   A    
C173  C175  A    
C57   O20   A    
C170  H37   S    
C114  O8    A    
C76   C82   A    
C91   C92   A    
C75   H110  S    
C46   C144  S    
C155  C163  T    
C25   C26   A    
C80   H3    S    
C103  C174  S    
C2    O10   A    
C120  H47   S    
C125  C165  S    
C3    C180  A    
C83   C84   A    
C2    O13   A    
Cu12  O27   S    
C46   O24   A    
Cu8   O9    S    
C23   C131  S    
C150  H19   S    
C97   O23   A    
C177  C178  A    
C116  C125  S    
C137  C150  S    
C24   C106  S    
C118  C127  S    
C174  O9    A    
C122  C131  S    
C52   C53   A    
C117  C126  S    
C39   H79   S    
C54   C55   A    
C40   C41   A    
C12   H57   S    
Cu9   O22   S    
C152  C154  T    
C147  H17   S    
Cu5   O12   S    
C91   H11   S    
Cu1   Cu5   S    
C11   H56   S    
C71   C72   A    
C148  H13   S    
C141  C153  T    
C44   H84   S    
C125  C143  S    
C30   C132  S    
C126  C144  S    
C56   C58   A    
C172  O61   D    
C176  H41   S    
C34   C36   A    
Cu7   O8    S    
C61   C62   A    
C10   C11   A    
C63   C64   A    
C4    C5    A    
C108  C154  S    
C70   C75   A    
C79   O29   A    
C14   C15   A    
Cu6   O7    S    
C90   C109  S    
C4    C9    A    
C106  C109  T    
Cu4   O33   S    
C184  H49   S    
C32   H74   S    
C162  O51   D    
Cu12  O30   S    
Cu1   O23   S    
C136  C149  S    
C77   C78   A    
C134  C147  S    
C26   C27   A    
C168  O57   D    
C28   H71   S    
C7    H53   S    
C28   C29   A    
C50   C135  S    
C30   C31   A    
Cu5   O34   S    
C165  H31   S    
C18   C19   A    
C115  O6    A    
C160  O49   D    
Cu2   O40   S    
C121  C160  S    
C70   C71   A    
C97   C153  S    
C164  O52   D    
Cu10  Cu11  S    
C115  C142  S    
C171  O60   D    
C48   H87   S    
Cu3   O31   S    
C96   O33   A    
C63   C134  S    
C84   C85   A    
C13   C105  S    
C86   C87   A    
C59   H96   S    
C58   C59   A    
C53   C54   A    
C96   C110  S    
C60   C61   A    
C89   C95   A    
C43   C134  S    
Cu11  O21   S    
Cu2   O28   S    
C98   O35   A    
Cu1   O1    S    
C50   C51   A    
C79   C107  S    
C100  O37   A    
Cu9   O10   S    
C48   C49   A    
Cu10  O26   S    
C118  C139  S    
C36   H77   S    
C83   C137  S    
Cu6   O62   S    
C99   O40   A    
C172  H39   S    
C1    O1    A    
C99   C130  S    
C158  O47   D    
C124  C140  S    
C121  C129  S    
C126  C166  S    
C166  O54   D    
C82   H5    S    
C120  C128  S    
C159  H26   S    
C101  C152  S    
C17   C22   A    
C132  C146  S    
C64   C65   A    
Cu3   Cu4   S    
C52   H90   S    
C16   H61   S    
C77   H111  S    
C78   H112  S    
C123  C142  S    
C92   C93   A    
C1    C151  S    
C78   C80   A    
C127  C144  S    
C94   C95   A    
C128  C143  S    
C18   H62   S    
C85   H7    S    
C160  H27   S    
C87   C88   A    
C166  H32   S    
C175  H40   S    
Cu4   O39   S    
C130  C151  T    
C164  H30   S    
C145  C149  S    
C180  C181  A    
C55   H94   S    
C35   C143  S    
C177  H42   S    
C124  C164  S    
C131  C170  S    
C93   C94   A    
C117  H25   S    
Cu1   O3    S    
C144  C148  S    
C125  C173  S    
Cu8   O13   S    
C81   C82   A    
C121  H58   S    
C143  C147  S    
Cu4   O32   S    
C179  H44   S    
C100  O41   A    
C129  C169  S    
C102  O43   A    
C25   H67   S    
C26   H68   S    
C15   C16   A    
C66   H103  S    
C157  H23   S    
C1    O34   A    
C149  H18   S    
C14   H59   S    
C118  H36   S    
C8    C9    A    
C101  O42   A    
C31   H73   S    
C120  C159  S    
C132  C171  S    
C150  H20   S    
C115  O7    A    
C13   O14   A    
C94   H15   S    
C112  O4    A    
C167  O55   D    
C5    H51   S    
C90   O28   A    
C182  H46   S    
C62   H99   S    
C116  C138  S    
C15   H60   S    
Cu10  O17   S    
C45   H85   S    
C74   C75   A    
C117  C157  S    
C63   C69   A    
C76   C77   A    
C108  O45   A    
C123  C162  S    
C43   C49   A    
C53   H92   S    
C97   O12   A    
C67   C69   A    
Cu9   O11   S    
C35   O22   A    
C92   H12   S    
Cu8   O18   S    
C47   C48   A    
Cu7   O63   S    
C33   C34   A    
C96   O31   A    
Cu5   O2    S    
Cu3   O43   S    
C20   H64   S    
Cu6   O5    S    
C108  O63   A    
C21   H65   S    
C176  C177  A    
C12   C14   A    
C65   C66   A    
C119  O62   A    
C37   C133  S    
C183  H48   S    
C122  C142  S    
C86   H8    S    
C119  O56   A    
C93   H14   S    
C162  H29   S    
C123  H80   S    
C84   H6    S    
C119  C155  S    
C98   C111  S    
Cu9   O19   S    
C31   C32   A    
C88   H10   S    
C80   C81   A    
Cu3   O38   S    
C134  C138  S    
C104  C111  T    
C11   C12   A    
C50   C55   A    
Cu8   Cu9   S    
Cu8   O24   S    
C42   H83   S    
C148  H2    S    
C183  C184  A    
Cu10  O14   S    
C169  O58   D    
C23   C25   A    
C68   O26   A    
Cu12  O36   S    
C56   C135  S    
C99   O36   A    
C168  H34   S    
C120  C138  S    
C158  H24   S    
C135  C148  S    
C27   C28   A    
C128  C168  S    
C156  H22   S    
Cu11  O16   S    
C122  H69   S    
C171  H38   S    
