data_mof_unit_63784.cif
_audit_creation_date              2013-03-05T16:04:00-0500
_audit_creation_method            fapswitch 2.2
_symmetry_space_group_name_H-M    P1
_symmetry_Int_Tables_number       1
_space_group_crystal_system       triclinic
_cell_length_a                    30.528493
_cell_length_b                    30.504431
_cell_length_c                    24.587225
_cell_angle_alpha                 89.964811
_cell_angle_beta                  128.128468
_cell_angle_gamma                 89.982332
_cell_volume                      18011.3868325

loop_
_atom_site_label
_atom_site_type_symbol
_atom_site_description
_atom_site_fract_x
_atom_site_fract_y
_atom_site_fract_z
_atom_type_partial_charge
O1    O     O_R   0.822450 0.770150 0.500010 -0.553697
O2    O     O_R   0.177550 0.770150 0.499990 -0.581668
O3    O     O_R   0.322450 0.270150 0.500010 -0.594658
O4    O     O_R   0.677550 0.270150 0.499990 -0.583135
O5    O     O_R   0.770150 0.822430 0.500030 -0.570711
O6    O     O_R   0.229850 0.822430 0.499970 -0.648130
O7    O     O_R   0.270150 0.322430 0.500030 -0.633329
O8    O     O_R   0.729850 0.322430 0.499970 -0.644824
C1    C     C_R   0.808452 0.810507 0.495763 0.875506
C2    C     C_R   0.188779 0.810594 0.498578 0.936854
C3    C     C_R   0.310463 0.310465 0.499702 0.986259
C4    C     C_R   0.688994 0.310559 0.499161 0.938416
O9    O     O_R   0.725220 0.723850 0.398140 -0.612029
O10   O     O_R   0.274780 0.723850 0.601860 -0.615843
O11   O     O_R   0.225220 0.223850 0.398140 -0.621366
O12   O     O_R   0.774780 0.223850 0.601860 -0.619121
O13   O     O_R   0.672910 0.776140 0.398150 -0.625452
O14   O     O_R   0.327090 0.776140 0.601850 -0.604402
O15   O     O_R   0.172910 0.276140 0.398150 -0.613276
O16   O     O_R   0.827090 0.276140 0.601850 -0.601462
C5    C     C_R   0.682773 0.749935 0.365550 0.825450
C6    C     C_R   0.317320 0.749829 0.634484 0.904497
C7    C     C_R   0.182682 0.249867 0.365512 0.883737
C8    C     C_R   0.817318 0.249826 0.634480 0.904216
Zn1   Zn    Zn3+2 0.784920 0.715080 0.500000 1.112658
Zn2   Zn    Zn3+2 0.215080 0.715080 0.500000 1.084354
Zn3   Zn    Zn3+2 0.284920 0.215080 0.500000 1.069140
Zn4   Zn    Zn3+2 0.715080 0.215080 0.500000 1.073734
Zn5   Zn    Zn3+2 0.715070 0.784900 0.500020 1.070061
Zn6   Zn    Zn3+2 0.284930 0.784900 0.499980 1.039423
Zn7   Zn    Zn3+2 0.215070 0.284900 0.500020 1.071684
Zn8   Zn    Zn3+2 0.784930 0.284900 0.499980 1.042948
O17   O     O_R   0.729840 0.677550 0.499990 -0.630170
O18   O     O_R   0.270160 0.677550 0.500010 -0.638220
O19   O     O_R   0.229840 0.177550 0.499990 -0.632851
O20   O     O_R   0.770160 0.177550 0.500010 -0.641101
O21   O     O_R   0.677530 0.729830 0.500000 -0.582279
O22   O     O_R   0.322470 0.729830 0.500000 -0.598471
O23   O     O_R   0.177530 0.229830 0.500000 -0.584861
O24   O     O_R   0.822470 0.229830 0.500000 -0.597948
O25   O     O_R   0.827070 0.723850 0.601870 -0.571366
O26   O     O_R   0.172930 0.723850 0.398130 -0.573904
O27   O     O_R   0.327070 0.223850 0.601870 -0.578241
O28   O     O_R   0.672930 0.223850 0.398130 -0.573175
O29   O     O_R   0.774770 0.776130 0.601880 -0.610298
O30   O     O_R   0.225230 0.776130 0.398120 -0.629072
O31   O     O_R   0.274770 0.276130 0.601880 -0.613123
O32   O     O_R   0.725230 0.276130 0.398120 -0.629074
C9    C     C_R   0.690772 0.689516 0.502767 0.882116
C10   C     C_R   0.311186 0.689453 0.501345 0.908795
C11   C     C_R   0.190918 0.189510 0.503019 0.879691
C12   C     C_R   0.811111 0.189388 0.501267 0.908806
C13   C     C_R   0.817947 0.750648 0.634562 0.906505
C14   C     C_R   0.182247 0.750527 0.365544 0.911526
C15   C     C_R   0.317738 0.250399 0.634567 0.933182
C16   C     C_R   0.681925 0.250849 0.365517 0.905751
C17   C     C_R   0.611795 0.786523 0.253657 -0.166972
C18   C     C_R   0.391117 0.785055 0.746402 -0.083006
C19   C     C_R   0.108960 0.285149 0.253431 -0.088986
C20   C     C_R   0.890841 0.285116 0.746470 -0.079881
H1    H     H_    0.613849 0.815435 0.280709 0.165335
H2    H     H_    0.391178 0.813060 0.719343 0.178874
H3    H     H_    0.109012 0.313266 0.280351 0.186400
H4    H     H_    0.890645 0.313284 0.719476 0.182541
C21   C     C_R   0.576137 0.786496 0.181770 -0.125963
C22   C     C_R   0.426700 0.785079 0.818267 -0.120867
C23   C     C_R   0.073323 0.285087 0.181557 -0.121848
C24   C     C_R   0.926416 0.285064 0.818339 -0.119372
H5    H     H_    0.550919 0.815267 0.154586 0.164886
H6    H     H_    0.453910 0.812928 0.845337 0.166540
H7    H     H_    0.046232 0.313013 0.154304 0.168499
H8    H     H_    0.953357 0.313030 0.845517 0.168654
C25   C     C_R   0.572606 0.749416 0.145541 0.073203
C26   C     C_R   0.427577 0.749213 0.854628 0.064032
C27   C     C_R   0.072204 0.249012 0.145406 0.067042
C28   C     C_R   0.927650 0.248960 0.854583 0.064057
C29   C     C_R   0.605484 0.712495 0.182042 -0.123427
C30   C     C_R   0.392186 0.713436 0.818264 -0.111140
C31   C     C_R   0.107387 0.213118 0.181935 -0.118215
C32   C     C_R   0.892651 0.213018 0.818148 -0.112751
H9    H     H_    0.603587 0.683611 0.155061 0.166745
H10   H     H_    0.392050 0.685495 0.845362 0.169570
H11   H     H_    0.107310 0.185025 0.154958 0.167112
H12   H     H_    0.892824 0.184900 0.845201 0.168842
C33   C     C_R   0.641853 0.712814 0.253933 -0.152647
C34   C     C_R   0.355883 0.713755 0.746360 -0.148938
C35   C     C_R   0.143792 0.213541 0.253829 -0.164194
C36   C     C_R   0.856300 0.213430 0.746247 -0.153597
H13   H     H_    0.667005 0.684029 0.281214 0.169520
H14   H     H_    0.328720 0.685887 0.719245 0.173996
H15   H     H_    0.170814 0.185582 0.281085 0.169129
H16   H     H_    0.829405 0.185443 0.719053 0.172964
C37   C     C_R   0.645014 0.749762 0.290086 -0.030572
C38   C     C_R   0.355239 0.749528 0.710031 -0.026149
C39   C     C_R   0.144699 0.249527 0.289976 -0.031371
C40   C     C_R   0.855275 0.249451 0.710014 -0.029402
N1    N     N_R   0.515912 0.710981 0.034563 -0.147006
N2    N     N_R   0.481511 0.710934 0.965869 -0.146964
N3    N     N_R   0.017140 0.210590 0.034422 -0.148817
N4    N     N_R   0.982840 0.210576 0.965724 -0.146652
C41   C     C_R   0.465216 0.749212 0.930225 0.306499
C42   C     C_R   0.534855 0.749317 0.069943 0.299359
C43   C     C_R   0.965204 0.248907 0.930148 0.303752
C44   C     C_R   0.034588 0.248935 0.069841 0.301811
N5    N     N_R   0.484305 0.787534 0.965613 -0.145071
N6    N     N_R   0.518381 0.787592 0.034290 -0.150554
N7    N     N_R   0.982822 0.287240 0.965578 -0.141922
N8    N     N_R   0.016768 0.287253 0.034254 -0.141442
C45   C     C_3   0.892589 0.854283 0.571736 -0.377140
C46   C     C_3   0.103609 0.824469 0.487893 -0.314354
C47   C     C_3   0.389487 0.323048 0.496358 -0.314331
C48   C     C_3   0.605862 0.323672 0.493791 -0.310052
H17   H     H_    0.917642 0.824334 0.597512 0.271070
H18   H     H_    0.116608 0.798702 0.527141 0.254334
H19   H     H_    0.369886 0.300230 0.451841 0.245044
H20   H     H_    0.621496 0.298366 0.534442 0.252383
H21   H     H_    0.877524 0.864068 0.601274 0.215864
H22   H     H_    0.077148 0.807409 0.437072 0.248366
H23   H     H_    0.418045 0.302423 0.543178 0.246225
H24   H     H_    0.578027 0.305897 0.443767 0.248334
C49   C     C_3   0.927864 0.891663 0.574811 0.093464
C50   C     C_3   0.068635 0.859891 0.489463 0.052073
C51   C     C_3   0.424142 0.358317 0.493523 0.065059
C52   C     C_3   0.571499 0.358736 0.497572 0.070942
H25   H     H_    0.921557 0.920784 0.596663 0.208428
H26   H     H_    0.027152 0.860420 0.437605 0.190903
H27   H     H_    0.468177 0.354393 0.540551 0.185814
H28   H     H_    0.528127 0.357267 0.448377 0.180597
H29   H     H_    0.946342 0.848981 0.493007 0.213911
H30   H     H_    0.156472 0.898578 0.613842 0.228756
H31   H     H_    0.335400 0.408447 0.386612 0.228333
H32   H     H_    0.659754 0.402252 0.614301 0.227682
C53   C     C_3   0.863047 0.828853 0.453310 -0.009818
C54   C     C_3   0.192527 0.870358 0.568797 -0.018689
C55   C     C_3   0.305498 0.375441 0.436006 -0.033722
C56   C     C_3   0.693242 0.372340 0.567101 -0.016506
C57   C     C_3   0.808711 0.887785 0.461297 0.255532
C58   C     C_3   0.134248 0.878536 0.439379 0.230642
C59   C     C_3   0.374115 0.371979 0.566032 0.200613
C60   C     C_3   0.630670 0.376271 0.437045 0.224369
C61   C     C_3   0.842794 0.844319 0.495777 -0.111738
C62   C     C_3   0.155215 0.844942 0.498850 -0.162733
C63   C     C_3   0.344283 0.344260 0.499022 -0.129395
C64   C     C_3   0.655191 0.344669 0.499552 -0.164046
H33   H     H_    0.772015 0.880564 0.406749 0.097940
H34   H     H_    0.170538 0.895946 0.448711 0.140979
H35   H     H_    0.342158 0.389869 0.565996 0.153177
H36   H     H_    0.665152 0.394645 0.443194 0.142359
C65   C     C_3   0.905599 0.904344 0.499298 -0.186571
C66   C     C_3   0.096187 0.905867 0.500987 -0.206354
C67   C     C_3   0.404282 0.404767 0.498040 -0.206774
C68   C     C_3   0.595667 0.405130 0.501596 -0.214145
C69   C     C_3   0.903760 0.862834 0.460511 0.068360
C70   C     C_3   0.157574 0.906251 0.570680 0.114089
C71   C     C_3   0.340900 0.411545 0.435376 0.115231
C72   C     C_3   0.658105 0.408263 0.568607 0.115546
C73   C     C_3   0.845596 0.922405 0.461316 -0.480294
C74   C     C_3   0.097263 0.913269 0.438965 -0.376333
C75   C     C_3   0.412314 0.405582 0.567317 -0.420092
C76   C     C_3   0.592548 0.409972 0.435962 -0.367376
H37   H     H_    0.846943 0.952823 0.487180 0.226652
H38   H     H_    0.054186 0.911100 0.389354 0.248145
H39   H     H_    0.456564 0.398317 0.611478 0.240611
H40   H     H_    0.548837 0.404879 0.388665 0.247248
H41   H     H_    0.826281 0.932458 0.407500 0.219731
H42   H     H_    0.111751 0.946780 0.439643 0.195885
H43   H     H_    0.403581 0.438288 0.577671 0.259095
H44   H     H_    0.603588 0.443687 0.431228 0.201304
H45   H     H_    0.824923 0.827535 0.398304 0.149967
H46   H     H_    0.226243 0.886473 0.570769 0.180079
H47   H     H_    0.276518 0.391304 0.443211 0.184979
H48   H     H_    0.725170 0.388557 0.565550 0.181084
C77   C     C_R   0.835917 0.762414 0.745962 -0.272236
C78   C     C_R   0.168060 0.754357 0.255839 -0.280622
C79   C     C_R   0.331508 0.256976 0.743921 -0.281805
C80   C     C_R   0.663237 0.261569 0.253607 -0.282311
H49   H     H_    0.792199 0.770346 0.717246 0.217249
H50   H     H_    0.212575 0.759076 0.285627 0.206135
H51   H     H_    0.287479 0.264260 0.713803 0.214796
H52   H     H_    0.707245 0.268029 0.281839 0.211522
C81   C     C_R   0.870666 0.763173 0.818239 0.337813
C82   C     C_R   0.135333 0.749974 0.184100 0.340265
C83   C     C_R   0.363386 0.252757 0.815612 0.337623
C84   C     C_R   0.627998 0.262307 0.181324 0.339831
C85   C     C_R   0.927457 0.752526 0.855175 -0.101509
C86   C     C_R   0.077438 0.742920 0.145460 -0.100325
C87   C     C_R   0.420611 0.242484 0.854886 -0.099170
C88   C     C_R   0.570857 0.253440 0.145095 -0.102906
C89   C     C_R   0.948462 0.742068 0.819898 -0.224245
C90   C     C_R   0.054385 0.738059 0.179838 -0.220978
C91   C     C_R   0.443559 0.234127 0.821071 -0.225354
C92   C     C_R   0.549943 0.245011 0.181067 -0.228839
H53   H     H_    0.992236 0.734157 0.848804 0.212867
H54   H     H_    0.009928 0.733334 0.150448 0.215980
H55   H     H_    0.487523 0.226764 0.850846 0.215442
H56   H     H_    0.505892 0.238531 0.152646 0.211974
C93   C     C_R   0.913997 0.741666 0.747886 0.310116
C94   C     C_R   0.087201 0.741632 0.251585 0.314742
C95   C     C_R   0.411533 0.237494 0.749374 0.312520
C96   C     C_R   0.584945 0.244568 0.253146 0.320537
C97   C     C_R   0.856830 0.751751 0.710355 -0.217710
C98   C     C_R   0.144779 0.749939 0.289939 -0.212356
C99   C     C_R   0.354762 0.249303 0.710325 -0.213889
C100  C     C_R   0.642500 0.252557 0.289871 -0.221281
N9    N     N_R   0.015284 0.771675 0.965876 -0.117655
N10   N     N_R   0.989658 0.722829 0.033751 -0.135755
N11   N     N_R   0.506934 0.220816 0.967190 -0.139047
N12   N     N_R   0.483852 0.273712 0.033976 -0.119100
N13   N     N_R   0.051134 0.768910 0.034355 -0.087416
N14   N     N_R   0.953585 0.725813 0.965273 -0.103139
N15   N     N_R   0.543090 0.224093 0.035608 -0.107180
N16   N     N_R   0.447939 0.270659 0.965524 -0.087700
C101  C     C_R   0.039255 0.744094 0.069527 0.362046
C102  C     C_R   0.965819 0.750446 0.930393 0.369920
C103  C     C_R   0.532161 0.250765 0.069940 0.369563
C104  C     C_R   0.458538 0.243856 0.930876 0.362218
C105  C     C_3   0.625221 0.630665 0.433308 -0.511511
C106  C     C_3   0.328945 0.609448 0.511477 -0.461650
C107  C     C_3   0.124388 0.131400 0.432880 -0.513813
C108  C     C_3   0.827371 0.108987 0.509120 -0.459697
H57   H     H_    0.655674 0.613901 0.429513 0.207737
H58   H     H_    0.285563 0.601976 0.465076 0.214378
H59   H     H_    0.154186 0.114573 0.427956 0.205547
H60   H     H_    0.783379 0.102855 0.463182 0.198799
H61   H     H_    0.602190 0.654103 0.389241 0.210083
H62   H     H_    0.327608 0.609953 0.555520 0.235881
H63   H     H_    0.101422 0.155320 0.389480 0.208911
H64   H     H_    0.827632 0.108699 0.554425 0.233405
C109  C     C_3   0.586277 0.595934 0.428805 0.103972
C110  C     C_3   0.368219 0.573569 0.518661 0.069940
C111  C     C_3   0.085184 0.096866 0.428198 0.107836
C112  C     C_3   0.864510 0.072521 0.512569 0.065735
H65   H     H_    0.601000 0.563291 0.425480 0.144895
H66   H     H_    0.341375 0.549167 0.477111 0.197416
H67   H     H_    0.098896 0.064235 0.423153 0.139496
H68   H     H_    0.836465 0.050794 0.467028 0.112888
H69   H     H_    0.724589 0.607918 0.558642 0.237974
H70   H     H_    0.291072 0.653595 0.389624 0.208894
H71   H     H_    0.224310 0.107301 0.556716 0.236927
H72   H     H_    0.792803 0.154767 0.389703 0.203860
H73   H     H_    0.667831 0.554573 0.546420 0.250122
H74   H     H_    0.335223 0.592838 0.392810 0.236181
H75   H     H_    0.167114 0.053943 0.543626 0.242601
H76   H     H_    0.837587 0.095326 0.390991 0.215789
C113  C     C_3   0.693059 0.622747 0.562110 -0.443697
C114  C     C_3   0.336383 0.656076 0.433549 -0.469361
C115  C     C_3   0.193333 0.121990 0.561304 -0.441233
C116  C     C_3   0.837875 0.156959 0.434601 -0.465348
C117  C     C_3   0.612353 0.677443 0.507962 0.194934
C118  C     C_3   0.408964 0.663295 0.565786 0.148151
C119  C     C_3   0.113577 0.177298 0.510145 0.194621
C120  C     C_3   0.908250 0.161936 0.567276 0.143904
C121  C     C_3   0.656408 0.655884 0.502629 -0.098354
C122  C     C_3   0.346049 0.655668 0.503058 -0.094724
C123  C     C_3   0.156633 0.155834 0.502949 -0.095838
C124  C     C_3   0.845801 0.155366 0.502995 -0.090549
H77   H     H_    0.584307 0.696371 0.459023 0.191559
H78   H     H_    0.412256 0.655197 0.612212 0.181874
H79   H     H_    0.085095 0.196628 0.461733 0.192005
H80   H     H_    0.910211 0.153749 0.612763 0.176769
C125  C     C_3   0.592937 0.596015 0.497998 -0.225592
C126  C     C_3   0.407107 0.595038 0.504243 -0.232529
C127  C     C_3   0.093088 0.095989 0.498221 -0.221540
C128  C     C_3   0.906483 0.094531 0.503812 -0.199500
C129  C     C_3   0.656194 0.586180 0.557077 -0.458864
C130  C     C_3   0.366760 0.617070 0.431081 -0.429794
C131  C     C_3   0.156348 0.085351 0.555916 -0.464857
C132  C     C_3   0.868812 0.118522 0.432034 -0.444957
C133  C     C_3   0.577084 0.642179 0.511285 0.625578
C134  C     C_3   0.446539 0.631782 0.560362 0.612622
C135  C     C_3   0.078620 0.141955 0.513867 0.628091
C136  C     C_3   0.945907 0.129791 0.563097 0.607907
H81   H     H_    0.716690 0.638898 0.613436 0.176318
H82   H     H_    0.350978 0.687288 0.426335 0.202540
H83   H     H_    0.217586 0.137527 0.613131 0.176096
H84   H     H_    0.853115 0.188450 0.429142 0.205040
H85   H     H_    0.665905 0.581792 0.608373 0.240779
H86   H     H_    0.388614 0.628074 0.410557 0.263716
H87   H     H_    0.166772 0.080159 0.607470 0.242322
H88   H     H_    0.892627 0.130512 0.414766 0.266354
O33   O     O_R   0.075080 0.953700 0.557570 -0.567624
O34   O     O_R   0.924920 0.953700 0.442430 -0.595673
O35   O     O_R   0.575080 0.453700 0.557570 -0.570128
O36   O     O_R   0.424920 0.453700 0.442430 -0.575459
O37   O     O_R   0.017620 0.953670 0.442560 -0.629010
O38   O     O_R   0.982380 0.953670 0.557440 -0.554298
O39   O     O_R   0.517620 0.453670 0.442560 -0.630795
O40   O     O_R   0.482380 0.453670 0.557440 -0.598024
C137  C     C_R   0.061740 0.940079 0.500203 0.896964
C138  C     C_R   0.939722 0.938760 0.500059 0.915281
C139  C     C_R   0.561220 0.439516 0.500302 0.903112
C140  C     C_R   0.438968 0.439236 0.499696 0.939704
Zn9   Zn    Zn3+2 0.538360 0.500010 0.576800 1.187223
Zn10  Zn    Zn3+2 0.461640 0.500010 0.423200 1.161453
Zn11  Zn    Zn3+2 0.038360 0.000010 0.576800 1.228408
Zn12  Zn    Zn3+2 0.961640 0.000010 0.423200 1.131523
O41   O     O_R   0.482370 0.546310 0.557450 -0.552504
O42   O     O_R   0.517630 0.546310 0.442550 -0.566683
O43   O     O_R   0.982370 0.046310 0.557450 -0.545773
O44   O     O_R   0.017630 0.046310 0.442550 -0.566734
O45   O     O_R   0.424900 0.546280 0.442440 -0.597877
O46   O     O_R   0.575100 0.546280 0.557560 -0.589228
O47   O     O_R   0.924900 0.046280 0.442440 -0.621999
O48   O     O_R   0.075100 0.046280 0.557560 -0.589368
C141  C     C_R   0.439722 0.561074 0.500651 0.978562
C142  C     C_R   0.560996 0.560421 0.499555 0.943732
C143  C     C_R   0.939571 0.060934 0.500567 0.963523
C144  C     C_R   0.061026 0.060409 0.499587 0.938367
O49   O     O_3   0.789936 0.904636 0.496969 -0.701423
H89   H     H_    0.759719 0.925823 0.465391 0.346112
O50   O     O_3   0.103605 0.857523 0.374676 -0.694802
H90   H     H_    0.130652 0.847570 0.367479 0.347875
O51   O     O_3   0.405361 0.344977 0.624894 -0.700457
H91   H     H_    0.414560 0.362842 0.664469 0.362033
O52   O     O_3   0.599979 0.353193 0.374088 -0.694195
H92   H     H_    0.626511 0.344148 0.365559 0.345490
N17   N     N_R   0.889117 0.872240 0.392255 0.235169
O53   O     O_R   0.924619 0.863401 0.381095 -0.349875
O54   O     O_R   0.839479 0.885497 0.340671 -0.376980
N18   N     N_R   0.184098 0.949586 0.585869 0.192711
O55   O     O_R   0.197035 0.971496 0.639383 -0.339104
O56   O     O_R   0.198904 0.965116 0.550079 -0.444434
N19   N     N_R   0.320907 0.455577 0.434796 0.190666
O57   O     O_R   0.305834 0.482716 0.385119 -0.368953
O58   O     O_R   0.313233 0.466673 0.479471 -0.408950
N20   N     N_R   0.681989 0.452105 0.577829 0.190363
O59   O     O_R   0.696618 0.475923 0.630534 -0.351440
O60   O     O_R   0.692626 0.466412 0.537203 -0.445368
N21   N     N_R   0.848026 0.775920 0.852749 0.223892
O61   O     O_R   0.877104 0.799729 0.908500 -0.333528
O62   O     O_R   0.795888 0.768499 0.823882 -0.328352
N22   N     N_R   0.161982 0.750446 0.152191 0.221278
O63   O     O_R   0.149848 0.720598 0.107005 -0.332015
O64   O     O_R   0.204679 0.775777 0.176398 -0.330961
N23   N     N_R   0.336374 0.256755 0.846827 0.221560
O65   O     O_R   0.345555 0.227750 0.891664 -0.332910
O66   O     O_R   0.295892 0.284661 0.822246 -0.321473
N24   N     N_R   0.650583 0.273082 0.146050 0.222688
O67   O     O_R   0.622009 0.296570 0.089851 -0.336745
O68   O     O_R   0.702314 0.264110 0.174485 -0.339394
N25   N     N_R   0.938220 0.732079 0.714385 0.234753
O69   O     O_R   0.929338 0.758042 0.666536 -0.349488
O70   O     O_R   0.976616 0.702135 0.739699 -0.313895
N26   N     N_R   0.060894 0.738399 0.283833 0.229592
O71   O     O_R   0.073318 0.765986 0.331789 -0.355504
O72   O     O_R   0.018773 0.712167 0.258464 -0.326728
N27   N     N_R   0.438018 0.230303 0.717984 0.225939
O73   O     O_R   0.430304 0.257673 0.672200 -0.312347
O74   O     O_R   0.476481 0.200468 0.742746 -0.335851
N28   N     N_R   0.561004 0.236779 0.287519 0.229389
O75   O     O_R   0.573189 0.262246 0.337541 -0.346934
O76   O     O_R   0.520366 0.208915 0.261729 -0.334654
N29   N     N_R   0.528764 0.601479 0.364974 0.257196
O77   O     O_R   0.503807 0.568431 0.322950 -0.330302
O78   O     O_R   0.506828 0.640285 0.342697 -0.334394
N30   N     N_R   0.398083 0.549450 0.584771 0.262086
O79   O     O_R   0.426217 0.514508 0.594058 -0.366374
O80   O     O_R   0.389393 0.557364 0.629459 -0.322365
N31   N     N_R   0.027440 0.103469 0.365374 0.258592
O81   O     O_R   0.001265 0.071064 0.322298 -0.331745
O82   O     O_R   0.006371 0.142657 0.344782 -0.337820
N32   N     N_R   0.890590 0.043983 0.573939 0.248951
O83   O     O_R   0.915838 0.008372 0.578107 -0.404089
O84   O     O_R   0.879525 0.048366 0.617019 -0.316889
O85   O     O_3   0.634579 0.708600 0.561542 -0.665835
H93   H     H_    0.671015 0.698049 0.602957 0.334310
O86   O     O_3   0.427287 0.707154 0.576043 -0.680821
H94   H     H_    0.415065 0.719606 0.531463 0.364014
O87   O     O_3   0.136853 0.207988 0.564515 -0.666610
H95   H     H_    0.173552 0.197185 0.605113 0.332347
O88   O     O_3   0.927756 0.205523 0.579101 -0.681463
H96   H     H_    0.916446 0.218396 0.535169 0.363519
N33   N     N_R   0.517712 0.653926 0.459416 0.245452
O89   O     O_R   0.478953 0.624291 0.430439 -0.375236
O90   O     O_R   0.502524 0.694597 0.454312 -0.317868
N34   N     N_R   0.491278 0.613531 0.629674 0.247376
O91   O     O_R   0.542527 0.613563 0.651587 -0.237653
O92   O     O_R   0.482800 0.603248 0.673849 -0.338635
N35   N     N_R   0.019337 0.154319 0.463732 0.241357
O93   O     O_R   0.980238 0.124981 0.432690 -0.381121
O94   O     O_R   0.004770 0.194866 0.461247 -0.321433
N36   N     N_R   0.987481 0.109820 0.632102 0.244407
O95   O     O_R   0.040195 0.111300 0.660123 -0.233969
O96   O     O_R   0.974049 0.095577 0.669905 -0.337213
O97   O     O_3   0.587944 0.642258 0.576127 -0.629985
H97   H     H_    0.628579 0.641403 0.613808 0.341423
O98   O     O_3   0.473674 0.654905 0.538930 -0.633655
H98   H     H_    0.446700 0.672830 0.497664 0.356216
O99   O     O_3   0.090885 0.141203 0.579522 -0.633337
H99   H     H_    0.131671 0.140117 0.616313 0.341354
O100  O     O_3   0.976506 0.152647 0.546396 -0.633905
H100  H     H_    0.951464 0.171654 0.505779 0.358633
N37   N     N_R   0.987453 0.880442 0.622519 0.238125
O101  O     O_R   0.005403 0.842719 0.618998 -0.244407
O102  O     O_R   0.021236 0.905083 0.676273 -0.283803
N38   N     N_R   0.059177 0.847291 0.539308 0.220597
O103  O     O_R   0.075264 0.871353 0.592282 -0.308812
O104  O     O_R   0.034620 0.810180 0.530758 -0.282542
N39   N     N_R   0.423192 0.350035 0.433561 0.223213
O105  O     O_R   0.405497 0.378555 0.384730 -0.349556
O106  O     O_R   0.440679 0.312356 0.428955 -0.312084
N40   N     N_R   0.568520 0.347594 0.553760 0.220735
O107  O     O_R   0.581027 0.375214 0.601653 -0.367542
O108  O     O_R   0.550349 0.309064 0.554028 -0.314630
N41   N     N_R   0.888368 0.784903 0.470779 0.252487
O109  O     O_R   0.933800 0.775828 0.532130 -0.253471
O110  O     O_R   0.866521 0.754911 0.423063 -0.313845
N42   N     N_R   0.219812 0.841280 0.629393 0.211425
O111  O     O_R   0.191367 0.820922 0.644888 -0.318578
O112  O     O_R   0.273845 0.838321 0.671412 -0.378951
N43   N     N_R   0.270862 0.351767 0.369807 0.205924
O113  O     O_R   0.292531 0.333565 0.343490 -0.330302
O114  O     O_R   0.217023 0.351472 0.334330 -0.376945
N44   N     N_R   0.723457 0.345210 0.630028 0.209718
O115  O     O_R   0.697540 0.325232 0.649477 -0.328828
O116  O     O_R   0.777554 0.343522 0.669812 -0.379968

loop_
_geom_bond_atom_site_label_1
_geom_bond_atom_site_label_2
_geom_bond_distance
_ccdc_geom_bond_type
Zn12  O47   2.031994 S    
C18   H2    1.083177 S    
C35   H15   1.083162 S    
N43   O114  1.300808 A    
N21   O62   1.301486 A    
C46   H22   1.113255 S    
C31   C35   1.390706 A    
C1    C61   1.470779 S    
C130  H86   1.108212 S    
C117  C121  1.573500 S    
C74   H42   1.109970 S    
C135  N35   1.476942 S    
C7    C39   1.461051 S    
H75   C131  1.113575 S    
Zn10  O42   2.034916 S    
C8    C40   1.461001 S    
C85   C102  1.456402 S    
Zn6   O22   2.033107 S    
C77   C97   1.403676 A    
C65   C69   1.565718 S    
N20   O60   1.301464 A    
C68   C72   1.574582 S    
N14   C102  1.354437 A    
N20   O59   1.301281 A    
C67   C71   1.574372 S    
O4    C4    1.284885 A    
O5    Zn5   2.034403 S    
C28   C43   1.461501 S    
C59   C75   1.538489 S    
C48   C52   1.540502 S    
N44   O116  1.300740 A    
N9    N13   1.328192 A    
C110  N30   1.477433 S    
N29   O78   1.302108 A    
C88   C103  1.456519 S    
C90   H54   1.083571 S    
C105  H57   1.114165 S    
N19   O57   1.301309 A    
C114  H82   1.110938 S    
C34   H14   1.083157 S    
Zn1   O25   2.005493 S    
N23   O66   1.301375 A    
Zn11  O43   2.033779 S    
Zn3   O19   2.034399 S    
C113  C121  1.545751 S    
Zn4   O28   2.004979 S    
O13   C5    1.292595 A    
Zn5   O29   2.006972 S    
C86   C90   1.402221 A    
C127  C131  1.569501 S    
C72   N20   1.472562 S    
C30   H10   1.083088 S    
O11   Zn3   2.006974 S    
O45   C141  1.287655 A    
N12   N16   1.328533 A    
C15   C99   1.465725 S    
O9    C5    1.292601 A    
O2    Zn2   2.033020 S    
O10   Zn2   2.007532 S    
C26   C41   1.462113 S    
O6    Zn6   2.033816 S    
N42   O112  1.300721 A    
N9    C102  1.354738 A    
O19   C11   1.288247 A    
O99   H99   0.989355 S    
H73   C129  1.113318 S    
C115  H83   1.110182 S    
O98   H98   0.986842 S    
C92   H56   1.084339 S    
C120  H80   1.110745 S    
C79   C83   1.397162 A    
C89   C93   1.393445 A    
C80   C84   1.398360 A    
C70   N18   1.473238 S    
C113  C129  1.534661 S    
N38   O104  1.301519 A    
O47   C143  1.285858 A    
C17   H1    1.083252 S    
C135  O99   1.414275 S    
N37   O101  1.300116 A    
O46   C142  1.283075 A    
C19   H3    1.083127 S    
C20   H4    1.083172 S    
C20   C24   1.390025 A    
C32   C36   1.390795 A    
O24   C12   1.287135 A    
N41   O109  1.300564 A    
C58   O50   1.407373 S    
C45   C49   1.538145 S    
C22   H6    1.083103 S    
C5    C37   1.459576 S    
N11   C104  1.357805 A    
C49   C65   1.580940 S    
C110  H66   1.112125 S    
C76   H44   1.110570 S    
C126  C141  1.476714 S    
N28   O75   1.300368 A    
O3    C3    1.281670 A    
N23   O65   1.301464 A    
C4    C64   1.469455 S    
C93   N25   1.436394 S    
O36   C140  1.270638 A    
N31   O81   1.301557 A    
C25   C29   1.402508 A    
C43   N7    1.355908 A    
O85   H93   0.989169 S    
C3    C63   1.466623 S    
C106  H62   1.108675 S    
C46   C50   1.536012 S    
C67   C75   1.564085 S    
O23   C11   1.283524 A    
C59   C63   1.551855 S    
C54   N42   1.471675 S    
C78   C82   1.396967 A    
N1    N2    1.328645 A    
O51   H91   0.992954 S    
C49   H25   1.114938 S    
C107  C123  1.549342 S    
C2    C62   1.468186 S    
C82   N22   1.437277 S    
C71   N19   1.471604 S    
N32   O83   1.298627 A    
N39   O105  1.299101 A    
C22   C26   1.402207 A    
O37   C137  1.279224 A    
C112  H68   1.115131 S    
C109  N29   1.473509 S    
C67   C140  1.475145 S    
C58   C74   1.543549 S    
Zn10  O45   2.031994 S    
C19   C23   1.390122 A    
C33   C37   1.401822 A    
O34   C138  1.275935 A    
N3    N4    1.328698 A    
C75   H43   1.102365 S    
C35   C39   1.402310 A    
C94   C98   1.413114 A    
N7    N8    1.328278 A    
C77   H49   1.083655 S    
C46   H18   1.110182 S    
C125  C133  1.587242 S    
O20   C12   1.283301 A    
C47   C63   1.561581 S    
C115  C131  1.535491 S    
C112  N32   1.477503 S    
O29   C13   1.295387 A    
N11   N15   1.328749 A    
C6    C38   1.461201 S    
O41   C141  1.265647 A    
N34   O92   1.300727 A    
N25   O70   1.301341 A    
O22   C10   1.284946 A    
N22   O63   1.301467 A    
C73   H41   1.108369 S    
N16   C104  1.356477 A    
C92   C96   1.394382 A    
C60   O52   1.407253 S    
N19   O58   1.301603 A    
N18   O56   1.301519 A    
O5    C1    1.289110 A    
N10   N14   1.328888 A    
C51   H27   1.113013 S    
C50   C66   1.568957 S    
O36   Zn10  2.032356 S    
O8    C4    1.287192 A    
C17   C21   1.390371 A    
N30   O80   1.302359 A    
C106  C122  1.561054 S    
C53   N41   1.472432 S    
H30   C70   1.107225 S    
C128  C143  1.475138 S    
O25   C13   1.291908 A    
O27   C15   1.291065 A    
O30   C14   1.294969 A    
N12   C103  1.354696 A    
N24   O68   1.301490 A    
C23   C27   1.402109 A    
C11   C123  1.466016 S    
O40   C140  1.282039 A    
C48   H20   1.110142 S    
C55   N43   1.471555 S    
Zn2   O26   2.004979 S    
N40   O107  1.299425 A    
O16   Zn8   2.004897 S    
C111  C127  1.584320 S    
C87   C104  1.470362 S    
C65   C138  1.471179 S    
C112  C128  1.574840 S    
O14   C6    1.292991 A    
Zn6   O30   2.007534 S    
C28   C32   1.402209 A    
C107  C111  1.544713 S    
C85   C89   1.397273 A    
C109  C125  1.583832 S    
C24   C28   1.402068 A    
C83   N23   1.437203 S    
C57   C73   1.543804 S    
C88   C92   1.397552 A    
O10   C6    1.293477 A    
O3    Zn3   2.033607 S    
C60   C76   1.540446 S    
H29   C69   1.106121 S    
O34   Zn12  2.032356 S    
C136  N36   1.483151 S    
O35   Zn9   2.032280 S    
C108  C124  1.563853 S    
H32   C72   1.108274 S    
O39   C139  1.280271 A    
H74   C130  1.114146 S    
C109  H65   1.115993 S    
C91   H55   1.083558 S    
C50   N38   1.472933 S    
C89   H53   1.084417 S    
O48   C144  1.282576 A    
N26   O71   1.300568 A    
C54   H46   1.114528 S    
C111  H67   1.115969 S    
C114  C130  1.532423 S    
C136  O100  1.414607 S    
C105  H61   1.112431 S    
C13   C97   1.466792 S    
C118  C122  1.569921 S    
C36   C40   1.402265 A    
C84   N24   1.440073 S    
N36   O95   1.302862 A    
O13   Zn5   2.005415 S    
C80   C100  1.402898 A    
C32   H12   1.083115 S    
O15   Zn7   2.005415 S    
N29   O77   1.301568 A    
C45   H21   1.113869 S    
N35   O93   1.297962 A    
C120  O88   1.412116 S    
C76   H40   1.114133 S    
C57   H33   1.116893 S    
C127  C144  1.475939 S    
N33   O90   1.302917 A    
O17   C9    1.288691 A    
O88   H96   0.989472 S    
C86   C101  1.469082 S    
C78   C98   1.400719 A    
C95   N27   1.438114 S    
C108  H64   1.109051 S    
H71   C115  1.113264 S    
C82   C86   1.414113 A    
N17   O54   1.301593 A    
C53   H45   1.114293 S    
C106  C110  1.550482 S    
C119  H79   1.114159 S    
C59   O51   1.405791 S    
C56   H48   1.114605 S    
C55   H47   1.114306 S    
C78   H50   1.084052 S    
N1    C42   1.356171 A    
C52   H28   1.113855 S    
C94   N26   1.438639 S    
N3    C44   1.356133 A    
C77   C81   1.398600 A    
O52   H92   0.992897 S    
C128  C136  1.602031 S    
Zn7   O31   2.006972 S    
C95   C99   1.414112 A    
Zn8   O32   2.007534 S    
C51   C67   1.571741 S    
O38   C138  1.274986 A    
C47   C51   1.540554 S    
C117  C133  1.559606 S    
O1    C1    1.285872 A    
N38   O103  1.299196 A    
C58   C62   1.562059 S    
C51   N39   1.478476 S    
N27   O73   1.300437 A    
C33   H13   1.083244 S    
C114  C122  1.544404 S    
O35   C139  1.270443 A    
O49   H89   0.993035 S    
N4    C43   1.356102 A    
C125  C129  1.569866 S    
C10   C122  1.463069 S    
C83   C87   1.413787 A    
C54   C62   1.561877 S    
O21   C9    1.282958 A    
O28   C16   1.291481 A    
C119  C123  1.573041 S    
C29   H9    1.083090 S    
H70   C114  1.113991 S    
C105  C121  1.549701 S    
O40   Zn9   2.035483 S    
N28   O76   1.301373 A    
C16   C100  1.464997 S    
C20   C40   1.402169 A    
N10   C101  1.357844 A    
C25   C42   1.462142 S    
C27   C44   1.461510 S    
C73   H37   1.111525 S    
C44   N8    1.355881 A    
C90   C94   1.394785 A    
C48   H24   1.113272 S    
O97   H97   0.989281 S    
C57   C61   1.570964 S    
C66   C74   1.561695 S    
C45   C61   1.544814 S    
C60   C64   1.558427 S    
C117  H77   1.113995 S    
O6    C2    1.284898 A    
N2    C41   1.356092 A    
N5    N6    1.328303 A    
C132  H88   1.106232 S    
C53   C61   1.578832 S    
H31   C71   1.107348 S    
C12   C124  1.464288 S    
C79   C99   1.401916 A    
C56   C64   1.562121 S    
C69   N17   1.473591 S    
O26   C14   1.290640 A    
C31   H11   1.083123 S    
C129  H85   1.111103 S    
O43   C143  1.266715 A    
C54   C70   1.549147 S    
N32   O84   1.302276 A    
C21   H5    1.083097 S    
O37   Zn12  2.034348 S    
C131  H87   1.111172 S    
O38   Zn11  2.035483 S    
C23   H7    1.083131 S    
Zn9   O41   2.033779 S    
N13   C101  1.356094 A    
C57   O49   1.408241 S    
C107  H59   1.114195 S    
Zn3   O27   2.005493 S    
Zn12  O44   2.034916 S    
N42   O111  1.301339 A    
Zn4   O20   2.033820 S    
C26   C30   1.402440 A    
Zn5   O21   2.033692 S    
N43   O113  1.301269 A    
H72   C116  1.113947 S    
C133  O97   1.413864 S    
C107  H63   1.112455 S    
C65   C73   1.554804 S    
C81   N21   1.439902 S    
C115  C123  1.546675 S    
O12   Zn4   2.007532 S    
N15   C103  1.354351 A    
O50   H90   0.992814 S    
C68   C76   1.563677 S    
N21   O61   1.301362 A    
O15   C7    1.292874 A    
O86   H94   0.989596 S    
C119  O87   1.413265 S    
C60   H36   1.117632 S    
C21   C25   1.402580 A    
O100  H100  0.987014 S    
N39   O106  1.301307 A    
N25   O69   1.299854 A    
O7    C3    1.288349 A    
N37   O102  1.301514 A    
C59   H35   1.117232 S    
C53   C69   1.542730 S    
C47   H23   1.113807 S    
C91   C95   1.394782 A    
C116  H84   1.111078 S    
N41   O110  1.301426 A    
C56   C72   1.549598 S    
N35   O94   1.302809 A    
C126  C134  1.600300 S    
C55   C71   1.550038 S    
C113  H81   1.110183 S    
C46   C62   1.556048 S    
C34   C38   1.402210 A    
C105  C109  1.544836 S    
Zn2   O18   2.033820 S    
C36   H16   1.083166 S    
C93   C97   1.415127 A    
O14   Zn6   2.004897 S    
C87   C91   1.402318 A    
C24   H8    1.083136 S    
C120  C124  1.566076 S    
O44   C144  1.270286 A    
O11   C7    1.293052 A    
C52   C68   1.570880 S    
O12   C8    1.293379 A    
C17   C37   1.401646 A    
O1    Zn1   2.033607 S    
O9    Zn1   2.006974 S    
O33   Zn11  2.032280 S    
C19   C39   1.402151 A    
O4    Zn4   2.033020 S    
C18   C22   1.389964 A    
C106  H58   1.114561 S    
N40   O108  1.301553 A    
C134  O98   1.414350 S    
C41   N5    1.355983 A    
O18   C10   1.284958 A    
O7    Zn7   2.034403 S    
C108  C112  1.552560 S    
H69   C113  1.113329 S    
O8    Zn8   2.033816 S    
O16   C8    1.293003 A    
C119  C135  1.559112 S    
C81   C85   1.411054 A    
C120  C136  1.561722 S    
C79   H51   1.083950 S    
C14   C98   1.462422 S    
C55   C63   1.561850 S    
C84   C88   1.411184 A    
H76   C132  1.114057 S    
C50   H26   1.111675 S    
C96   C100  1.415415 A    
N27   O74   1.301399 A    
C9    C121  1.466069 S    
C118  O86   1.411788 S    
C80   H52   1.083704 S    
C128  C132  1.569855 S    
C96   N28   1.437883 S    
N31   O82   1.302207 A    
O42   C142  1.269728 A    
N26   O72   1.301422 A    
C134  N34   1.484512 S    
C75   H39   1.114098 S    
C125  C142  1.475783 S    
C68   C139  1.471416 S    
C27   C31   1.402155 A    
C118  C134  1.563977 S    
O2    C2    1.286734 A    
C108  H60   1.114302 S    
N34   O91   1.302773 A    
O31   C15   1.295924 A    
O87   H95   0.989240 S    
C49   N37   1.471910 S    
O32   C16   1.295301 A    
C110  C126  1.576058 S    
N36   O96   1.300409 A    
C126  C130  1.570535 S    
C133  N33   1.478071 S    
C116  C124  1.544703 S    
C116  C132  1.530935 S    
C45   H17   1.105254 S    
O39   Zn10  2.034348 S    
C58   H34   1.117450 S    
C56   N44   1.471456 S    
N18   O55   1.301311 A    
C48   C64   1.560578 S    
C18   C38   1.402214 A    
N33   O89   1.298205 A    
C30   C34   1.390822 A    
N44   O115  1.301239 A    
C117  O85   1.413253 S    
C127  C135  1.587195 S    
N30   O79   1.297257 A    
Zn7   O23   2.033692 S    
C42   N6    1.355911 A    
Zn8   O24   2.033107 S    
C111  N31   1.473457 S    
N17   O53   1.299955 A    
C74   H38   1.114002 S    
C29   C33   1.390613 A    
N22   O64   1.301378 A    
N24   O67   1.301374 A    
C66   C70   1.575762 S    
Zn1   O17   2.034399 S    
C66   C137  1.472989 S    
C47   H19   1.110397 S    
Zn9   O46   2.032073 S    
C52   N40   1.478828 S    
C118  H78   1.109989 S    
O33   C137  1.272580 A    
Zn11  O48   2.032073 S    
