data_mof_unit_16795.cif
_audit_creation_date              2012-10-26T19:21:08-0400
_audit_creation_method            fapswitch 2.2
_symmetry_space_group_name_H-M    P1
_symmetry_Int_Tables_number       1
_space_group_crystal_system       triclinic
_cell_length_a                    9.804991
_cell_length_b                    11.01553
_cell_length_c                    13.368032
_cell_angle_alpha                 94.348422
_cell_angle_beta                  81.075578
_cell_angle_gamma                 111.679242
_cell_volume                      1325.20258264

loop_
_atom_site_label
_atom_site_type_symbol
_atom_type_description
_atom_site_fract_x
_atom_site_fract_y
_atom_site_fract_z
_atom_type_partial_charge
C1    C     C_R   0.558329 0.746152 0.504551 0.530913
C2    C     C_R   0.377048 0.508811 0.801887 -0.002792
C3    C     C_2   0.593533 0.886602 0.501377 -0.148530
C4    C     C_R   0.423269 0.497161 0.691233 0.543664
C5    C     C_2   0.492968 0.929582 0.476579 -0.172135
C6    C     C_2   0.403989 0.111774 0.500332 0.001425
C7    C     C_2   0.517326 0.068438 0.478712 -0.157345
C8    C     C_2   0.920900 0.488356 0.492043 0.009578
C9    C     C_2   0.079584 0.515401 0.504072 0.084441
C10   C     C_R   0.440563 0.253506 0.497065 0.566566
C11   C     C_R   0.579354 0.514895 0.309027 0.541484
C12   C     C_R   0.444759 0.520950 0.972113 0.019786
C13   C     C_R   0.821282 0.639198 0.058448 0.016372
C14   C     C_R   0.631187 0.540547 0.200156 -0.022231
C15   C     C_R   0.224821 0.456211 0.841496 0.252328
C16   C     C_R   0.184888 0.441203 0.946434 -0.145133
C17   C     C_R   0.292205 0.466207 0.009696 -0.168994
C18   C     C_3   0.880240 0.781735 0.270303 0.014057
C19   C     C_3   0.999753 0.838769 0.338545 -0.366526
C20   C     C_3   0.245987 0.015985 0.532540 -0.291276
C21   C     C_3   0.130600 0.075521 0.576612 -0.421801
C22   C     C_3   0.134201 0.316925 0.319488 0.048968
C23   C     C_R   0.484868 0.559867 0.869721 -0.006792
C24   C     C_3   0.016145 0.217816 0.263051 -0.426344
C25   C     C_3   0.984862 0.688763 0.015230 -0.251292
C26   C     C_3   0.053959 0.837842 0.010178 -0.443925
C27   C     C_3   0.002353 0.313508 0.793040 -0.018021
C28   C     C_3   0.915692 0.282004 0.703400 -0.353295
C29   C     C_3   0.664665 0.751586 0.758612 -0.243554
C30   C     C_3   0.713014 0.891482 0.801377 -0.469495
C31   C     C_R   0.557875 0.545057 0.034542 0.008009
C32   C     C_R   0.708464 0.613964 0.995875 -0.004079
C33   C     C_R   0.741646 0.665674 0.898641 -0.112567
C34   C     C_R   0.629897 0.651735 0.840548 0.028410
C35   C     C_R   0.524945 0.500752 0.134193 -0.185088
C36   C     C_R   0.779923 0.613631 0.162872 0.254821
Cu1   Cu    Cu3+1 0.362000 0.479240 0.482530 0.960707
Cu2   Cu    Cu3+1 0.638000 0.520760 0.517470 0.906696
H1    H     H_    0.387700 0.860731 0.457557 0.154299
H2    H     H_    0.631141 0.136303 0.462664 0.148031
H3    H     H_    0.771576 0.768403 0.316727 0.147199
H4    H     H_    0.898544 0.853628 0.210877 0.110124
H5    H     H_    0.993803 0.931243 0.374398 0.087618
H6    H     H_    0.983435 0.768914 0.398969 0.175741
H7    H     H_    0.110756 0.859075 0.293558 0.140278
H8    H     H_    0.172951 0.149658 0.636491 0.165508
H9    H     H_    0.098908 0.119228 0.516063 0.199869
H10   H     H_    0.028689 0.997378 0.611177 0.113730
H11   H     H_    0.206207 0.952516 0.466780 0.128478
H12   H     H_    0.699615 0.954310 0.520330 0.102558
H13   H     H_    0.249677 0.952556 0.592191 0.145229
H14   H     H_    0.225165 0.279780 0.319036 0.173002
H15   H     H_    0.175998 0.410635 0.278062 0.138966
H16   H     H_    0.924424 0.253285 0.260446 0.154009
H17   H     H_    0.064998 0.203741 0.184361 0.090148
H18   H     H_    0.970996 0.122616 0.301800 0.145161
H19   H     H_    0.154019 0.866308 0.952326 0.135630
H20   H     H_    0.975525 0.880212 0.989841 0.138361
H21   H     H_    0.089606 0.880411 0.083882 0.154706
H22   H     H_    0.048305 0.654187 0.061068 0.182670
H23   H     H_    0.135353 0.598095 0.551169 0.099630
H24   H     H_    0.999572 0.644991 0.938522 0.143217
H25   H     H_    0.924251 0.317002 0.861974 0.126032
H26   H     H_    0.045095 0.233913 0.799092 0.115848
H27   H     H_    0.988765 0.275426 0.632654 0.191828
H28   H     H_    0.821690 0.187477 0.714825 0.084285
H29   H     H_    0.871123 0.359582 0.695901 0.171930
H30   H     H_    0.628510 0.901294 0.863896 0.159381
H31   H     H_    0.821571 0.920453 0.829597 0.134621
H32   H     H_    0.724844 0.959031 0.740398 0.132920
H33   H     H_    0.754363 0.742581 0.700258 0.168038
H34   H     H_    0.868142 0.415224 0.437081 0.193883
H35   H     H_    0.566198 0.737986 0.721863 0.155823
H36   H     H_    0.898364 0.622950 0.594042 0.187619
H37   H     H_    0.853245 0.727753 0.870149 0.115396
H38   H     H_    0.415238 0.436918 0.163562 0.110257
H39   H     H_    0.251446 0.448928 0.088879 0.104864
H40   H     H_    0.070034 0.408686 0.980209 0.103982
N1    N     N_2   0.845330 0.551960 0.543750 -0.382588
N2    N     N_2   0.154690 0.448120 0.456210 -0.056909
O1    O     O_R   0.426290 0.668220 0.490680 -0.514227
O2    O     O_3   0.071433 0.330848 0.419664 -0.518020
O3    O     O_3   0.118704 0.436015 0.777675 -0.548122
O4    O     O_R   0.659360 0.703290 0.520190 -0.515573
O5    O     O_R   0.326580 0.473880 0.629020 -0.444122
O6    O     O_R   0.559660 0.508940 0.658530 -0.501892
O7    O     O_R   0.340640 0.296710 0.479810 -0.486210
O8    O     O_R   0.573710 0.331780 0.509320 -0.505359
O9    O     O_R   0.440340 0.491060 0.341470 -0.532483
O10   O     O_R   0.673420 0.526120 0.370980 -0.450762
O11   O     O_3   0.885595 0.661608 0.227858 -0.551616

loop_
_geom_bond_atom_site_label_1
_geom_bond_atom_site_label_2
_ccdc_geom_bond_type
C13   C32   A    
C2    C4    S    
C13   C25   S    
C24   H17   S    
C12   C23   A    
C10   O8    A    
C20   H11   S    
Cu2   O6    S    
C9    H23   S    
C18   O11   S    
C22   O2    S    
Cu1   O5    S    
C20   H13   S    
C18   H4    S    
C14   C36   A    
C11   C14   S    
C4    O6    A    
Cu2   N1    S    
C1    O1    A    
C15   C16   A    
C18   C19   S    
C33   H37   S    
C8    C9    S    
C12   C17   A    
C8    N1    D    
C7    H2    S    
C25   H22   S    
C29   C30   S    
C26   H21   S    
C21   H10   S    
Cu1   O1    S    
C30   H32   S    
C3    H12   S    
C19   H5    S    
C22   H15   S    
C10   O7    A    
Cu1   N2    S    
C35   H38   S    
C8    H34   S    
C28   H29   S    
C13   C36   A    
N2    O2    S    
C18   H3    S    
C14   C35   A    
C5    C7    S    
C16   C17   A    
C15   O3    S    
C4    O5    A    
C25   C26   S    
C29   C34   S    
Cu2   O8    S    
C1    O4    A    
C9    N2    D    
C28   H28   S    
Cu1   Cu2   S    
C11   O9    A    
C31   C32   A    
C23   C34   A    
C17   H39   S    
C33   C34   A    
C2    C15   A    
C26   H20   S    
C27   H25   S    
C36   O11   S    
H36   N1    S    
C5    H1    S    
C12   C31   A    
C22   C24   S    
C2    C23   A    
C30   H31   S    
C19   H6    S    
C22   H14   S    
C21   H8    S    
Cu2   O4    S    
Cu1   O7    S    
C3    C5    D    
C6    C10   S    
C19   H7    S    
C6    C7    D    
C24   H18   S    
C6    C20   S    
Cu2   O10   S    
Cu1   O9    S    
C32   C33   A    
C27   O3    S    
C28   H27   S    
C11   O10   A    
C31   C35   A    
C16   H40   S    
C25   H24   S    
C26   H19   S    
C21   H9    S    
C27   H26   S    
C29   H35   S    
C20   C21   S    
C27   C28   S    
C1    C3    S    
C24   H16   S    
C30   H30   S    
C29   H33   S    
