data_mof_unit_46509.cif
_audit_creation_date              2013-03-05T16:12:27-0500
_audit_creation_method            fapswitch 2.2
_symmetry_space_group_name_H-M    P1
_symmetry_Int_Tables_number       1
_space_group_crystal_system       triclinic
_cell_length_a                    10.808565
_cell_length_b                    9.998424
_cell_length_c                    23.234823
_cell_angle_alpha                 90.003556
_cell_angle_beta                  92.377508
_cell_angle_gamma                 90.000255
_cell_volume                      2508.79370199

loop_
_atom_site_label
_atom_site_type_symbol
_atom_site_description
_atom_site_fract_x
_atom_site_fract_y
_atom_site_fract_z
_atom_type_partial_charge
O1    O     O_R   0.316770 0.614620 0.500000 -0.578100
O2    O     O_R   0.683230 0.385380 0.500000 -0.579513
O3    O     O_R   0.683230 0.614620 0.500000 -0.578100
O4    O     O_R   0.316770 0.385380 0.500000 -0.579511
C1    C     C_R   0.260775 0.499924 0.505692 0.936574
C2    C     C_R   0.739223 0.499923 0.494305 0.936565
O5    O     O_R   0.499970 0.614690 0.416160 -0.591137
O6    O     O_R   0.500030 0.385310 0.583840 -0.607255
O7    O     O_R   0.500030 0.614690 0.583840 -0.591149
O8    O     O_R   0.499970 0.385310 0.416160 -0.607262
C3    C     C_R   0.497189 0.499508 0.389514 0.929241
C4    C     C_R   0.502813 0.499517 0.610485 0.929253
Zn1   Zn    Zn3+2 0.500000 0.653120 0.500000 1.046980
Zn2   Zn    Zn3+2 0.500000 0.346880 0.500000 1.034885
C5    C     C_R   0.617032 0.570134 0.886149 0.574154
C6    C     C_R   0.382931 0.570179 0.113858 0.574055
N1    N     N_R   0.512224 0.586318 0.851689 -0.340230
N2    N     N_R   0.487746 0.586319 0.148320 -0.340258
C7    C     C_R   0.404070 0.627312 0.874892 0.566935
C8    C     C_R   0.595915 0.627276 0.125121 0.566968
C9    C     C_R   0.392768 0.625703 0.935109 -0.069843
C10   C     C_R   0.607216 0.625674 0.064903 -0.069882
C11   C     C_R   0.502268 0.617096 0.969921 -0.116343
C12   C     C_R   0.497712 0.617101 0.030091 -0.116368
C13   C     C_R   0.616667 0.605309 0.944497 -0.079159
C14   C     C_R   0.383308 0.605357 0.055513 -0.079137
C15   C     C_R   0.277392 0.633361 0.961447 0.156648
C16   C     C_R   0.722593 0.633302 0.038564 0.156658
C17   C     C_R   0.273319 0.624688 0.022098 0.179497
C18   C     C_R   0.726661 0.624616 0.977913 0.179477
O9    O     O_2   0.719397 0.514660 0.864878 -0.524618
O10   O     O_2   0.280551 0.514730 0.135123 -0.524624
O11   O     O_2   0.308686 0.667414 0.839759 -0.527243
O12   O     O_2   0.691315 0.667321 0.160258 -0.527193
C19   C     C_R   0.579380 0.470519 0.234285 0.232408
C20   C     C_R   0.420556 0.470615 0.765702 0.232363
C21   C     C_R   0.587552 0.455758 0.294447 0.068868
C22   C     C_R   0.412405 0.455838 0.705542 0.068920
C23   C     C_R   0.488015 0.499188 0.326880 -0.186289
C24   C     C_R   0.511969 0.499223 0.673120 -0.186310
C25   C     C_R   0.381852 0.553059 0.299123 0.059152
C26   C     C_R   0.618134 0.553083 0.700884 0.059138
C27   C     C_R   0.389492 0.600886 0.242837 0.201845
C28   C     C_R   0.610491 0.600909 0.757175 0.201866
C29   C     C_R   0.486308 0.554273 0.208924 0.137423
C30   C     C_R   0.513656 0.554313 0.791079 0.137371
C31   C     C_R   0.062096 0.377487 0.508761 0.162237
C32   C     C_R   0.938038 0.621489 0.491067 0.167276
C33   C     C_R   0.937898 0.377486 0.491226 0.162248
C34   C     C_R   0.061961 0.621490 0.508928 0.167274
C35   C     C_R   0.872974 0.499596 0.488583 -0.279383
C36   C     C_R   0.127023 0.499597 0.511409 -0.279392
C37   C     C_R   0.575625 0.071987 0.537896 0.178736
C38   C     C_R   0.424063 0.929180 0.462402 0.178556
C39   C     C_R   0.424377 0.071976 0.462103 0.178727
C40   C     C_R   0.575936 0.929190 0.537598 0.178539
N3    N     N_R   0.500000 0.857200 0.500000 -0.151102
N4    N     N_R   0.500000 0.142800 0.500000 -0.156745
N5    N     N_2   0.166059 0.644080 0.927069 -0.265224
H1    H     H_    0.103215 0.710697 0.942623 0.221068
C41   C     C_3   0.112921 0.516935 0.909283 -0.684124
H2    H     H_    0.082567 0.459854 0.947202 0.200756
H3    H     H_    0.181573 0.456142 0.886663 0.263488
H4    H     H_    0.032000 0.534290 0.879220 0.273262
N6    N     N_2   0.833928 0.644039 0.072940 -0.265224
H5    H     H_    0.896761 0.710664 0.057385 0.221052
C42   C     C_3   0.887087 0.516906 0.090720 -0.684047
H6    H     H_    0.917421 0.459813 0.052798 0.200733
H7    H     H_    0.818457 0.456117 0.113354 0.263545
H8    H     H_    0.968028 0.534280 0.120771 0.273275
N7    N     N_2   0.161153 0.646408 0.050457 -0.266338
H9    H     H_    0.083204 0.609696 0.029482 0.212555
C43   C     C_3   0.147335 0.780634 0.072741 -0.746765
H10   H     H_    0.075976 0.781188 0.105673 0.256699
H11   H     H_    0.119172 0.850068 0.037240 0.213502
H12   H     H_    0.235155 0.816713 0.093930 0.252680
N8    N     N_2   0.838830 0.646310 0.949553 -0.266334
H13   H     H_    0.916773 0.609585 0.970525 0.212562
C44   C     C_3   0.852671 0.780527 0.927269 -0.746762
H14   H     H_    0.923961 0.781034 0.894304 0.256742
H15   H     H_    0.880940 0.849946 0.962763 0.213479
H16   H     H_    0.764831 0.816661 0.906119 0.252648
N9    N     N_2   0.664081 0.402133 0.199121 -0.285469
H17   H     H_    0.749753 0.382090 0.218284 0.269247
C45   C     C_3   0.612004 0.287214 0.169050 -0.777618
H18   H     H_    0.681947 0.244079 0.140697 0.238741
H19   H     H_    0.529732 0.316333 0.141681 0.250886
H20   H     H_    0.585048 0.209708 0.200457 0.257671
N10   N     N_2   0.335831 0.402260 0.800857 -0.285492
H21   H     H_    0.250073 0.382491 0.781721 0.269245
C46   C     C_3   0.387780 0.287088 0.830782 -0.777534
H22   H     H_    0.317897 0.244058 0.859190 0.238759
H23   H     H_    0.470282 0.315872 0.858068 0.250945
H24   H     H_    0.414341 0.209609 0.799278 0.257702
N11   N     N_2   0.694276 0.394913 0.321287 -0.315003
H25   H     H_    0.676742 0.332099 0.355102 0.265764
C47   C     C_3   0.794593 0.487188 0.334387 -0.706017
H26   H     H_    0.766358 0.561298 0.366920 0.233942
H27   H     H_    0.821395 0.540627 0.294872 0.269764
H28   H     H_    0.876536 0.431362 0.351927 0.265791
N12   N     N_2   0.305679 0.395005 0.678696 -0.314948
H29   H     H_    0.323219 0.332156 0.644889 0.265745
C48   C     C_3   0.205399 0.487305 0.665569 -0.706026
H30   H     H_    0.233699 0.561406 0.633050 0.233940
H31   H     H_    0.178551 0.540753 0.705077 0.269720
H32   H     H_    0.123465 0.431500 0.648001 0.265771
I1    I     I_    0.204905 0.524783 0.335305 -0.290266
I2    I     I_    0.795080 0.524812 0.664700 -0.290266
N13   N     N_2   0.302376 0.696916 0.220561 -0.257789
H33   H     H_    0.216622 0.694914 0.238205 0.275489
C49   C     C_3   0.350981 0.831374 0.217136 -0.738868
H34   H     H_    0.278749 0.898732 0.197960 0.241204
H35   H     H_    0.432267 0.834273 0.189467 0.243729
H36   H     H_    0.378413 0.868649 0.260895 0.263117
N14   N     N_2   0.697630 0.696910 0.779463 -0.257784
H37   H     H_    0.783365 0.694936 0.761801 0.275466
C50   C     C_3   0.649037 0.831365 0.782942 -0.738879
H38   H     H_    0.721317 0.898711 0.802090 0.241206
H39   H     H_    0.567834 0.834239 0.810663 0.243702
H40   H     H_    0.621482 0.868673 0.739205 0.263087
I3    I     I_    0.135852 0.197443 0.546962 -0.207647
I4    I     I_    0.865496 0.800292 0.451467 -0.188880
I5    I     I_    0.864136 0.197441 0.453019 -0.207668
I6    I     I_    0.134499 0.800300 0.548534 -0.188921
I7    I     I_    0.695379 0.175252 0.598564 -0.178674
I8    I     I_    0.301848 0.830399 0.403322 -0.198062
I9    I     I_    0.304641 0.175228 0.401430 -0.178713
I10   I     I_    0.698132 0.830421 0.596685 -0.198026

loop_
_geom_bond_atom_site_label_1
_geom_bond_atom_site_label_2
_geom_bond_distance
_ccdc_geom_bond_type
C20   N10   1.426541 S    
N12   H29   1.029614 S    
C15   C17   1.414378 A    
C43   H11   1.110962 S    
C43   H10   1.108774 S    
N11   H25   1.029604 S    
O3    C2    1.305966 A    
C47   H26   1.110242 S    
C23   C25   1.400492 A    
N8    H13   1.023708 S    
O5    C3    1.307219 A    
C38   I8    2.110478 S    
O1    C1    1.305967 A    
C19   C21   1.404751 A    
C12   C14   1.397255 A    
C22   N12   1.424782 S    
N13   C49   1.446765 S    
C32   I4    2.144247 S    
C31   I3    2.146014 S    
N6    C42   1.448089 S    
N14   H37   1.029110 S    
C33   I5    2.146009 S    
C40   N3    1.376707 A    
C21   N11   1.424786 S    
C41   H3    1.108440 S    
O7    Zn1   1.985552 S    
C18   N8    1.420352 S    
C32   C35   1.407061 A    
C49   H35   1.110379 S    
C49   H34   1.110314 S    
C28   N14   1.426901 S    
N14   C50   1.446776 S    
C34   C36   1.407065 A    
C11   C12   1.400956 A    
C1    C36   1.457245 S    
C20   C30   1.418185 A    
C2    C35   1.457241 S    
N10   C46   1.446531 S    
O3    Zn1   2.017517 S    
C8    O12   1.349147 S    
C32   C34   1.385709 A    
C9    C15   1.413795 A    
N5    H1    1.027611 S    
N12   C48   1.446402 S    
C10   C16   1.413805 A    
C25   C27   1.398169 A    
O2    C2    1.304618 A    
C26   C28   1.398205 A    
C47   H27   1.111087 S    
C28   C30   1.414755 A    
N8    C44   1.448387 S    
C6    C14   1.400713 A    
Zn2   N4    2.040478 S    
N5    C41   1.448090 S    
C45   H19   1.110394 S    
C42   H6    1.110693 S    
C34   I6    2.144246 S    
N1    C30   1.444848 S    
C31   C33   1.386608 A    
C7    O11   1.349155 S    
C50   H40   1.111537 S    
C46   H22   1.110272 S    
C44   H15   1.110967 S    
C19   N9    1.426609 S    
C33   C35   1.408277 A    
C45   H18   1.110314 S    
C42   H7    1.108439 S    
C48   H32   1.110034 S    
C4    C24   1.454564 S    
C41   H4    1.110115 S    
C46   H23   1.110424 S    
N9    H17   1.030378 S    
O5    Zn1   1.985507 S    
O6    C4    1.298643 A    
C48   H31   1.111077 S    
C3    C23   1.454574 S    
C27   C29   1.414747 A    
C37   I7    2.139356 S    
N9    C45   1.446541 S    
C8    C10   1.409605 A    
C9    C11   1.408177 A    
O8    Zn2   1.985554 S    
C43   H12   1.111183 S    
C10   C12   1.408187 A    
O1    Zn1   2.017515 S    
C20   C22   1.404711 A    
C19   C29   1.418223 A    
N2    C29   1.444838 S    
C47   H28   1.110032 S    
C45   H20   1.111589 S    
N7    C43   1.448385 S    
C37   C40   1.427765 A    
C13   C18   1.406018 A    
C5    N1    1.369438 A    
C38   C39   1.427763 A    
O6    Zn2   1.985505 S    
C25   I1    2.139608 S    
C7    C9    1.409597 A    
C39   I9    2.139354 S    
O4    C1    1.304616 A    
C44   H16   1.111185 S    
C37   N4    1.372984 A    
N11   C47   1.446401 S    
C5    O9    1.349587 S    
C31   C36   1.408285 A    
C6    O10   1.349585 S    
C42   H8    1.110116 S    
C50   H39   1.110368 S    
C16   N6    1.420501 S    
C16   C18   1.414387 A    
C21   C23   1.407523 A    
C15   N5    1.420499 S    
N13   H33   1.029119 S    
C46   H24   1.111620 S    
C22   C24   1.407504 A    
C24   C26   1.400507 A    
N1    C7    1.370202 A    
C49   H36   1.111533 S    
N2    C8    1.370211 A    
C40   I10   2.110489 S    
O4    Zn2   2.017518 S    
C41   H2    1.110687 S    
O2    Zn2   2.017514 S    
O7    C4    1.307202 A    
C5    C13   1.400726 A    
O8    C3    1.298634 A    
C44   H14   1.108781 S    
N7    H9    1.023706 S    
C11   C13   1.397254 A    
Zn1   N3    2.040478 S    
C14   C17   1.406019 A    
C6    N2    1.369443 A    
N6    H5    1.027606 S    
C39   N4    1.372979 A    
C48   H30   1.110240 S    
C27   N13   1.426884 S    
N10   H21   1.030402 S    
C50   H38   1.110312 S    
C26   I2    2.139606 S    
C17   N7    1.420356 S    
C38   N3    1.376711 A    
