data_mof_unit_21779.cif
_audit_creation_date              2012-12-10T19:44:28-0500
_audit_creation_method            fapswitch 2.2
_symmetry_space_group_name_H-M    P1
_symmetry_Int_Tables_number       1
_space_group_crystal_system       triclinic
_cell_length_a                    10.809518
_cell_length_b                    12.376939
_cell_length_c                    13.216849
_cell_angle_alpha                 116.990301
_cell_angle_beta                  75.878439
_cell_angle_gamma                 100.941486
_cell_volume                      1521.64426393

loop_
_atom_site_label
_atom_site_type_symbol
_atom_type_description
_atom_site_fract_x
_atom_site_fract_y
_atom_site_fract_z
_atom_type_partial_charge
C1    C     C_R   0.515378 0.855111 0.286540 0.832303
C2    C     C_R   0.632865 0.780579 0.760653 -0.239293
C3    C     C_R   0.034803 0.970212 0.582962 0.355655
C4    C     C_R   0.128176 0.004639 0.505031 -0.161430
C5    C     C_R   0.091641 0.041358 0.430389 0.017526
C6    C     C_R   0.962699 0.043383 0.435107 -0.127176
C7    C     C_R   0.869758 0.002475 0.507045 -0.097739
C8    C     C_R   0.905480 0.961652 0.579079 0.002630
C9    C     C_R   0.208840 0.193997 0.354414 0.362756
C10   C     C_R   0.300284 0.221487 0.272123 -0.219570
C11   C     C_R   0.368811 0.129985 0.179033 0.372847
C12   C     C_R   0.736664 0.001386 0.503004 0.905774
C13   C     C_R   0.345284 0.010133 0.167015 -0.158705
C14   C     C_R   0.253633 0.981671 0.248320 -0.243484
C15   C     C_R   0.185222 0.073180 0.342990 0.051225
C16   C     C_R   0.287138 0.297629 0.007589 -0.068307
C17   C     C_R   0.446925 0.229225 0.834781 -0.102811
C18   C     C_R   0.646704 0.803239 0.094431 -0.214050
C19   C     C_R   0.690458 0.718507 0.983996 0.398218
C20   C     C_R   0.627985 0.601606 0.941159 -0.132617
C21   C     C_R   0.522876 0.564578 0.010641 0.030478
C22   C     C_R   0.473044 0.654950 0.120050 0.009955
C23   C     C_R   0.479320 0.145076 0.713439 0.886427
C24   C     C_R   0.464251 0.442251 0.975318 -0.081722
C25   C     C_R   0.348876 0.416615 0.044305 -0.008927
C26   C     C_R   0.296255 0.510401 0.147773 0.372548
C27   C     C_R   0.357387 0.627216 0.183945 -0.217389
C28   C     C_R   0.516072 0.343516 0.874428 0.623123
C29   C     C_R   0.334233 0.205561 0.902366 -0.229040
C30   C     C_R   0.539650 0.772364 0.163547 -0.130809
C31   C     C_R   0.655547 0.311615 0.290568 -0.147493
C32   C     C_R   0.341055 0.770248 0.659704 0.131395
C33   C     C_R   0.306037 0.677772 0.696025 -0.198399
C34   C     C_R   0.262572 0.001727 0.502009 0.818810
C35   C     C_R   0.359625 0.567248 0.631865 -0.103039
C36   C     C_R   0.449059 0.546804 0.529112 -0.022362
C37   C     C_R   0.483325 0.643932 0.493179 0.183076
C38   C     C_R   0.510018 0.435105 0.463360 -0.015405
C39   C     C_R   0.586030 0.413843 0.354045 0.063099
C40   C     C_R   0.601721 0.499071 0.311544 -0.200935
C41   C     C_R   0.572129 0.616998 0.384944 0.362379
C42   C     C_R   0.503232 0.344137 0.501897 0.145761
C43   C     C_R   0.649427 0.229195 0.335332 0.132172
C44   C     C_R   0.636299 0.906711 0.801711 -0.191733
C45   C     C_R   0.727428 0.968397 0.746178 0.444563
C46   C     C_R   0.811157 0.901955 0.644786 0.012554
C47   C     C_R   0.808411 0.775504 0.605400 -0.110893
C48   C     C_R   0.721795 0.715594 0.664697 0.455149
Cu1   Cu    Cu3+1 0.529370 0.098270 0.475420 1.008570
Cu2   Cu    Cu3+1 0.470630 0.901730 0.524580 1.011440
H1    H     H_    0.564356 0.734233 0.806053 0.166403
H2    H     H_    0.398474 0.939110 0.095163 0.161710
H3    H     H_    0.236963 0.888532 0.238392 0.151291
H4    H     H_    0.280043 0.117179 0.871793 0.201800
H5    H     H_    0.199492 0.275448 0.057594 0.212940
H6    H     H_    0.700363 0.891628 0.128316 0.181643
H7    H     H_    0.662723 0.544257 0.852493 0.264941
H8    H     H_    0.569973 0.956509 0.878329 0.216792
H9    H     H_    0.311200 0.697194 0.262376 0.178503
H10   H     H_    0.699780 0.148092 0.285619 0.127954
H11   H     H_    0.661211 0.479877 0.227044 0.220147
H12   H     H_    0.715573 0.296311 0.207360 0.195051
H13   H     H_    0.442768 0.348871 0.581478 0.118741
H14   H     H_    0.299770 0.856091 0.711193 0.174357
H15   H     H_    0.327972 0.498373 0.663581 0.159960
H16   H     H_    0.237247 0.692055 0.774741 0.185108
H17   H     H_    0.875516 0.724047 0.529799 0.210236
H18   H     H_    0.934743 0.071502 0.377770 0.175143
H19   H     H_    0.319245 0.314318 0.281273 0.209207
N1    N     N_R   0.573890 0.246290 0.438210 -0.193881
N2    N     N_R   0.426890 0.754320 0.561170 -0.208552
O1    O     O_R   0.536940 0.972510 0.318130 -0.606962
O2    O     O_R   0.487330 0.806530 0.359650 -0.543038
O3    O     O_R   0.705160 0.082990 0.479250 -0.560621
O4    O     O_R   0.655550 0.917010 0.520760 -0.553319
O5    O     O_R   0.512670 0.193470 0.640350 -0.550559
O6    O     O_R   0.463060 0.027490 0.681870 -0.602841
O7    O     O_R   0.344450 0.082990 0.479240 -0.592774
O8    O     O_R   0.294840 0.917010 0.520750 -0.545329
Cl1   Cl    Cl    0.485698 0.166063 0.078455 -0.656967
Cl2   Cl    Cl    0.153396 0.486639 0.237115 -0.568298
F1    F     F_    0.635488 0.352847 0.814240 -0.614698
Cl3   Cl    Cl    0.831514 0.756375 0.902724 -0.515245
Cl4   Cl    Cl    0.697460 0.710175 0.343363 -0.615711
Cl5   Cl    Cl    0.739710 0.128244 0.808113 -0.491006
Cl6   Cl    Cl    0.731384 0.560934 0.623139 -0.547220
Cl7   Cl    Cl    0.076400 0.945473 0.692405 -0.583979
Cl8   Cl    Cl    0.129418 0.313466 0.472860 -0.528035

loop_
_geom_bond_atom_site_label_1
_geom_bond_atom_site_label_2
_ccdc_geom_bond_type
C12   O3    A    
C17   C29   A    
C35   C36   A    
C23   O5    A    
Cu2   O8    S    
C7    C8    A    
C45   C46   A    
C26   C27   A    
C17   C23   S    
C31   C43   A    
C36   C37   A    
C38   C42   A    
C9    Cl8   S    
C5    C6    A    
C29   H4    S    
C35   H15   S    
C42   N1    A    
Cu1   O7    S    
C18   C19   A    
C19   C20   A    
C2    C44   A    
Cu1   O1    S    
C18   C30   A    
C9    C10   A    
C18   H6    S    
C6    H18   S    
C21   C22   A    
C31   H12   S    
C19   Cl3   S    
C47   H17   S    
C33   H16   S    
C32   N2    A    
C7    C12   S    
C4    C34   S    
C1    O1    A    
C3    Cl7   S    
C24   C25   A    
C32   H14   S    
C3    C8    A    
C2    H1    S    
Cu2   O2    S    
C44   H8    S    
C39   C40   A    
C2    C48   A    
C25   C26   A    
C41   Cl4   S    
C28   F1    S    
C40   H11   S    
C45   Cl5   S    
Cu2   N2    S    
C34   O8    A    
C13   H2    S    
C47   C48   A    
Cu1   O5    S    
C23   O6    A    
C43   H10   S    
C40   C41   A    
C26   Cl2   S    
C22   C27   A    
C37   N2    A    
C48   Cl6   S    
C12   O4    A    
C3    C4    A    
Cu2   O6    S    
C44   C45   A    
C16   C25   A    
C46   C47   A    
C22   C30   A    
Cu1   O3    S    
C17   C28   A    
C24   C28   A    
C4    C5    A    
C6    C7    A    
C11   Cl1   S    
C43   N1    A    
Cu1   N1    S    
C1    O2    A    
C32   C33   A    
C36   C38   A    
C9    C15   A    
C16   H5    S    
C27   H9    S    
Cu2   O4    S    
C34   O7    A    
C11   C13   A    
C38   C39   A    
C1    C30   S    
C33   C35   A    
C31   C39   A    
C37   C41   A    
C8    C46   S    
C5    C15   S    
C10   C11   A    
C10   H19   S    
C14   H3    S    
C20   C21   A    
C16   C29   A    
Cu1   Cu2   S    
C21   C24   A    
C14   C15   A    
C20   H7    S    
C13   C14   A    
C42   H13   S    
