data_mof_unit_63189.cif
_audit_creation_date              2012-12-10T20:33:56-0500
_audit_creation_method            fapswitch 2.2
_symmetry_space_group_name_H-M    P1
_symmetry_Int_Tables_number       1
_space_group_crystal_system       tetragonal
_cell_length_a                    28.15155
_cell_length_b                    28.15155
_cell_length_c                    27.737976
_cell_angle_alpha                 90.0
_cell_angle_beta                  90.0
_cell_angle_gamma                 90.0
_cell_volume                      21982.616908

loop_
_atom_site_label
_atom_site_type_symbol
_atom_type_description
_atom_site_fract_x
_atom_site_fract_y
_atom_site_fract_z
_atom_type_partial_charge
C1    C     C_R   0.198760 0.698760 0.750000 -0.105105
C2    C     C_R   0.801240 0.698760 0.750000 -0.105104
C3    C     C_R   0.797113 0.340780 0.219330 0.385162
C4    C     C_R   0.340778 0.202885 0.780672 0.385162
C5    C     C_R   0.659222 0.797114 0.219328 0.385162
C6    C     C_R   0.797113 0.340780 0.780670 0.385162
C7    C     C_R   0.202887 0.659220 0.219330 0.385162
C8    C     C_R   0.124217 0.667706 0.719454 -0.214794
C9    C     C_R   0.875783 0.332294 0.280546 -0.214795
C10   C     C_R   0.667704 0.875781 0.719451 -0.214795
C11   C     C_R   0.332296 0.124219 0.280549 -0.214795
C12   C     C_R   0.875783 0.332294 0.719454 -0.214794
C13   C     C_R   0.698760 0.198760 0.250000 -0.105105
C14   C     C_R   0.124217 0.667706 0.280546 -0.214795
C15   C     C_R   0.332296 0.124219 0.719451 -0.214795
C16   C     C_R   0.667704 0.875781 0.280549 -0.214795
C17   C     C_R   0.124219 0.332296 0.280549 -0.214795
C18   C     C_R   0.875781 0.667704 0.719451 -0.214795
C19   C     C_R   0.667706 0.124217 0.280546 -0.214795
C20   C     C_R   0.332294 0.875783 0.719454 -0.214794
C21   C     C_R   0.875781 0.667704 0.280549 -0.214795
C22   C     C_R   0.124219 0.332296 0.719451 -0.214795
C23   C     C_R   0.332294 0.875783 0.280546 -0.214795
C24   C     C_R   0.301240 0.801240 0.750000 -0.105105
C25   C     C_R   0.667706 0.124217 0.719454 -0.214794
C26   C     C_R   0.624217 0.167706 0.219454 -0.214794
C27   C     C_R   0.375783 0.832294 0.780546 -0.214795
C28   C     C_R   0.167704 0.375781 0.219451 -0.214795
C29   C     C_R   0.832296 0.624219 0.780549 -0.214795
C30   C     C_R   0.375783 0.832294 0.219454 -0.214794
C31   C     C_R   0.624217 0.167706 0.780546 -0.214795
C32   C     C_R   0.832296 0.624219 0.219451 -0.214795
C33   C     C_R   0.167704 0.375781 0.780549 -0.214795
C34   C     C_R   0.624219 0.832296 0.780549 -0.214795
C35   C     C_R   0.801240 0.698760 0.250000 -0.105104
C36   C     C_R   0.375781 0.167704 0.219451 -0.214795
C37   C     C_R   0.167706 0.624217 0.780546 -0.214795
C38   C     C_R   0.832294 0.375783 0.219454 -0.214794
C39   C     C_R   0.375781 0.167704 0.780549 -0.214795
C40   C     C_R   0.624219 0.832296 0.219451 -0.214795
C41   C     C_R   0.832294 0.375783 0.780546 -0.214795
C42   C     C_R   0.167706 0.624217 0.219454 -0.214794
C43   C     C_R   0.128122 0.628122 0.750000 -0.150555
C44   C     C_R   0.871878 0.371878 0.250000 -0.150555
C45   C     C_R   0.628122 0.871878 0.750000 -0.150555
C46   C     C_R   0.198760 0.301240 0.750000 -0.105104
C47   C     C_R   0.371878 0.128122 0.250000 -0.150555
C48   C     C_R   0.871878 0.371878 0.750000 -0.150555
C49   C     C_R   0.128122 0.628122 0.250000 -0.150555
C50   C     C_R   0.371878 0.128122 0.750000 -0.150555
C51   C     C_R   0.628122 0.871878 0.250000 -0.150555
C52   C     C_R   0.128122 0.371878 0.250000 -0.150555
C53   C     C_R   0.871878 0.628122 0.750000 -0.150555
C54   C     C_R   0.628122 0.128122 0.250000 -0.150555
C55   C     C_R   0.371878 0.871878 0.750000 -0.150555
C56   C     C_R   0.871878 0.628122 0.250000 -0.150555
C57   C     C_R   0.301240 0.801240 0.250000 -0.105105
C58   C     C_R   0.128122 0.371878 0.750000 -0.150555
C59   C     C_R   0.371878 0.871878 0.250000 -0.150555
C60   C     C_R   0.628122 0.128122 0.750000 -0.150555
C61   C     C_R   0.698760 0.198760 0.750000 -0.105105
C62   C     C_1   0.234894 0.734894 0.750000 0.181762
C63   C     C_1   0.765105 0.265105 0.250000 0.181762
C64   C     C_1   0.734894 0.765105 0.750000 0.181763
C65   C     C_R   0.801240 0.301240 0.250000 -0.105105
C66   C     C_1   0.265105 0.234894 0.250000 0.181763
C67   C     C_1   0.765105 0.265105 0.750000 0.181762
C68   C     C_1   0.234894 0.734894 0.250000 0.181762
C69   C     C_1   0.265105 0.234894 0.750000 0.181763
C70   C     C_1   0.734894 0.765105 0.250000 0.181763
C71   C     C_1   0.234894 0.265105 0.250000 0.181763
C72   C     C_1   0.765105 0.734894 0.750000 0.181763
C73   C     C_1   0.734894 0.234894 0.250000 0.181762
C74   C     C_1   0.265105 0.765105 0.750000 0.181762
C75   C     C_1   0.765105 0.734894 0.250000 0.181763
C76   C     C_R   0.698760 0.801240 0.750000 -0.105104
C77   C     C_1   0.234894 0.265105 0.750000 0.181763
C78   C     C_1   0.265105 0.765105 0.250000 0.181762
C79   C     C_1   0.734894 0.234894 0.750000 0.181762
C80   C     C_1   0.500000 1.000000 0.930966 -0.111765
C81   C     C_1   0.500000 0.000000 0.069033 -0.111764
C82   C     C_1   1.000000 0.500000 0.930966 -0.111765
C83   C     C_1   1.000000 0.500000 0.069033 -0.111764
C84   C     C_1   0.000000 0.500000 0.430966 -0.111765
C85   C     C_1   0.000000 0.500000 0.569033 -0.111764
C86   C     C_1   0.500000 0.000000 0.430966 -0.111765
C87   C     C_R   0.301240 0.198760 0.250000 -0.105104
C88   C     C_1   0.500000 0.000000 0.569033 -0.111764
C89   C     C_1   0.500000 1.000000 0.974491 0.035673
C90   C     C_1   0.500000 0.000000 0.025509 0.035673
C91   C     C_1   1.000000 0.500000 0.974491 0.035673
C92   C     C_1   0.000000 0.500000 0.025509 0.035673
C93   C     C_1   1.000000 0.500000 0.474491 0.035673
C94   C     C_1   0.000000 0.500000 0.525509 0.035673
C95   C     C_1   0.500000 0.000000 0.474491 0.035673
C96   C     C_1   0.500000 0.000000 0.525509 0.035673
C97   C     C_R   0.500000 0.000000 0.620892 0.825154
C98   C     C_R   0.801240 0.301240 0.750000 -0.105105
C99   C     C_R   0.500000 0.000000 0.379108 0.825154
C100  C     C_R   0.000000 0.500000 0.620892 0.825154
C101  C     C_R   0.000000 0.500000 0.379108 0.825154
C102  C     C_R   0.000000 0.500000 0.120892 0.825154
C103  C     C_R   0.000000 0.500000 0.879108 0.825154
C104  C     C_R   0.500000 0.000000 0.120892 0.825154
C105  C     C_R   0.500000 0.000000 0.879108 0.825154
C106  C     C_R   0.591054 0.908946 0.750000 0.859640
C107  C     C_R   0.408946 0.091054 0.250000 0.859640
C108  C     C_R   0.908946 0.408946 0.750000 0.859640
C109  C     C_R   0.198760 0.698760 0.250000 -0.105105
C110  C     C_R   0.091054 0.591054 0.250000 0.859639
C111  C     C_R   0.408946 0.091054 0.750000 0.859640
C112  C     C_R   0.591054 0.908946 0.250000 0.859640
C113  C     C_R   0.091054 0.591054 0.750000 0.859639
C114  C     C_R   0.908946 0.408946 0.250000 0.859640
C115  C     C_R   0.591054 0.091054 0.250000 0.859639
C116  C     C_R   0.408946 0.908946 0.750000 0.859640
C117  C     C_R   0.908946 0.591054 0.250000 0.859640
C118  C     C_R   0.091054 0.408946 0.750000 0.859640
C119  C     C_R   0.408946 0.908946 0.250000 0.859640
C120  C     C_R   0.301240 0.198760 0.750000 -0.105104
C121  C     C_R   0.591054 0.091054 0.750000 0.859639
C122  C     C_R   0.091054 0.408946 0.250000 0.859640
C123  C     C_R   0.908946 0.591054 0.750000 0.859640
C124  C     C_R   0.159220 0.702887 0.719330 0.385162
C125  C     C_R   0.840780 0.297113 0.280670 0.385162
C126  C     C_R   0.702885 0.840778 0.719328 0.385162
C127  C     C_R   0.297115 0.159222 0.280672 0.385162
C128  C     C_R   0.840780 0.297113 0.719330 0.385162
C129  C     C_R   0.159220 0.702887 0.280670 0.385162
C130  C     C_R   0.297115 0.159222 0.719328 0.385162
C131  C     C_R   0.698760 0.801240 0.250000 -0.105104
C132  C     C_R   0.702885 0.840778 0.280672 0.385162
C133  C     C_R   0.159222 0.297115 0.280672 0.385162
C134  C     C_R   0.840778 0.702885 0.719328 0.385162
C135  C     C_R   0.702887 0.159220 0.280670 0.385162
C136  C     C_R   0.297113 0.840780 0.719330 0.385162
C137  C     C_R   0.840778 0.702885 0.280672 0.385162
C138  C     C_R   0.159222 0.297115 0.719328 0.385162
C139  C     C_R   0.297113 0.840780 0.280670 0.385162
C140  C     C_R   0.702887 0.159220 0.719330 0.385162
C141  C     C_R   0.659220 0.202887 0.219330 0.385162
C142  C     C_R   0.198760 0.301240 0.250000 -0.105104
C143  C     C_R   0.340780 0.797113 0.780670 0.385162
C144  C     C_R   0.202885 0.340778 0.219328 0.385162
C145  C     C_R   0.797114 0.659222 0.780672 0.385162
C146  C     C_R   0.340780 0.797113 0.219330 0.385162
C147  C     C_R   0.659220 0.202887 0.780670 0.385162
C148  C     C_R   0.797114 0.659222 0.219328 0.385162
C149  C     C_R   0.202885 0.340778 0.780672 0.385162
C150  C     C_R   0.659222 0.797114 0.780672 0.385162
C151  C     C_R   0.340778 0.202885 0.219328 0.385162
C152  C     C_R   0.202887 0.659220 0.780670 0.385162
Cl1   Cl    Cl    0.152441 0.751745 0.680258 -0.453620
Cl2   Cl    Cl    0.847554 0.751741 0.680252 -0.453620
Cl3   Cl    Cl    0.751745 0.152441 0.319742 -0.453620
Cl4   Cl    Cl    0.248255 0.847559 0.680258 -0.453620
Cl5   Cl    Cl    0.847554 0.751741 0.319748 -0.453620
Cl6   Cl    Cl    0.152445 0.248259 0.680252 -0.453620
Cl7   Cl    Cl    0.248255 0.847559 0.319742 -0.453620
Cl8   Cl    Cl    0.751745 0.152441 0.680258 -0.453620
Cl9   Cl    Cl    0.652441 0.251745 0.180258 -0.453620
Cl10  Cl    Cl    0.347559 0.748255 0.819742 -0.453620
Cl11  Cl    Cl    0.251741 0.347555 0.180252 -0.453620
Cl12  Cl    Cl    0.847559 0.248255 0.319742 -0.453620
Cl13  Cl    Cl    0.748259 0.652445 0.819748 -0.453620
Cl14  Cl    Cl    0.347559 0.748255 0.180258 -0.453620
Cl15  Cl    Cl    0.652441 0.251745 0.819742 -0.453620
Cl16  Cl    Cl    0.748259 0.652445 0.180252 -0.453620
Cl17  Cl    Cl    0.251741 0.347555 0.819748 -0.453620
Cl18  Cl    Cl    0.652445 0.748259 0.819748 -0.453620
Cl19  Cl    Cl    0.347555 0.251740 0.180252 -0.453620
Cl20  Cl    Cl    0.251745 0.652441 0.819742 -0.453620
Cl21  Cl    Cl    0.748255 0.347559 0.180258 -0.453620
Cl22  Cl    Cl    0.347555 0.251741 0.819748 -0.453620
Cl23  Cl    Cl    0.751741 0.847554 0.680252 -0.453620
Cl24  Cl    Cl    0.652445 0.748259 0.180252 -0.453620
Cl25  Cl    Cl    0.748255 0.347559 0.819742 -0.453620
Cl26  Cl    Cl    0.251745 0.652441 0.180258 -0.453620
Cl27  Cl    Cl    0.248259 0.152445 0.319748 -0.453620
Cl28  Cl    Cl    0.847559 0.248255 0.680258 -0.453620
Cl29  Cl    Cl    0.152441 0.751745 0.319742 -0.453620
Cl30  Cl    Cl    0.248259 0.152445 0.680252 -0.453620
Cl31  Cl    Cl    0.751741 0.847554 0.319748 -0.453620
Cl32  Cl    Cl    0.152445 0.248259 0.319748 -0.453620
H1    H     H_    0.093973 0.671410 0.695612 0.211446
H2    H     H_    0.906023 0.671407 0.695608 0.211446
H3    H     H_    0.671410 0.093973 0.304388 0.211446
H4    H     H_    0.328590 0.906027 0.695612 0.211446
H5    H     H_    0.906023 0.671407 0.304392 0.211446
H6    H     H_    0.093977 0.328593 0.695608 0.211446
H7    H     H_    0.328590 0.906027 0.304388 0.211446
H8    H     H_    0.671410 0.093973 0.695612 0.211446
H9    H     H_    0.593973 0.171410 0.195612 0.211446
H10   H     H_    0.406027 0.828590 0.804388 0.211446
H11   H     H_    0.171407 0.406023 0.195608 0.211446
H12   H     H_    0.906027 0.328590 0.304388 0.211446
H13   H     H_    0.828593 0.593977 0.804392 0.211446
H14   H     H_    0.406027 0.828590 0.195612 0.211446
H15   H     H_    0.593973 0.171410 0.804388 0.211446
H16   H     H_    0.828593 0.593977 0.195608 0.211446
H17   H     H_    0.171407 0.406023 0.804392 0.211446
H18   H     H_    0.593977 0.828593 0.804392 0.211446
H19   H     H_    0.406023 0.171407 0.195608 0.211446
H20   H     H_    0.171410 0.593973 0.804388 0.211446
H21   H     H_    0.828590 0.406027 0.195612 0.211446
H22   H     H_    0.406023 0.171407 0.804392 0.211446
H23   H     H_    0.671407 0.906023 0.695608 0.211446
H24   H     H_    0.593977 0.828593 0.195608 0.211446
H25   H     H_    0.828590 0.406027 0.804388 0.211446
H26   H     H_    0.171410 0.593973 0.195612 0.211446
H27   H     H_    0.328593 0.093977 0.304392 0.211446
H28   H     H_    0.906027 0.328590 0.695612 0.211446
H29   H     H_    0.093973 0.671410 0.304388 0.211446
H30   H     H_    0.328593 0.093977 0.695608 0.211446
H31   H     H_    0.671407 0.906023 0.304392 0.211446
H32   H     H_    0.093977 0.328593 0.304392 0.211446
O1    O     O_3   0.500000 0.000000 0.750000 -0.493456
O2    O     O_R   0.460660 0.000000 0.356100 -0.626155
O3    O     O_R   0.000000 0.460660 0.643900 -0.626155
O4    O     O_R   0.000000 0.539340 0.356100 -0.626155
O5    O     O_R   0.960660 0.500000 0.143900 -0.626155
O6    O     O_R   0.039340 0.500000 0.856100 -0.626155
O7    O     O_R   0.500000 0.039340 0.143900 -0.626155
O8    O     O_R   0.500000 0.960660 0.856100 -0.626155
O9    O     O_R   0.039340 0.500000 0.143900 -0.626155
O10   O     O_R   0.960660 0.500000 0.856100 -0.626155
O11   O     O_R   0.500000 0.960660 0.143900 -0.626155
O12   O     O_3   0.500000 0.000000 0.250000 -0.493456
O13   O     O_R   0.500000 0.039340 0.856100 -0.626155
O14   O     O_R   0.594350 0.944820 0.722300 -0.637920
O15   O     O_R   0.405650 0.055180 0.277700 -0.637920
O16   O     O_R   0.944820 0.405650 0.722300 -0.637920
O17   O     O_R   0.055180 0.594350 0.277700 -0.637920
O18   O     O_R   0.405650 0.055180 0.722300 -0.637920
O19   O     O_R   0.594350 0.944820 0.277700 -0.637920
O20   O     O_R   0.055180 0.594350 0.722300 -0.637920
O21   O     O_R   0.944820 0.405650 0.277700 -0.637920
O22   O     O_R   0.594350 0.055180 0.277700 -0.637920
O23   O     O_3   0.000000 0.500000 0.750000 -0.493456
O24   O     O_R   0.405650 0.944820 0.722300 -0.637920
O25   O     O_R   0.944820 0.594350 0.277700 -0.637920
O26   O     O_R   0.055180 0.405650 0.722300 -0.637920
O27   O     O_R   0.405650 0.944820 0.277700 -0.637920
O28   O     O_R   0.594350 0.055180 0.722300 -0.637920
O29   O     O_R   0.055180 0.405650 0.277700 -0.637920
O30   O     O_R   0.944820 0.594350 0.722300 -0.637920
O31   O     O_R   0.094350 0.444820 0.222300 -0.637920
O32   O     O_R   0.905650 0.555180 0.777700 -0.637920
O33   O     O_R   0.444820 0.905650 0.222300 -0.637920
O34   O     O_3   0.000000 0.500000 0.250000 -0.493456
O35   O     O_R   0.555180 0.094350 0.777700 -0.637920
O36   O     O_R   0.905650 0.555180 0.222300 -0.637920
O37   O     O_R   0.094350 0.444820 0.777700 -0.637920
O38   O     O_R   0.555180 0.094350 0.222300 -0.637920
O39   O     O_R   0.444820 0.905650 0.777700 -0.637920
O40   O     O_R   0.094350 0.555180 0.777700 -0.637920
O41   O     O_R   0.905650 0.444820 0.222300 -0.637920
O42   O     O_R   0.444820 0.094350 0.777700 -0.637920
O43   O     O_R   0.555180 0.905650 0.222300 -0.637920
O44   O     O_R   0.905650 0.444820 0.777700 -0.637920
O45   O     O_R   0.460660 0.000000 0.643900 -0.626155
O46   O     O_R   0.094350 0.555180 0.222300 -0.637920
O47   O     O_R   0.555180 0.905650 0.777700 -0.637920
O48   O     O_R   0.444820 0.094350 0.222300 -0.637920
O49   O     O_R   0.539340 0.000000 0.356100 -0.626155
O50   O     O_R   0.000000 0.539340 0.643900 -0.626155
O51   O     O_R   0.000000 0.460660 0.356100 -0.626155
O52   O     O_R   0.539340 0.000000 0.643900 -0.626155
Zn1   Zn    Zn3+2 0.500000 0.943960 0.789960 1.008698
Zn2   Zn    Zn3+2 0.000000 0.556040 0.710040 1.008698
Zn3   Zn    Zn3+2 0.443960 0.000000 0.289960 1.008698
Zn4   Zn    Zn3+2 0.556040 0.000000 0.710040 1.008698
Zn5   Zn    Zn3+2 0.000000 0.556040 0.289960 1.008698
Zn6   Zn    Zn3+2 0.000000 0.443960 0.710040 1.008698
Zn7   Zn    Zn3+2 0.556040 0.000000 0.289960 1.008698
Zn8   Zn    Zn3+2 0.443960 0.000000 0.710040 1.008698
Zn9   Zn    Zn3+2 0.500000 0.056040 0.210040 1.008698
Zn10  Zn    Zn3+2 0.943960 0.500000 0.789960 1.008698
Zn11  Zn    Zn3+2 0.056040 0.500000 0.210040 1.008698
Zn12  Zn    Zn3+2 0.500000 0.056040 0.789960 1.008698
Zn13  Zn    Zn3+2 0.500000 0.943960 0.210040 1.008698
Zn14  Zn    Zn3+2 0.056040 0.500000 0.789960 1.008698
Zn15  Zn    Zn3+2 0.943960 0.500000 0.210040 1.008698
Zn16  Zn    Zn3+2 0.000000 0.443960 0.289960 1.008698

loop_
_geom_bond_atom_site_label_1
_geom_bond_atom_site_label_2
_ccdc_geom_bond_type
O12   Zn13  S    
O1    Zn8   S    
C63   C65   S    
C141  Cl9   S    
C51   C112  S    
C83   C102  S    
C107  O15   A    
C113  O20   A    
C100  O50   A    
C76   C126  A    
C56   C117  S    
C43   C113  S    
C11   C47   A    
C95   C96   S    
C87   C151  A    
C8    C43   A    
C21   C137  A    
O6    Zn14  S    
C64   C72   T    
C1    C62   S    
C111  O18   A    
C14   C129  A    
C23   H7    S    
C12   C128  A    
C34   C150  A    
C9    H12   S    
C135  Cl3   S    
O45   Zn8   S    
C145  Cl13  S    
C45   C106  S    
C2    C145  A    
C23   C59   A    
C83   C92   T    
C15   C130  A    
C35   C75   S    
C133  C142  A    
C93   C94   S    
C99   O2    A    
O33   Zn13  S    
C1    C152  A    
C120  C130  A    
C6    C98   A    
C61   C79   S    
C23   C139  A    
C38   H21   S    
C8    H1    S    
C5    C131  A    
C20   C55   A    
C103  O6    A    
C29   C145  A    
C123  O32   A    
C152  Cl20  S    
O38   Zn9   S    
C50   C111  S    
O34   Zn5   S    
C14   C49   A    
C55   C116  S    
C121  O28   A    
C24   C143  A    
C19   C135  A    
O23   Zn10  S    
O11   Zn13  S    
C87   C127  A    
C58   C118  S    
C28   H11   S    
C151  Cl19  S    
C57   C139  A    
C36   C47   A    
O10   Zn10  S    
C7    C42   A    
O25   Zn5   S    
C80   C89   T    
O21   Zn16  S    
O35   Zn12  S    
C106  O47   A    
C133  Cl32  S    
C18   C53   A    
C19   H3    S    
O8    Zn1   S    
C69   C77   T    
C3    Cl21  S    
O1    Zn12  S    
O52   Zn4   S    
C3    C38   A    
C39   H22   S    
C6    C41   A    
O15   Zn3   S    
O23   Zn6   S    
C27   C143  A    
C82   C103  S    
C16   C51   A    
C122  O31   A    
C107  O48   A    
C128  Cl28  S    
C25   C60   A    
C13   C141  A    
C22   H6    S    
C26   C141  A    
C104  O7    A    
O32   Zn10  S    
C88   C97   S    
C42   H26   S    
C110  O17   A    
C97   O45   A    
C46   C138  A    
C11   H27   S    
C24   C136  A    
C98   C128  A    
C146  Cl14  S    
C44   C114  S    
C113  O40   A    
C4    Cl22  S    
C57   C146  A    
C30   C59   A    
C32   C56   A    
C84   C101  S    
C13   C135  A    
C21   C56   A    
C3    C65   A    
C52   C122  S    
C10   C45   A    
C15   H30   S    
C2    C72   S    
C26   C54   A    
C17   C52   A    
C31   H15   S    
C67   C98   S    
C117  O36   A    
O49   Zn7   S    
C30   C146  A    
O22   Zn7   S    
C68   C78   T    
O23   Zn14  S    
C132  Cl31  S    
C143  Cl10  S    
O16   Zn6   S    
O5    Zn15  S    
C25   C140  A    
C67   C79   T    
C40   H24   S    
C100  O3    A    
O13   Zn12  S    
O50   Zn2   S    
O36   Zn15  S    
C91   C92   S    
C34   C45   A    
C8    C124  A    
O7    Zn9   S    
C63   C73   T    
C80   C105  S    
O12   Zn3   S    
O3    Zn6   S    
C9    C125  A    
C82   C91   T    
O24   Zn8   S    
C7    Cl26  S    
C88   C96   T    
C29   C53   A    
C65   C125  A    
C31   C60   A    
C37   C43   A    
C16   H31   S    
C11   C127  A    
C10   H23   S    
O18   Zn8   S    
C38   C44   A    
C28   C52   A    
C118  O37   A    
C101  O51   A    
C20   H4    S    
O44   Zn10  S    
C85   C94   T    
C138  Cl6   S    
C97   O52   A    
C21   H5    S    
C66   C71   T    
C4    C39   A    
O43   Zn13  S    
O39   Zn1   S    
O17   Zn5   S    
C54   C115  S    
C46   C149  A    
O29   Zn16  S    
O20   Zn2   S    
O48   Zn9   S    
C64   C76   S    
C36   C151  A    
C27   H10   S    
C2    C134  A    
C115  O22   A    
C20   C136  A    
C86   C99   S    
C130  Cl30  S    
C123  O30   A    
O26   Zn6   S    
C147  Cl15  S    
C122  O29   A    
C28   C144  A    
C81   C90   T    
C27   C55   A    
C19   C54   A    
C36   H19   S    
C13   C73   S    
C47   C107  S    
C114  O21   A    
C6    Cl25  S    
C17   C133  A    
C148  Cl16  S    
C5    Cl24  S    
C149  Cl17  S    
C108  O44   A    
C125  Cl12  S    
C150  Cl18  S    
C37   C152  A    
C71   C142  S    
C131  C132  A    
C17   H32   S    
C66   C87   S    
C31   C147  A    
O37   Zn14  S    
C104  O11   A    
C108  O16   A    
O1    Zn4   S    
C10   C126  A    
C139  Cl7   S    
C129  Cl29  S    
C99   O49   A    
C9    C44   A    
C59   C119  S    
C68   C109  S    
C111  O42   A    
O23   Zn2   S    
C30   H14   S    
O4    Zn5   S    
O28   Zn4   S    
O34   Zn16  S    
C57   C78   S    
C105  O8    A    
C62   C74   T    
O30   Zn2   S    
C25   H8    S    
C22   C58   A    
C46   C77   S    
C53   C123  S    
C12   H28   S    
C61   C140  A    
C32   C148  A    
C35   C148  A    
C137  Cl5   S    
O12   Zn9   S    
O9    Zn11  S    
C40   C51   A    
C116  O24   A    
C69   C120  S    
C29   H13   S    
O2    Zn3   S    
C37   H20   S    
O40   Zn14  S    
C33   C58   A    
C127  Cl27  S    
O34   Zn11  S    
C119  O33   A    
O19   Zn7   S    
C61   C147  A    
C1    C124  A    
C41   H25   S    
C144  Cl11  S    
C85   C100  S    
C33   C149  A    
C35   C137  A    
C134  Cl2   S    
C109  C129  A    
O42   Zn12  S    
C101  O4    A    
C24   C74   S    
C22   C138  A    
C48   C108  S    
C115  O38   A    
O14   Zn4   S    
O51   Zn16  S    
C34   H18   S    
O34   Zn15  S    
O1    Zn1   S    
O46   Zn11  S    
C33   H17   S    
C70   C131  S    
C12   C48   A    
C18   H2    S    
C18   C134  A    
C142  C144  A    
C84   C93   T    
C102  O9    A    
C136  Cl4   S    
O31   Zn11  S    
C60   C121  S    
C16   C132  A    
C114  O41   A    
O27   Zn3   S    
C110  O46   A    
C121  O35   A    
C41   C48   A    
C42   C49   A    
C15   C50   A    
C112  O43   A    
C106  O14   A    
O47   Zn1   S    
C39   C50   A    
C76   C150  A    
C14   H29   S    
C32   H16   S    
C5    C40   A    
C103  O10   A    
C70   C75   T    
O41   Zn15  S    
C4    C120  A    
C7    C109  A    
O12   Zn7   S    
C86   C95   T    
C89   C90   S    
C124  Cl1   S    
C26   H9    S    
C119  O27   A    
C116  O39   A    
C112  O19   A    
C140  Cl8   S    
C126  Cl23  S    
C118  O26   A    
C102  O5    A    
C105  O13   A    
C49   C110  S    
C81   C104  S    
C117  O25   A    
