data_mof_unit_10765.cif
_audit_creation_date              2012-12-10T16:51:19-0500
_audit_creation_method            fapswitch 2.2
_symmetry_space_group_name_H-M    P1
_symmetry_Int_Tables_number       1
_space_group_crystal_system       triclinic
_cell_length_a                    27.720379
_cell_length_b                    8.673869
_cell_length_c                    7.42081
_cell_angle_alpha                 103.007484
_cell_angle_beta                  94.247615
_cell_angle_gamma                 92.394406
_cell_volume                      1730.58317325

loop_
_atom_site_label
_atom_site_type_symbol
_atom_type_description
_atom_site_fract_x
_atom_site_fract_y
_atom_site_fract_z
_atom_type_partial_charge
Br1   Br    Br    0.131731 0.201401 0.897169 -0.330327
Br2   Br    Br    0.868270 0.798687 0.102894 -0.330310
Br3   Br    Br    0.745489 0.291280 0.139346 -0.377067
Br4   Br    Br    0.254515 0.708748 0.860665 -0.377081
Br5   Br    Br    0.016306 0.133164 0.776338 -0.354605
Br6   Br    Br    0.983695 0.866913 0.223717 -0.354605
C1    C     C_R   0.498539 0.199561 0.453129 0.888063
C2    C     C_R   0.874368 0.470182 0.640944 0.014821
C3    C     C_R   0.354722 0.491765 0.505369 -0.089708
C4    C     C_R   0.645278 0.508243 0.494633 -0.089710
C5    C     C_R   0.975164 0.443838 0.633990 0.117053
C6    C     C_R   0.024837 0.556233 0.366051 0.117052
C7    C     C_R   0.975053 0.585022 0.381030 -0.075377
C8    C     C_R   0.024948 0.415049 0.619011 -0.075376
C9    C     C_R   0.949792 0.518265 0.506372 0.067120
C10   C     C_R   0.050209 0.481803 0.493666 0.067119
C11   C     C_R   0.950651 0.413322 0.783004 -0.143273
C12   C     C_R   0.501461 0.800439 0.546871 0.888062
C13   C     C_R   0.049350 0.586751 0.217038 -0.143270
C14   C     C_R   0.900798 0.419652 0.782485 -0.086357
C15   C     C_R   0.099203 0.580416 0.217552 -0.086359
C16   C     C_R   0.407527 0.498374 0.502102 0.816936
C17   C     C_R   0.592473 0.501627 0.497898 0.816937
C18   C     C_R   0.049926 0.313399 0.715102 0.186296
C19   C     C_R   0.950075 0.686673 0.284943 0.186297
C20   C     C_2   0.497836 0.031677 0.426626 -0.357883
C21   C     C_2   0.502164 0.968323 0.573374 -0.357883
C22   C     C_R   0.178520 0.405032 0.620786 0.664309
C23   C     C_R   0.101044 0.470034 0.490894 -0.081029
C24   C     C_R   0.821481 0.595007 0.379225 0.664307
C25   C     C_R   0.176146 0.533379 0.367921 0.600293
C26   C     C_R   0.823855 0.466670 0.632100 0.600286
C27   C     C_R   0.282483 0.575689 0.657109 0.323940
C28   C     C_R   0.717518 0.424336 0.342898 0.323950
C29   C     C_R   0.332948 0.578736 0.657682 -0.242906
C30   C     C_R   0.667053 0.421279 0.342322 -0.242910
C31   C     C_R   0.325711 0.398845 0.353820 -0.189468
C32   C     C_R   0.674288 0.601167 0.646182 -0.189466
C33   C     C_R   0.275521 0.391736 0.355000 -0.091172
C34   C     C_R   0.898957 0.530027 0.509138 -0.081029
C35   C     C_R   0.724478 0.608287 0.645004 -0.091182
C36   C     C_R   0.253501 0.480466 0.505399 0.252953
C37   C     C_R   0.746499 0.519563 0.494608 0.252949
C38   C     C_R   0.127224 0.398842 0.618575 -0.143733
C39   C     C_R   0.872777 0.601213 0.381452 -0.143741
C40   C     C_R   0.100918 0.317343 0.729641 0.268301
C41   C     C_R   0.899083 0.682725 0.270398 0.268296
C42   C     C_R   0.125633 0.529878 0.359086 0.014821
Cu1   Cu    Cu3+1 0.505380 0.517380 0.684380 0.965334
Cu2   Cu    Cu3+1 0.494620 0.482620 0.315620 0.965334
H1    H     H_    0.341913 0.330202 0.235399 0.173086
H2    H     H_    0.355069 0.652444 0.774345 0.180035
H3    H     H_    0.883149 0.386599 0.894938 0.199634
H4    H     H_    0.116852 0.613470 0.105100 0.199633
H5    H     H_    0.493757 0.959904 0.285260 0.179988
H6    H     H_    0.506243 0.040096 0.714740 0.179988
H7    H     H_    0.658085 0.669805 0.764602 0.173085
H8    H     H_    0.969749 0.387089 0.903601 0.172417
H9    H     H_    0.030252 0.612989 0.096444 0.172418
H10   H     H_    0.462190 0.377717 0.948102 0.229031
H11   H     H_    0.537810 0.622283 0.051898 0.229031
H12   H     H_    0.253535 0.318257 0.237825 0.200263
H13   H     H_    0.746463 0.681769 0.762179 0.200261
H14   H     H_    0.644934 0.347569 0.225659 0.180035
N1    N     N_R   0.201517 0.475175 0.500131 -0.468150
N2    N     N_R   0.798483 0.524863 0.499881 -0.468149
N3    N     N_2   0.486510 0.456430 0.038510 -0.214124
N4    N     N_2   0.513490 0.543570 0.961490 -0.214124
O1    O     O_R   0.503500 0.286120 0.619780 -0.582777
O2    O     O_2   0.794340 0.658003 0.259185 -0.450911
O3    O     O_2   0.800086 0.403474 0.753299 -0.469103
O4    O     O_2   0.199915 0.596575 0.246722 -0.469106
O5    O     O_R   0.496500 0.713880 0.380220 -0.582778
O6    O     O_R   0.494410 0.256780 0.308360 -0.587247
O7    O     O_R   0.505590 0.743220 0.691640 -0.587248
O8    O     O_R   0.434810 0.514700 0.655690 -0.588743
O9    O     O_R   0.565190 0.485300 0.344310 -0.588743
O10   O     O_R   0.425720 0.485350 0.344280 -0.575894
O11   O     O_R   0.574280 0.514650 0.655720 -0.575895
O12   O     O_2   0.205659 0.342013 0.740807 -0.450910

loop_
_geom_bond_atom_site_label_1
_geom_bond_atom_site_label_2
_ccdc_geom_bond_type
C12   O7    A    
Cu1   N4    S    
C24   C39   A    
C16   O8    A    
C20   H5    S    
C20   C21   D    
C2    C14   A    
C1    C20   S    
C27   C36   A    
C13   C15   A    
Cu2   O6    S    
C15   H4    S    
C31   H1    S    
C5    C8    A    
Br1   C40   S    
Br6   C19   S    
C11   C14   A    
C8    C18   A    
C5    C9    A    
C6    C10   A    
H10   N3    S    
C36   N1    S    
Cu1   O7    S    
C26   O3    S    
C33   C36   A    
Cu2   N3    S    
C19   C41   A    
C11   H8    S    
C15   C42   A    
Cu1   O1    S    
C35   C37   A    
C7    C19   A    
Cu2   O10   S    
C24   O2    S    
C38   C40   A    
C1    O6    A    
C39   C41   A    
C34   C39   A    
C12   C21   S    
C23   C42   A    
N3    N4    D    
C2    C26   A    
C16   O10   A    
C32   C35   A    
Cu2   O5    S    
C21   H6    S    
Br3   C28   S    
C13   H9    S    
C10   C23   A    
C22   C38   A    
Cu1   O11   S    
C32   H7    S    
C3    C31   A    
Cu1   O8    S    
C17   O9    A    
C24   N2    A    
C25   O4    S    
C12   O5    A    
C25   C42   A    
C7    C9    A    
C23   C38   A    
C4    C17   S    
C8    C10   A    
C35   H13   S    
Cu2   O9    S    
C26   N2    A    
C25   N1    A    
C33   H12   S    
Br4   C27   S    
C5    C11   A    
C28   C37   A    
C14   H3    S    
C1    O1    A    
C3    C16   S    
Br2   C41   S    
C4    C32   A    
C18   C40   A    
C22   N1    A    
C31   C33   A    
H11   N4    S    
Br5   C18   S    
C37   N2    S    
C6    C13   A    
C27   C29   A    
C28   C30   A    
C22   O12   S    
C9    C34   A    
C6    C7    A    
Cu1   Cu2   S    
C29   H2    S    
C3    C29   A    
C4    C30   A    
C2    C34   A    
C17   O11   A    
C30   H14   S    
