data_mof_unit_64500.cif
_audit_creation_date              2012-12-10T17:54:01-0500
_audit_creation_method            fapswitch 2.2
_symmetry_space_group_name_H-M    P1
_symmetry_Int_Tables_number       1
_space_group_crystal_system       triclinic
_cell_length_a                    18.919387
_cell_length_b                    18.773957
_cell_length_c                    18.776098
_cell_angle_alpha                 109.253799
_cell_angle_beta                  109.164912
_cell_angle_gamma                 109.667802
_cell_volume                      5154.42592831

loop_
_atom_site_label
_atom_site_type_symbol
_atom_type_description
_atom_site_fract_x
_atom_site_fract_y
_atom_site_fract_z
_atom_type_partial_charge
C1    C     C_R   0.881651 0.381156 0.000263 0.795982
C2    C     C_R   0.814574 0.313250 0.998276 -0.070300
C3    C     C_R   0.826363 0.246727 0.008975 -0.210458
C4    C     C_R   0.761772 0.181974 0.008634 -0.212462
C5    C     C_R   0.684069 0.181998 0.994726 -0.087521
C6    C     C_R   0.669179 0.241510 0.972234 0.141251
C7    C     C_3   0.638563 0.300791 0.008446 -0.477206
C8    C     C_3   0.709865 0.372482 0.011519 -0.464417
C9    C     C_R   0.257860 0.574786 0.250642 0.126407
C10   C     C_R   0.182554 0.498921 0.183517 -0.081259
C11   C     C_R   0.172283 0.419788 0.180344 -0.213269
C12   C     C_R   0.883560 0.501369 0.881407 0.844440
C13   C     C_R   0.236695 0.419791 0.244936 -0.208834
C14   C     C_R   0.313074 0.498652 0.311430 -0.092145
C15   C     C_R   0.320949 0.574489 0.310643 0.126429
C16   C     C_3   0.378045 0.670668 0.357036 -0.462467
C17   C     C_3   0.306379 0.670796 0.287707 -0.492644
C18   C     C_R   0.261082 0.751058 0.076879 0.098885
C19   C     C_R   0.186198 0.684102 0.999404 -0.077373
C20   C     C_R   0.181329 0.675610 0.920435 -0.203803
C21   C     C_R   0.245565 0.740273 0.920374 -0.212194
C22   C     C_R   0.316401 0.812044 0.999327 -0.078033
C23   C     C_R   0.118510 0.618713 0.999609 0.793134
C24   C     C_R   0.325830 0.813431 0.076767 0.135664
C25   C     C_3   0.343404 0.884532 0.157600 -0.482282
C26   C     C_3   0.271930 0.815957 0.157443 -0.462657
C27   C     C_R   0.496994 0.380972 0.378284 0.811231
C28   C     C_R   0.614422 0.501242 0.616846 0.846812
C29   C     C_R   0.496078 0.618534 0.614845 0.798562
C30   C     C_R   0.379069 0.499956 0.378636 0.798558
C31   C     C_R   0.500272 0.881111 0.881781 0.797302
C32   C     C_R   0.618555 0.118611 0.999344 0.788462
C33   C     C_R   0.499189 0.118391 0.118256 0.831902
C34   C     C_R   0.117900 0.500207 0.117928 0.799385
C35   C     C_R   0.381554 0.881230 0.000433 0.802981
C36   C     C_R   0.574277 0.318183 0.319492 0.109002
C37   C     C_R   0.496962 0.312783 0.313126 -0.109710
C38   C     C_R   0.419011 0.235689 0.247883 -0.262381
C39   C     C_R   0.418378 0.170456 0.183140 0.130451
C40   C     C_R   0.496930 0.181893 0.185681 -0.083168
C41   C     C_R   0.574271 0.253276 0.257457 0.082004
C42   C     C_3   0.649913 0.317039 0.260603 -0.490102
C43   C     C_3   0.649690 0.388445 0.328712 -0.435465
C44   C     C_R   0.571715 0.757321 0.751270 0.128843
C45   C     C_2   0.753906 0.574052 0.748927 -0.160697
C46   C     C_R   0.495574 0.684333 0.681176 -0.091021
C47   C     C_R   0.417485 0.675715 0.678286 -0.210171
C48   C     C_R   0.418591 0.740737 0.744107 -0.210024
C49   C     C_R   0.497897 0.813222 0.814849 -0.084877
C50   C     C_R   0.572894 0.817779 0.815983 0.126323
C51   C     C_3   0.668685 0.872282 0.864693 -0.482905
C52   C     C_3   0.667423 0.802639 0.791311 -0.473313
C53   C     C_2   0.677940 0.502181 0.687397 -0.313914
C54   C     C_2   0.814857 0.573945 0.822110 -0.156797
C55   C     C_2   0.820774 0.502459 0.812059 -0.316794
C56   C     C_R   0.733788 0.306680 0.974878 0.098695
Cu1   Cu    Cu3+1 0.999590 0.561790 0.061400 0.938576
Cu2   Cu    Cu3+1 0.000410 0.438210 0.938600 0.949352
Cu3   Cu    Cu3+1 0.558560 0.561730 0.496790 0.937898
Cu4   Cu    Cu3+1 0.434970 0.438120 0.496790 0.945605
Cu5   Cu    Cu3+1 0.438600 0.999980 0.938570 0.957354
Cu6   Cu    Cu3+1 0.561400 0.999920 0.061330 0.945757
H1    H     H_    0.769695 0.635092 0.748472 0.158289
H2    H     H_    0.760800 0.425509 0.078615 0.212227
H3    H     H_    0.114502 0.358704 0.129095 0.147067
H4    H     H_    0.227349 0.358592 0.242276 0.154378
H5    H     H_    0.386818 0.702632 0.423170 0.196061
H6    H     H_    0.438430 0.689494 0.353150 0.206440
H7    H     H_    0.274285 0.703498 0.313887 0.206029
H8    H     H_    0.325175 0.688800 0.243299 0.193349
H9    H     H_    0.126041 0.621481 0.859166 0.153510
H10   H     H_    0.239172 0.735181 0.859151 0.150396
H11   H     H_    0.408457 0.912239 0.212803 0.203484
H12   H     H_    0.657946 0.443752 0.692975 0.154042
H13   H     H_    0.327883 0.933350 0.146507 0.198698
H14   H     H_    0.295795 0.804416 0.212732 0.193125
H15   H     H_    0.214739 0.824828 0.145963 0.211067
H16   H     H_    0.358429 0.227766 0.244774 0.155356
H17   H     H_    0.707781 0.310299 0.286528 0.206566
H18   H     H_    0.633270 0.318657 0.198852 0.185246
H19   H     H_    0.707459 0.422888 0.393929 0.196091
H20   H     H_    0.632850 0.431396 0.306327 0.207319
H21   H     H_    0.356143 0.619974 0.624930 0.156636
H22   H     H_    0.858634 0.634643 0.883249 0.161000
H23   H     H_    0.358085 0.733982 0.740251 0.150636
H24   H     H_    0.690929 0.936190 0.866810 0.193606
H25   H     H_    0.697713 0.875082 0.928197 0.206226
H26   H     H_    0.689642 0.826604 0.751578 0.206019
H27   H     H_    0.695123 0.764733 0.812265 0.192294
H28   H     H_    0.783681 0.444542 0.748490 0.154653
H29   H     H_    0.886764 0.247304 0.021665 0.143464
H30   H     H_    0.773239 0.133429 0.021131 0.155985
H31   H     H_    0.572718 0.281532 0.960740 0.204586
H32   H     H_    0.648055 0.312296 0.073678 0.185340
H33   H     H_    0.685102 0.394527 0.965576 0.197901
O1    O     O_R   0.909480 0.462010 0.051860 -0.586222
O2    O     O_R   0.445180 0.357580 0.407200 -0.589340
O3    O     O_R   0.638540 0.552110 0.586390 -0.582746
O4    O     O_R   0.534170 0.447730 0.586390 -0.585136
O5    O     O_R   0.548350 0.642270 0.586380 -0.589516
O6    O     O_R   0.443970 0.537890 0.586380 -0.585410
O7    O     O_R   0.459360 0.552110 0.407190 -0.585582
O8    O     O_R   0.354990 0.447740 0.407190 -0.591231
O9    O     O_R   0.448700 0.909820 0.858480 -0.589206
O10   O     O_R   0.552410 0.909770 0.962140 -0.585782
O11   O     O_R   0.538310 0.090150 0.948110 -0.585222
O12   O     O_R   0.910180 0.357650 0.948150 -0.586640
O13   O     O_R   0.642020 0.090090 0.051780 -0.589960
O14   O     O_R   0.447590 0.090130 0.037760 -0.564428
O15   O     O_R   0.551300 0.090080 0.141420 -0.592178
O16   O     O_R   0.357980 0.909810 0.948120 -0.581452
O17   O     O_R   0.461690 0.909750 0.051790 -0.585132
O18   O     O_R   0.910060 0.552180 0.962250 -0.581777
O19   O     O_R   0.910760 0.447820 0.858550 -0.587501
O20   O     O_R   0.089820 0.642350 0.051850 -0.590881
O21   O     O_R   0.090520 0.537990 0.948140 -0.585181
O22   O     O_R   0.089240 0.552180 0.141450 -0.585389
O23   O     O_R   0.089940 0.447820 0.037750 -0.586067
O24   O     O_R   0.549550 0.461960 0.407200 -0.587471
N1    N     N_3   0.338342 0.093833 0.114671 -0.584476
H34   H     H_    0.298557 0.113205 0.082573 0.223866
H35   H     H_    0.308644 0.063576 0.142729 0.206389

loop_
_geom_bond_atom_site_label_1
_geom_bond_atom_site_label_2
_ccdc_geom_bond_type
C34   O23   A    
Cu3   Cu4   S    
C42   H18   S    
C41   C42   S    
C19   C20   A    
C18   C26   S    
Cu4   O4    S    
Cu5   O14   S    
C8    C56   S    
C54   H22   S    
C52   H27   S    
C7    C8    S    
Cu1   O20   S    
Cu6   O10   S    
C17   H7    S    
C22   C35   S    
C18   C24   A    
C36   C37   A    
C31   C49   S    
C18   C19   A    
C55   H28   S    
C5    C6    A    
Cu6   O13   S    
C28   O3    A    
C15   C16   S    
Cu2   O23   S    
C3    H29   S    
Cu2   O12   S    
C23   O21   A    
C54   C55   D    
C53   H12   S    
N1    H35   S    
C16   C17   S    
Cu1   O1    S    
C30   O8    A    
C26   H14   S    
C20   H9    S    
C16   H6    S    
C47   H21   S    
Cu4   O8    S    
C9    C10   A    
C5    C32   S    
C44   C52   S    
C34   O22   A    
C45   C53   D    
C42   H17   S    
C32   O11   A    
C21   C22   A    
Cu2   O21   S    
Cu3   O5    S    
C31   O10   A    
C36   C41   A    
C8    H33   S    
C14   C30   S    
C51   H24   S    
C44   C46   A    
C12   O19   A    
C13   H4    S    
C7    H31   S    
C26   H15   S    
C21   H10   S    
C51   C52   S    
C33   C40   S    
C52   H26   S    
Cu5   O9    S    
C24   C25   S    
Cu4   O2    S    
C51   H25   S    
C39   C40   A    
Cu1   O18   S    
C38   H16   S    
C25   C26   S    
C45   H1    S    
C3    C4    A    
C25   H13   S    
C19   C23   S    
C37   C38   A    
C47   C48   A    
Cu6   O15   S    
C30   O7    A    
C50   C51   S    
C29   O6    A    
C10   C34   S    
C16   H5    S    
Cu5   O11   S    
C1    O12   A    
C28   O4    A    
C9    C17   S    
C48   C49   A    
C8    H2    S    
C45   C54   S    
C43   H19   S    
C22   C24   A    
C33   O14   A    
C42   C43   S    
Cu4   O6    S    
Cu5   O16   S    
C35   O16   A    
N1    H34   S    
Cu1   O22   S    
C12   O18   A    
C44   C50   A    
Cu3   O3    S    
C7    H32   S    
C46   C47   A    
C27   O2    A    
Cu3   O24   S    
C29   O5    A    
C48   H23   S    
Cu3   O7    S    
C6    C56   A    
C4    C5    A    
C28   C53   S    
C6    C7    S    
C27   O24   A    
C29   C46   S    
C31   O9    A    
C2    C3    A    
C9    C15   A    
C2    C56   A    
C11   C13   A    
Cu1   Cu2   S    
C38   C39   A    
C27   C37   S    
C1    O1    A    
C1    C2    S    
C25   H11   S    
Cu5   Cu6   S    
C12   C55   S    
C10   C11   A    
C23   O20   A    
C11   H3    S    
C17   H8    S    
Cu6   O17   S    
C20   C21   A    
C49   C50   A    
C32   O13   A    
Cu2   O19   S    
C43   H20   S    
C14   C15   A    
C36   C43   S    
C40   C41   A    
C33   O15   A    
C13   C14   A    
C35   O17   A    
C39   N1    S    
C4    H30   S    
