data_mof_unit_68324.cif
_audit_creation_date              2013-03-05T15:41:21-0500
_audit_creation_method            fapswitch 2.2
_symmetry_space_group_name_H-M    P1
_symmetry_Int_Tables_number       1
_space_group_crystal_system       triclinic
_cell_length_a                    10.601235
_cell_length_b                    8.767648
_cell_length_c                    7.450917
_cell_angle_alpha                 102.85214
_cell_angle_beta                  94.219712
_cell_angle_gamma                 92.599755
_cell_volume                      672.008328316

loop_
_atom_site_label
_atom_site_type_symbol
_atom_site_description
_atom_site_fract_x
_atom_site_fract_y
_atom_site_fract_z
_atom_type_partial_charge
O1    O     O_R   0.509190 0.286130 0.619780 -0.574410
O2    O     O_R   0.490810 0.713870 0.380220 -0.574400
O3    O     O_R   0.485310 0.256770 0.308360 -0.514563
O4    O     O_R   0.514690 0.743230 0.691640 -0.514557
C1    C     C_R   0.496649 0.200491 0.453940 0.811226
C2    C     C_R   0.503349 0.799509 0.546060 0.811236
O5    O     O_R   0.328790 0.514640 0.655680 -0.588862
O6    O     O_R   0.671210 0.485360 0.344320 -0.588864
O7    O     O_R   0.304910 0.485280 0.344260 -0.588355
O8    O     O_R   0.695090 0.514720 0.655740 -0.588356
C3    C     C_R   0.259660 0.499802 0.502130 0.789041
C4    C     C_R   0.740340 0.500198 0.497870 0.789042
Cu1   Cu    Cu3+1 0.514140 0.517380 0.684380 1.059500
Cu2   Cu    Cu3+1 0.485860 0.482620 0.315620 1.059500
N1    N     N_2   0.464560 0.456420 0.038510 -0.182329
N2    N     N_2   0.535440 0.543580 0.961490 -0.182326
C5    C     C_3   0.048837 0.518468 0.677170 -0.165979
C6    C     C_3   0.951163 0.481532 0.322830 -0.165980
C7    C     C_3   0.955496 0.380996 0.570477 -0.197011
C8    C     C_3   0.044504 0.619004 0.429523 -0.197010
H1    H     H_    0.916196 0.282864 0.625758 0.167078
H2    H     H_    0.083804 0.717136 0.374241 0.167079
H3    H     H_    0.090878 0.534705 0.821686 0.164235
H4    H     H_    0.909122 0.465295 0.178314 0.164233
C9    C     C_3   0.876757 0.499829 0.495060 -0.032616
C10   C     C_3   0.123242 0.500171 0.504940 -0.032615
C11   C     C_3   0.968373 0.635119 0.600142 -0.002641
C12   C     C_3   0.031627 0.364881 0.399858 -0.002640
H5    H     H_    0.397424 0.383231 0.949474 0.261553
H6    H     H_    0.602575 0.616770 0.050526 0.261556
C13   C     C_2   0.504251 0.034700 0.428153 0.025201
C14   C     C_2   0.495742 0.965300 0.571846 0.025201
C15   C     C_1   0.930964 0.784468 0.709458 0.267807
N3    N     N_1   0.901306 0.902139 0.795570 -0.219283
C16   C     C_1   0.069036 0.215532 0.290541 0.267805
N4    N     N_1   0.098694 0.097861 0.204430 -0.219282
N5    N     N_R   0.529255 0.949886 0.247347 0.145253
O9    O     O_R   0.436554 0.907480 0.118739 -0.270929
O10   O     O_R   0.645661 0.933245 0.205884 -0.353928
N6    N     N_R   0.470739 0.050115 0.752653 0.145239
O11   O     O_R   0.563436 0.092473 0.881275 -0.270911
O12   O     O_R   0.354334 0.066760 0.794115 -0.353935

loop_
_geom_bond_atom_site_label_1
_geom_bond_atom_site_label_2
_geom_bond_distance
_ccdc_geom_bond_type
C2    C14   1.430044 S    
O7    Cu2   1.946283 S    
N5    O9    1.300784 A    
C8    C11   1.539117 S    
O3    Cu2   1.968578 S    
C9    C11   1.527659 S    
C10   C12   1.527659 S    
C13   C14   1.350446 D    
C4    C9    1.448024 S    
O6    C4    1.290233 A    
N6    O12   1.300747 A    
C15   N3    1.157392 T    
N5    O10   1.300762 A    
O2    C2    1.289314 A    
Cu1   Cu2   2.688873 S    
C11   C15   1.468162 S    
O5    C3    1.290233 A    
C7    C12   1.539116 S    
O7    C3    1.285264 A    
C5    H3    1.110755 S    
C6    C9    1.537395 S    
C8    C10   1.538954 S    
O1    C1    1.289314 A    
C5    C10   1.537395 S    
O8    C4    1.285264 A    
N6    O11   1.300787 A    
C7    H1    1.110814 S    
C8    H2    1.110814 S    
N1    H5    1.028652 S    
C6    C8    1.553592 S    
C14   N6    1.436280 S    
O2    Cu2   1.974271 S    
C6    H4    1.110756 S    
C1    C13   1.430039 S    
O1    Cu1   1.974269 S    
C7    C9    1.538954 S    
N2    H6    1.028653 S    
N1    N2    1.297844 D    
C5    C11   1.539902 S    
C13   N5    1.436271 S    
O5    Cu1   1.959307 S    
C6    C12   1.539902 S    
O4    C2    1.287948 A    
Cu1   N2    2.020525 S    
O4    Cu1   1.968579 S    
Cu2   N1    2.020526 S    
O6    Cu2   1.959309 S    
C3    C10   1.448024 S    
C5    C7    1.553592 S    
C16   N4    1.157392 T    
C12   C16   1.468163 S    
O3    C1    1.287947 A    
O8    Cu1   1.946283 S    
