data_mof_unit_53188.cif
_audit_creation_date              2013-03-05T16:34:12-0500
_audit_creation_method            fapswitch 2.2
_symmetry_space_group_name_H-M    P1
_symmetry_Int_Tables_number       1
_space_group_crystal_system       triclinic
_cell_length_a                    10.876338
_cell_length_b                    10.766373
_cell_length_c                    9.611984
_cell_angle_alpha                 89.029787
_cell_angle_beta                  91.274029
_cell_angle_gamma                 90.517657
_cell_volume                      1125.0691647

loop_
_atom_site_label
_atom_site_type_symbol
_atom_site_description
_atom_site_fract_x
_atom_site_fract_y
_atom_site_fract_z
_atom_type_partial_charge
O1    O     O_R   0.500000 0.319640 0.618810 -0.531482
O2    O     O_R   0.500010 0.319680 0.381230 -0.569778
C1    C     C_R   0.494244 0.262801 0.500609 0.877410
O3    O     O_R   0.319640 0.499990 0.618790 -0.577468
O4    O     O_R   0.319650 0.500030 0.381210 -0.554247
C2    C     C_R   0.262520 0.500479 0.498129 0.833509
Cu1   Cu    Cu3+1 0.499990 0.499980 0.640670 1.005046
Cu2   Cu    Cu3+1 0.500010 0.500020 0.359330 0.985242
O5    O     O_R   0.499990 0.680320 0.618770 -0.582671
O6    O     O_R   0.500000 0.680360 0.381190 -0.588361
O7    O     O_R   0.680350 0.499970 0.618790 -0.576130
O8    O     O_R   0.680360 0.500010 0.381210 -0.598168
C3    C     C_R   0.500385 0.737325 0.498999 0.819340
C4    C     C_R   0.737687 0.499137 0.501884 0.780150
H1    H     H_    0.232582 0.684854 0.883467 0.158801
C5    C     C_R   0.177335 0.740859 0.086722 -0.139296
H2    H     H_    0.193424 0.838719 0.066091 0.184611
C6    C     C_R   0.133808 0.701243 0.216043 -0.159304
H3    H     H_    0.115640 0.769124 0.294730 0.152770
C7    C     C_R   0.112283 0.574431 0.242620 0.102970
C8    C     C_R   0.135361 0.487717 0.139343 -0.056890
H4    H     H_    0.118336 0.389671 0.158232 0.177648
C9    C     C_R   0.179790 0.527632 0.010800 -0.155712
H5    H     H_    0.198915 0.460353 0.932381 0.167320
C10   C     C_R   0.199373 0.654159 0.983764 -0.136651
C11   C     C_R   0.931221 0.531657 0.381876 -0.214719
H6    H     H_    0.878225 0.560660 0.291002 0.147086
C12   C     C_R   0.871931 0.498438 0.504755 -0.039338
C13   C     C_R   0.942714 0.467135 0.625243 0.060560
C14   C     C_R   0.069632 0.464318 0.617238 -0.169498
H7    H     H_    0.122649 0.437711 0.709330 0.167508
C15   C     C_R   0.128659 0.498721 0.494787 -0.056443
C16   C     C_R   0.058384 0.533077 0.375225 0.008098
C17   C     C_R   0.879537 0.548189 0.857489 0.071585
C18   C     C_R   0.840739 0.523007 0.993018 -0.282849
H8    H     H_    0.831928 0.598121 0.064795 0.125443
C19   C     C_R   0.816188 0.401838 0.038443 -0.099793
H9    H     H_    0.787541 0.386001 0.144460 0.185548
C20   C     C_R   0.832356 0.301990 0.949340 0.050584
C21   C     C_R   0.869528 0.325771 0.812545 -0.277480
H10   H     H_    0.884541 0.249067 0.743544 0.135122
C22   C     C_R   0.891446 0.447937 0.765007 0.117991
C23   C     C_R   0.547929 0.063484 0.605278 0.197853
C24   C     C_R   0.482218 0.129256 0.503035 -0.198522
C25   C     C_R   0.409869 0.063640 0.403501 0.336688
C26   C     C_R   0.418342 0.933641 0.400952 -0.276186
H11   H     H_    0.365257 0.881742 0.324489 0.182269
C27   C     C_R   0.494209 0.870582 0.498057 -0.154141
C28   C     C_R   0.553274 0.935983 0.603984 0.105211
C29   C     C_3   0.687043 0.936551 0.644013 -0.439995
C30   C     C_3   0.680263 0.076892 0.645937 -0.475471
H12   H     H_    0.705522 0.895112 0.748764 0.205138
H13   H     H_    0.745989 0.901160 0.560546 0.223680
H14   H     H_    0.691265 0.115760 0.751367 0.220910
H15   H     H_    0.735642 0.123723 0.564125 0.192971
C31   C     C_R   0.492540 0.608405 0.071045 0.257323
N1    N     N_R   0.500790 0.500930 0.147930 -0.224567
C32   C     C_R   0.488376 0.393031 0.077240 -0.092888
H16   H     H_    0.477074 0.306404 0.133709 0.222533
C33   C     C_R   0.482376 0.392576 0.929706 0.376270
N2    N     N_R   0.500790 0.500890 0.852020 -0.246312
C34   C     C_R   0.493933 0.608401 0.925027 0.186123
C35   C     C_3   0.575778 0.719733 0.920132 -0.477518
C36   C     C_3   0.573632 0.720272 0.078615 -0.453893
H17   H     H_    0.666814 0.699123 0.877531 0.200040
H18   H     H_    0.528355 0.801218 0.871937 0.221916
H19   H     H_    0.663582 0.701249 0.130738 0.197248
H20   H     H_    0.524564 0.801676 0.119398 0.222361
C37   C     C_2   0.815200 0.172526 0.999473 0.389866
H21   H     H_    0.839443 0.095762 0.933985 0.066233
O9    O     O_2   0.774452 0.149796 0.114614 -0.536321
N3    N     N_R   0.328515 0.126304 0.305975 0.123503
O10   O     O_R   0.264333 0.220473 0.344959 -0.383104
O11   O     O_R   0.305335 0.079161 0.184289 -0.354715
N4    N     N_R   0.440638 0.280144 0.867235 0.141648
O12   O     O_R   0.331704 0.277187 0.808542 -0.360034
O13   O     O_R   0.492142 0.175728 0.904228 -0.371875
C38   C     C_2   0.909253 0.679785 0.820482 0.300473
H22   H     H_    0.906509 0.749991 0.900124 0.081588
O14   O     O_2   0.935672 0.712512 0.702650 -0.554367

loop_
_geom_bond_atom_site_label_1
_geom_bond_atom_site_label_2
_geom_bond_distance
_ccdc_geom_bond_type
C2    C15   1.455507 S    
C35   H17   1.105607 S    
C13   C22   1.476546 S    
C18   H8    1.078147 S    
C17   C22   1.418500 A    
C23   C24   1.390102 A    
Cu1   Cu2   2.704232 S    
C25   C26   1.404141 A    
Cu1   O7    1.977543 S    
C11   H6    1.079045 S    
C34   C35   1.487294 S    
C36   H20   1.111757 S    
C12   C13   1.413986 A    
C18   C19   1.394055 A    
C19   H9    1.082529 S    
C17   C18   1.399648 A    
C14   H7    1.081581 S    
O7    C4    1.297413 A    
C38   O14   1.220090 D    
H1    C10   1.082412 S    
C32   C33   1.418240 A    
C31   N1    1.364941 A    
C6    H3    1.083138 S    
C37   O9    1.221417 D    
O5    C3    1.295489 A    
Cu1   N2    2.031508 S    
C5    H2    1.082200 S    
C29   H12   1.109339 S    
C9    H5    1.079028 S    
C31   C36   1.488190 S    
C30   H15   1.112448 S    
C21   C22   1.405140 A    
C35   H18   1.110888 S    
C8    H4    1.083062 S    
C25   N3    1.438513 S    
C37   H21   1.085237 S    
O3    Cu1   1.968134 S    
C26   C27   1.402636 A    
C1    C24   1.442398 S    
C29   H13   1.112438 S    
C36   H19   1.108344 S    
N3    O11   1.301504 A    
C20   C21   1.402952 A    
C38   H22   1.085933 S    
C23   C28   1.374755 A    
C32   H16   1.078570 S    
C33   N2    1.389435 A    
O1    C1    1.299583 A    
N4    O12   1.301248 A    
C13   C14   1.384895 A    
Cu2   N1    2.032038 S    
O4    Cu2   1.977543 S    
C11   C16   1.385894 A    
Cu2   O8    1.968135 S    
C29   C30   1.513871 S    
C20   C37   1.478648 S    
C5    C6    1.398473 A    
N4    O13   1.301151 A    
C7    C16   1.475051 S    
O3    C2    1.303423 A    
C21   H10   1.083668 S    
O8    C4    1.304544 A    
C8    C9    1.396273 A    
C31   C34   1.403947 A    
C24   C25   1.418792 A    
C5    C10   1.397863 A    
Cu1   O5    1.949437 S    
C26   H11   1.083953 S    
C27   C28   1.390028 A    
O1    Cu1   1.956479 S    
O2    Cu2   1.949440 S    
N3    O10   1.301114 A    
O6    C3    1.296802 A    
C3    C27   1.436738 S    
C33   N4    1.426356 S    
C11   C12   1.397921 A    
C30   H14   1.106553 S    
C15   C16   1.411878 A    
O2    C1    1.293960 A    
C19   C20   1.400492 A    
C17   C38   1.489332 S    
C14   C15   1.396151 A    
C23   C30   1.489402 S    
N1    C32   1.359866 A    
O4    C2    1.296305 A    
C6    C7    1.403284 A    
C9    C10   1.397787 A    
N2    C34   1.367191 A    
C35   C36   1.524142 S    
C7    C8    1.402409 A    
Cu2   O6    1.956479 S    
C28   C29   1.496620 S    
C4    C12   1.459810 S    
