data_mof_unit_9873.cif
_audit_creation_date              2013-03-05T15:56:35-0500
_audit_creation_method            fapswitch 2.2
_symmetry_space_group_name_H-M    P1
_symmetry_Int_Tables_number       1
_space_group_crystal_system       triclinic
_cell_length_a                    6.920771
_cell_length_b                    14.578572
_cell_length_c                    15.971301
_cell_angle_alpha                 90.407034
_cell_angle_beta                  89.981447
_cell_angle_gamma                 90.213743
_cell_volume                      1611.37180236

loop_
_atom_site_label
_atom_site_type_symbol
_atom_site_description
_atom_site_fract_x
_atom_site_fract_y
_atom_site_fract_z
_atom_type_partial_charge
O1    O     O_R   0.361600 0.167310 0.164620 -0.579617
O2    O     O_R   0.638400 0.832690 0.835380 -0.579672
O3    O     O_R   0.691080 0.157570 0.338750 -0.557240
O4    O     O_R   0.308920 0.842430 0.661250 -0.557251
O5    O     O_R   0.861410 0.336420 0.339360 -0.603183
O6    O     O_R   0.138590 0.663580 0.660640 -0.603206
C1    C     C_R   0.521422 0.136107 0.368141 1.044210
C2    C     C_R   0.478577 0.863893 0.631859 1.044216
O7    O     O_R   0.691320 0.156280 0.165240 -0.561450
O8    O     O_R   0.308680 0.843720 0.834760 -0.561275
O9    O     O_R   0.861640 0.335130 0.164600 -0.586821
O10   O     O_R   0.138360 0.664870 0.835400 -0.587060
C3    C     C_R   0.521752 0.133807 0.136223 1.125477
C4    C     C_R   0.478247 0.866204 0.863770 1.125385
O11   O     O_R   0.361370 0.168600 0.339370 -0.590750
O12   O     O_R   0.638630 0.831400 0.660630 -0.590741
O13   O     O_3   0.527990 0.310540 0.251980 -0.280003
O14   O     O_3   0.472010 0.689460 0.748020 -0.280202
V1    V     V_3+5 0.802830 0.240980 0.251990 1.352473
V2    V     V_3+5 0.197170 0.759020 0.748010 1.352531
O15   O     O_R   0.191360 0.346160 0.165220 -0.556249
O16   O     O_R   0.808640 0.653840 0.834780 -0.556304
C5    C     C_R   0.022193 0.368204 0.136163 1.114143
C6    C     C_R   0.977807 0.631772 0.863817 1.114555
O17   O     O_R   0.191130 0.347440 0.338740 -0.599588
O18   O     O_R   0.808870 0.652560 0.661260 -0.599581
C7    C     C_R   0.022275 0.368542 0.368144 1.082145
C8    C     C_R   0.977725 0.631458 0.631856 1.082055
V3    V     V_3+5 0.302840 0.262750 0.251990 1.339619
V4    V     V_3+5 0.697160 0.737250 0.748010 1.339575
O19   O     O_3   0.027820 0.193180 0.251990 -0.242485
O20   O     O_3   0.972180 0.806820 0.748010 -0.242416
C9    C     C_3   0.918585 0.423001 0.524937 0.400676
C10   C     C_3   0.081413 0.576996 0.475065 0.400701
C11   C     C_3   0.093008 0.469223 0.567472 0.065141
C12   C     C_3   0.906989 0.530775 0.432531 0.065160
C13   C     C_3   0.989321 0.562629 0.561828 -0.312011
C14   C     C_3   0.010677 0.437369 0.438174 -0.312046
C15   C     C_3   0.811933 0.515679 0.519679 -0.271605
C16   C     C_3   0.188065 0.484319 0.480323 -0.271611
H1    H     H_    0.657714 0.527269 0.535577 0.171065
H2    H     H_    0.342284 0.472728 0.464426 0.171060
C17   C     C_R   0.860518 0.488171 0.936123 0.278542
C18   C     C_R   0.139528 0.511763 0.063813 0.278097
C19   C     C_R   0.869852 0.425740 0.003144 0.291914
C20   C     C_R   0.130245 0.574158 0.996771 0.291963
C21   C     C_R   0.009828 0.436624 0.067242 -0.501261
C22   C     C_R   0.990172 0.563325 0.932715 -0.501336
C23   C     C_R   0.651528 0.999566 0.442271 -0.107013
C24   C     C_R   0.348472 0.000434 0.557729 -0.106980
H3    H     H_    0.768907 0.997543 0.397379 0.208127
H4    H     H_    0.231093 0.002457 0.602622 0.208135
C25   C     C_R   0.644800 0.933125 0.505193 0.374761
C26   C     C_R   0.355200 0.066875 0.494808 0.374757
C27   C     C_R   0.491545 0.932946 0.563974 -0.333570
C28   C     C_R   0.508455 0.067054 0.436026 -0.333567
C29   C     C_R   0.635827 0.988466 0.065042 0.281215
C30   C     C_R   0.364163 0.011557 0.934942 0.281351
C31   C     C_R   0.628040 0.925301 0.997725 0.287922
C32   C     C_R   0.371969 0.074735 0.002253 0.288251
C33   C     C_R   0.491247 0.935813 0.932559 -0.495656
C34   C     C_R   0.508744 0.064209 0.067426 -0.496002
C35   C     C_3   0.200777 0.433531 0.643494 -0.640500
H5    H     H_    0.260188 0.364580 0.629437 0.285151
H6    H     H_    0.321512 0.480878 0.659337 0.228275
H7    H     H_    0.101076 0.429008 0.697667 0.263451
C36   C     C_3   0.799210 0.566468 0.356513 -0.640536
H8    H     H_    0.739790 0.635416 0.370574 0.285122
H9    H     H_    0.898905 0.570997 0.302339 0.263508
H10   H     H_    0.678480 0.519118 0.340669 0.228282
N1    N     N_R   0.825459 0.339901 0.555590 0.250432
O21   O     O_R   0.754778 0.338411 0.631005 -0.302763
O22   O     O_R   0.799938 0.269503 0.506431 -0.355930
N2    N     N_R   0.174539 0.660096 0.444412 0.250430
O23   O     O_R   0.245223 0.661584 0.368997 -0.302894
O24   O     O_R   0.200057 0.730495 0.493570 -0.355927
N3    N     N_R   0.723515 0.472342 0.869849 0.271157
O25   O     O_R   0.541920 0.458482 0.886880 -0.292729
O26   O     O_R   0.781650 0.466875 0.792505 -0.383888
N4    N     N_R   0.276399 0.527657 0.130125 0.270914
O27   O     O_R   0.218111 0.533184 0.207445 -0.383990
O28   O     O_R   0.458050 0.541429 0.113162 -0.292849
N5    N     N_R   0.744641 0.347230 0.002385 0.258532
O29   O     O_R   0.782214 0.278305 0.952943 -0.278924
O30   O     O_R   0.579341 0.350570 0.041065 -0.327402
N6    N     N_R   0.255608 0.652603 0.997462 0.258653
O31   O     O_R   0.421667 0.648964 0.959412 -0.326917
O32   O     O_R   0.215815 0.722535 0.045421 -0.279987
N7    N     N_R   0.792105 0.864757 0.506617 0.235712
O33   O     O_R   0.940631 0.876028 0.555488 -0.359187
O34   O     O_R   0.799925 0.804039 0.446700 -0.350342
N8    N     N_R   0.207895 0.135243 0.493383 0.235712
O35   O     O_R   0.059370 0.123973 0.444513 -0.359190
O36   O     O_R   0.200076 0.195961 0.553301 -0.350310
N9    N     N_R   0.768148 0.972787 0.132767 0.270005
O37   O     O_R   0.950508 0.958745 0.117785 -0.284058
O38   O     O_R   0.704780 0.967792 0.209329 -0.376761
N10   N     N_R   0.231861 0.027239 0.867210 0.270021
O39   O     O_R   0.295245 0.032208 0.790649 -0.376757
O40   O     O_R   0.049515 0.041325 0.882185 -0.284059
N11   N     N_R   0.751964 0.846802 0.998948 0.258172
O41   O     O_R   0.917334 0.849406 0.960276 -0.328316
O42   O     O_R   0.714309 0.779385 0.049368 -0.277761
N12   N     N_R   0.248176 0.153284 0.000989 0.258041
O43   O     O_R   0.285991 0.220659 0.950557 -0.277857
O44   O     O_R   0.082715 0.150743 0.039590 -0.329202

loop_
_geom_bond_atom_site_label_1
_geom_bond_atom_site_label_2
_geom_bond_distance
_ccdc_geom_bond_type
V4    O20   2.153369 S    
C35   H6    1.109959 S    
N11   O41   1.300895 A    
C10   C13   1.540410 S    
O13   V3    1.704502 S    
N9    O37   1.301161 A    
C30   N10   1.437560 S    
O4    C2    1.302263 A    
V1    O19   1.708297 S    
N12   O44   1.300885 A    
C12   C36   1.521079 S    
C29   C34   1.414541 A    
C15   H1    1.110286 S    
N3    O25   1.301139 A    
O9    V1    2.005083 S    
C24   C26   1.401338 A    
N2    O24   1.299316 A    
C10   C16   1.544815 S    
C11   C13   1.544810 S    
O3    C1    1.302263 A    
C17   N3    1.438123 S    
N6    O32   1.301078 A    
C29   C31   1.411523 A    
C7    C14   1.499607 S    
C30   C32   1.411573 A    
C32   C34   1.416708 A    
O7    C3    1.301783 A    
C9    C11   1.536464 S    
O5    C7    1.289761 A    
O7    V1    2.002307 S    
O6    C8    1.289761 A    
C3    C34   1.492786 S    
O8    V2    2.002307 S    
C23   H3    1.083676 S    
C24   H4    1.083676 S    
O3    V1    2.003275 S    
O14   V4    1.704503 S    
N7    O34   1.300209 A    
C17   C22   1.414924 A    
C10   C12   1.536463 S    
C18   C21   1.414970 A    
C30   C33   1.414564 A    
C19   C21   1.417339 A    
C35   H7    1.108664 S    
C2    O12   1.292223 A    
C19   N5    1.433014 S    
C1    C28   1.487206 S    
C2    C27   1.487206 S    
O1    V3    2.006178 S    
N12   O43   1.300467 A    
C18   C20   1.411524 A    
O11   V3    2.006837 S    
C20   C22   1.417236 A    
C25   C27   1.416236 A    
O17   V3    2.005956 S    
C13   C15   1.554518 S    
C26   C28   1.416236 A    
C31   C33   1.416676 A    
C5    C21   1.493390 S    
N2    O23   1.300174 A    
C36   H8    1.108928 S    
C6    C22   1.493384 S    
C18   N4    1.438116 S    
N4    O28   1.301095 A    
O8    C4    1.301773 A    
N1    O22   1.299316 A    
N6    O31   1.300943 A    
C1    O11   1.292223 A    
C4    C33   1.492820 S    
O15   V3    2.006504 S    
C36   H9    1.108657 S    
C31   N11   1.432924 S    
C26   N8    1.428699 S    
C16   H2    1.110287 S    
N5    O29   1.300534 A    
O10   V2    2.005086 S    
N8    O36   1.300208 A    
N3    O26   1.301024 A    
C9    C15   1.544814 S    
C17   C19   1.411619 A    
C10   N2    1.457782 S    
N5    O30   1.300870 A    
O18   V4    2.005955 S    
N10   O40   1.301157 A    
O15   C5    1.301780 A    
C25   N7    1.428698 S    
O16   C6    1.301751 A    
O1    C3    1.293574 A    
V2    O20   1.708297 S    
O16   V4    2.006507 S    
C12   C15   1.556028 S    
C24   C27   1.402550 A    
N4    O27   1.301032 A    
N9    O38   1.301356 A    
O5    V1    2.004008 S    
O17   C7    1.296574 A    
C23   C28   1.402550 A    
O6    V2    2.004008 S    
O10   C6    1.293156 A    
O18   C8    1.296571 A    
C9    C14   1.540414 S    
O2    V4    2.006181 S    
C36   H10   1.109959 S    
C12   C14   1.544811 S    
C11   C16   1.556030 S    
N1    O21   1.300173 A    
V3    O19   2.153372 S    
C14   C16   1.554520 S    
C8    C13   1.499601 S    
C23   C25   1.401339 A    
O9    C5    1.293138 A    
N8    O35   1.300095 A    
O13   V1    2.158880 S    
O14   V2    2.158881 S    
O2    C4    1.293595 A    
C9    N1    1.457781 S    
C35   H5    1.108928 S    
O4    V2    2.003273 S    
N11   O42   1.300586 A    
N10   O39   1.301357 A    
C29   N9    1.437558 S    
C11   C35   1.521081 S    
N7    O33   1.300095 A    
C32   N12   1.432974 S    
O12   V4    2.006835 S    
C20   N6    1.432887 S    
