data_mof_unit_38643.cif
_audit_creation_date              2012-12-11T15:29:33-0500
_audit_creation_method            fapswitch 2.2
_symmetry_space_group_name_H-M    P1
_symmetry_Int_Tables_number       1
_space_group_crystal_system       triclinic
_cell_length_a                    13.447378
_cell_length_b                    13.464667
_cell_length_c                    27.587207
_cell_angle_alpha                 90.446508
_cell_angle_beta                  89.913382
_cell_angle_gamma                 60.201467
_cell_volume                      4334.39153335

loop_
_atom_site_label
_atom_site_type_symbol
_atom_type_description
_atom_site_fract_x
_atom_site_fract_y
_atom_site_fract_z
_atom_type_partial_charge
C1    C     C_R   0.620188 0.100912 0.570041 0.530416
C2    C     C_1   0.591304 0.801114 0.624108 -0.007111
C3    C     C_3   0.690745 0.609553 0.768407 -0.095248
C4    C     C_3   0.655810 0.696990 0.810576 0.010982
C5    C     C_3   0.572486 0.686344 0.744819 -0.139458
C6    C     C_3   0.622639 0.751696 0.718201 0.067766
C7    C     C_3   0.537544 0.772862 0.787671 -0.120987
C8    C     C_3   0.587457 0.838927 0.760243 -0.147776
C9    C     C_1   0.675026 0.659385 0.861010 -0.057922
C10   C     C_1   0.606167 0.778703 0.666557 -0.026013
C11   C     C_3   0.080316 0.158288 0.737191 -0.092086
C12   C     C_R   0.570131 0.831349 0.574032 0.559114
C13   C     C_3   0.161913 0.068375 0.773432 0.312849
C14   C     C_1   0.100711 0.198100 0.900810 -0.007884
C15   C     C_1   0.232347 0.136405 0.617594 -0.016481
C16   C     C_3   0.074286 0.254003 0.770858 -0.139950
C17   C     C_3   0.155279 0.162550 0.806886 0.071608
C18   C     C_3   0.179944 0.247114 0.744945 -0.120393
C19   C     C_3   0.186165 0.151217 0.712175 0.013279
C20   C     C_3   0.260592 0.156014 0.781636 -0.139704
C21   C     C_3   0.268229 0.059546 0.747966 -0.109506
C22   C     C_1   0.130781 0.176904 0.859037 -0.025426
C23   C     C_R   0.277960 0.121445 0.569487 0.538230
C24   C     C_1   0.206731 0.144591 0.659852 -0.059721
C25   C     C_3   0.672999 0.253001 0.737879 -0.105150
C26   C     C_3   0.574904 0.280148 0.774478 -0.100055
C27   C     C_1   0.690925 0.206541 0.901587 -0.011927
C28   C     C_1   0.634856 0.131889 0.618269 -0.017082
C29   C     C_3   0.759259 0.157825 0.771612 -0.106443
C30   C     C_3   0.661079 0.184691 0.807403 0.053915
C31   C     C_3   0.735479 0.069123 0.745978 -0.102274
C32   C     C_3   0.649389 0.164538 0.712955 0.053613
C33   C     C_3   0.637518 0.096232 0.782535 -0.103531
C34   C     C_R   0.622621 0.100954 0.431812 0.548474
C35   C     C_3   0.551076 0.191347 0.748730 -0.103569
C36   C     C_1   0.673285 0.195581 0.859624 -0.054527
C37   C     C_1   0.642781 0.149914 0.660560 -0.058407
C38   C     C_R   0.640752 0.713729 0.384706 -0.070224
C39   C     C_R   0.740876 0.698913 0.362417 -0.134889
C40   C     C_R   0.762717 0.666556 0.313623 0.222646
C41   C     C_R   0.678882 0.656993 0.286678 0.047948
C42   C     C_R   0.582254 0.663833 0.309570 0.220307
C43   C     C_R   0.566621 0.687515 0.359140 -0.145031
C44   C     C_R   0.603047 0.721383 0.203944 -0.083718
C45   C     C_R   0.602171 0.775607 0.430764 0.558873
C46   C     C_R   0.609169 0.701120 0.154158 -0.140046
C47   C     C_R   0.793081 0.528465 0.165245 -0.127123
C48   C     C_R   0.785014 0.546471 0.214731 -0.091839
C49   C     C_R   0.690087 0.642572 0.234262 0.099767
C50   C     C_R   0.704620 0.604597 0.134904 0.027667
C51   C     C_R   0.248008 0.131944 0.379883 0.029631
C52   C     C_R   0.179384 0.089919 0.361158 -0.140897
C53   C     C_R   0.157110 0.097864 0.311518 -0.129532
C54   C     C_R   0.206276 0.144847 0.280721 0.031966
C55   C     C_R   0.278735 0.181826 0.299656 -0.132824
C56   C     C_R   0.281633 0.119355 0.430365 0.538640
C57   C     C_R   0.298073 0.176910 0.348773 -0.125883
C58   C     C_R   0.155671 0.265031 0.207848 -0.148479
C59   C     C_R   0.123302 0.285574 0.159912 -0.183351
C60   C     C_R   0.131941 0.100551 0.153810 0.266126
C61   C     C_R   0.170262 0.078701 0.201864 -0.110554
C62   C     C_R   0.177607 0.162383 0.229314 -0.009362
C63   C     C_R   0.107629 0.205912 0.132780 0.031947
C64   C     C_R   0.645383 0.142012 0.386205 0.021768
C65   C     C_R   0.561725 0.245643 0.365267 0.250474
C66   C     C_R   0.569660 0.263574 0.315990 -0.108301
C67   C     C_3   0.738584 0.676914 0.741904 0.316990
C68   C     C_R   0.664241 0.184608 0.288504 -0.007816
C69   C     C_R   0.754791 0.090760 0.311404 -0.137404
C70   C     C_R   0.744987 0.068985 0.359725 -0.171583
C71   C     C_R   0.713952 0.100971 0.205104 -0.121957
C72   C     C_R   0.724118 0.112701 0.155617 -0.139628
C73   C     C_R   0.630423 0.318871 0.166235 -0.125594
C74   C     C_R   0.622646 0.307044 0.215768 -0.127268
C75   C     C_R   0.666689 0.197822 0.235775 0.030363
C76   C     C_R   0.684809 0.221532 0.136156 0.023117
C77   C     C_R   0.050471 0.234551 0.948075 0.546700
C78   C     C_3   0.706019 0.763082 0.784223 -0.100674
C79   C     C_R   0.711522 0.563084 0.946729 0.547986
C80   C     C_R   0.722487 0.224069 0.949144 0.545176
C81   C     C_R   0.048477 0.243265 0.086242 0.553833
C82   C     C_R   0.710325 0.570238 0.084791 0.535367
C83   C     C_R   0.720052 0.233672 0.087643 0.533750
C84   C     C_1   0.691591 0.620073 0.901167 -0.015176
Cr1   Cr    Cr6+3 0.417550 0.169090 0.500530 1.034383
Cr2   Cr    Cr6+3 0.669180 0.913420 0.499920 1.019535
Cr3   Cr    Cr6+3 0.413260 0.917540 0.499520 1.004249
Cr4   Cr    Cr6+3 0.909770 0.175810 0.018240 1.049153
Cr5   Cr    Cr6+3 0.913300 0.427650 0.016090 1.020533
Cr6   Cr    Cr6+3 0.657770 0.431010 0.016900 1.028040
H1    H     H_    0.334093 0.155257 0.800259 0.106170
H2    H     H_    0.188482 0.320322 0.732023 0.105961
H3    H     H_    0.994616 0.333675 0.781192 0.096468
H4    H     H_    0.508652 0.366869 0.786839 0.105353
H5    H     H_    0.687882 0.317117 0.719087 0.105111
H6    H     H_    0.465262 0.205049 0.738654 0.103579
H7    H     H_    0.623178 0.032565 0.801958 0.101775
H8    H     H_    0.801127 0.982089 0.733713 0.105254
H9    H     H_    0.844712 0.144675 0.781945 0.118529
H10   H     H_    0.799067 0.718577 0.381825 0.143069
H11   H     H_    0.529484 0.796535 0.219024 0.110981
H12   H     H_    0.539880 0.759122 0.130983 0.120062
H13   H     H_    0.850456 0.483288 0.237846 0.109393
H14   H     H_    0.491604 0.693836 0.376670 0.138721
H15   H     H_    0.142430 0.052825 0.384807 0.105938
H16   H     H_    0.159859 0.331491 0.228573 0.108826
H17   H     H_    0.103826 0.367527 0.145095 0.144305
H18   H     H_    0.544227 0.933098 0.755822 0.102872
H19   H     H_    0.100187 0.069524 0.297368 0.101777
H20   H     H_    0.192415 0.997494 0.218114 0.094252
H21   H     H_    0.320280 0.215082 0.276460 0.113510
H22   H     H_    0.355355 0.205458 0.362277 0.176291
H23   H     H_    0.766611 0.036756 0.132884 0.114103
H24   H     H_    0.498882 0.336935 0.299088 0.111409
H25   H     H_    0.454234 0.812712 0.807315 0.135596
H26   H     H_    0.601631 0.403714 0.152119 0.145214
H27   H     H_    0.831158 0.031292 0.291435 0.112090
H28   H     H_    0.812579 0.991084 0.375371 0.139054
H29   H     H_    0.517119 0.655938 0.728227 0.104466
H30   H     H_    0.734834 0.515036 0.772038 0.097078
H31   H     H_    0.006326 0.160997 0.718258 0.094392
H32   H     H_    0.346803 0.979232 0.737442 0.096257
O1    O     O_R   0.301780 0.195490 0.553940 -0.503936
O2    O     O_R   0.658840 0.818280 0.449970 -0.493567
O3    O     O_R   0.503160 0.801780 0.445740 -0.519455
O4    O     O_R   0.319320 0.022190 0.450230 -0.499049
O5    O     O_3   0.499990 0.000010 0.499990 -0.268645
O6    O     O_R   0.819250 0.149410 0.965240 -0.503065
O7    O     O_R   0.006940 0.180310 0.968270 -0.485237
O8    O     O_R   0.028420 0.332670 0.963010 -0.510142
O9    O     O_R   0.810130 0.520390 0.966030 -0.495602
O10   O     O_R   0.636050 0.541380 0.962520 -0.502596
O11   O     O_R   0.666480 0.323610 0.968170 -0.494112
O12   O     O_R   0.522450 0.158840 0.550250 -0.504154
O13   O     O_R   0.817280 0.156800 0.072180 -0.531061
O14   O     O_R   0.005110 0.187160 0.067410 -0.454187
O15   O     O_R   0.026450 0.340060 0.069950 -0.536412
O16   O     O_R   0.808300 0.527240 0.065170 -0.504254
O17   O     O_R   0.634070 0.548770 0.069460 -0.512794
O18   O     O_R   0.664650 0.330470 0.067300 -0.503262
O19   O     O_3   0.826940 0.344820 0.017080 -0.254922
O20   O     O_R   0.694460 0.003360 0.553820 -0.513018
O21   O     O_R   0.657750 0.819520 0.549120 -0.483537
O22   O     O_R   0.501990 0.803120 0.552700 -0.512458
O23   O     O_R   0.318230 0.023430 0.549370 -0.514161
O24   O     O_R   0.302950 0.194150 0.446980 -0.504377
O25   O     O_R   0.523540 0.157600 0.451100 -0.450985
O26   O     O_R   0.695630 0.002030 0.446860 -0.531543
H33   H     H_    0.760673 0.794044 0.801019 0.094936
O27   O     O_3   0.841370 0.627409 0.714762 -0.564409
C85   C     C_3   0.937208 0.571782 0.745588 0.004714
H34   H     H_    0.994842 0.485817 0.729838 0.152111
H35   H     H_    0.916253 0.558024 0.783259 0.114620
C86   C     C_3   0.001558 0.638641 0.746808 -0.264264
H36   H     H_    0.033784 0.638933 0.709756 0.173882
H37   H     H_    0.942378 0.728597 0.758160 0.159753
C87   C     C_3   0.102478 0.585694 0.781676 -0.484485
H38   H     H_    0.071943 0.585549 0.819097 0.157456
H39   H     H_    0.146874 0.636604 0.781613 0.146907
H40   H     H_    0.164609 0.496593 0.770360 0.141751
O28   O     O_3   0.856858 0.661354 0.290542 -0.571294
C88   C     C_3   0.959950 0.567552 0.307758 0.005029
H41   H     H_    0.994302 0.499669 0.279300 0.139034
H42   H     H_    0.950187 0.528130 0.341632 0.119137
C89   C     C_3   0.047685 0.606220 0.316796 -0.267320
H43   H     H_    0.059006 0.644990 0.283288 0.172762
H44   H     H_    0.015481 0.672151 0.346113 0.157240
C90   C     C_3   0.163561 0.506058 0.331524 -0.471399
H45   H     H_    0.154599 0.465420 0.364888 0.170226
H46   H     H_    0.224489 0.537316 0.338850 0.145837
H47   H     H_    0.199288 0.441170 0.301886 0.144697
H48   H     H_    0.865597 0.451235 0.150873 0.127173
O29   O     O_3   0.507218 0.641640 0.283303 -0.582571
C91   C     C_3   0.393911 0.736079 0.285083 0.003787
H49   H     H_    0.366328 0.764054 0.247293 0.139376
H50   H     H_    0.384783 0.812824 0.304996 0.130194
C92   C     C_3   0.313433 0.698532 0.307019 -0.261056
H51   H     H_    0.311001 0.633182 0.282946 0.164829
H52   H     H_    0.345820 0.659282 0.342969 0.149618
C93   C     C_3   0.192337 0.799690 0.313280 -0.492958
H53   H     H_    0.192418 0.862570 0.339500 0.150796
H54   H     H_    0.135023 0.769395 0.327553 0.141903
H55   H     H_    0.158468 0.842265 0.278042 0.140135
O30   O     O_3   0.123704 0.017866 0.126488 -0.556689
C94   C     C_3   0.047445 0.986863 0.148310 0.019111
H56   H     H_    0.981829 0.999240 0.121071 0.182253
H57   H     H_    0.999494 0.040318 0.180502 0.112682
C95   C     C_3   0.111946 0.860050 0.161739 -0.276678
H58   H     H_    0.149159 0.807355 0.128397 0.178594
H59   H     H_    0.183427 0.842512 0.186649 0.152533
C96   C     C_3   0.032419 0.824703 0.186148 -0.482166
H60   H     H_    0.994756 0.875740 0.219821 0.141436
H61   H     H_    0.081720 0.732751 0.195795 0.152910
H62   H     H_    0.962204 0.837786 0.161223 0.152866
O31   O     O_3   0.464868 0.322626 0.390970 -0.567923
C97   C     C_3   0.470999 0.422313 0.402072 -0.003658
H63   H     H_    0.381837 0.494861 0.405281 0.138308
H64   H     H_    0.513199 0.446144 0.373103 0.129610
C98   C     C_3   0.531000 0.409013 0.450748 -0.261673
H65   H     H_    0.483258 0.392779 0.479637 0.178728
H66   H     H_    0.619469 0.334750 0.448885 0.155459
C99   C     C_3   0.537310 0.516026 0.463888 -0.465523
H67   H     H_    0.591167 0.529140 0.437034 0.154401
H68   H     H_    0.576588 0.505619 0.500208 0.161101
H69   H     H_    0.450208 0.592544 0.464813 0.153023
H70   H     H_    0.745469 0.015946 0.219467 0.119679
H71   H     H_    0.587008 0.383062 0.238518 0.136905
O32   O     O_3   0.152640 0.974896 0.790834 -0.567577
C100  C     C_3   0.171062 0.896198 0.752778 0.008212
H72   H     H_    0.227959 0.808526 0.766596 0.143273
H73   H     H_    0.215379 0.905310 0.720326 0.118210
C101  C     C_3   0.057334 0.905567 0.737635 -0.267639
H74   H     H_    0.023437 0.876309 0.767748 0.164637
H75   H     H_    0.993772 0.995888 0.729832 0.160823
C102  C     C_3   0.072106 0.833961 0.692252 -0.487715
H76   H     H_    0.098665 0.867335 0.661070 0.156634
H77   H     H_    0.989442 0.838612 0.683282 0.153340
H78   H     H_    0.138083 0.743244 0.698234 0.143640

loop_
_geom_bond_atom_site_label_1
_geom_bond_atom_site_label_2
_ccdc_geom_bond_type
C44   C49   A    
C58   C62   A    
C66   C68   A    
C26   H4    S    
C89   H43   S    
C73   C74   A    
C72   C76   A    
C2    C12   S    
C17   C20   S    
Cr3   O5    S    
C47   H48   S    
C94   H56   S    
C6    C67   S    
C65   C66   A    
C7    C8    S    
C35   H6    S    
C52   C53   A    
C68   C75   S    
C81   O15   A    
C23   O23   A    
C11   C19   S    
C16   H3    S    
C87   H38   S    
C73   H26   S    
C99   H68   S    
C63   C81   S    
C95   C96   S    
C19   C21   S    
C51   C56   S    
C97   C98   S    
C5    C6    S    
Cr5   O19   S    
C90   H46   S    
C31   H8    S    
C57   H22   S    
Cr4   O6    S    
C100  C101  S    
O30   C94   S    
C95   H59   S    
C18   C19   S    
C41   C42   A    
C85   C86   S    
C7    H25   S    
C21   H32   S    
C43   H14   S    
C38   C45   S    
C1    O20   A    
C100  H73   S    
C91   H49   S    
C34   O26   A    
C71   H70   S    
C31   C32   S    
C44   C46   A    
C16   C17   S    
C92   H52   S    
C99   H69   S    
C98   C99   S    
C85   H34   S    
C31   C33   S    
C51   C57   A    
C64   C70   A    
Cr3   O22   S    
C66   H24   S    
C86   H37   S    
C61   C62   A    
C93   H55   S    
Cr1   O12   S    
Cr6   O10   S    
C25   C32   S    
C15   C23   S    
C98   H65   S    
C89   H44   S    
C67   O27   S    
C8    C78   S    
C11   H31   S    
C67   C78   S    
Cr4   O7    S    
C4    C7    S    
C61   H20   S    
C8    H18   S    
C76   C83   S    
C41   C49   S    
C83   O18   A    
C93   H54   S    
Cr2   O21   S    
Cr6   O17   S    
C47   C50   A    
C88   H42   S    
C74   H71   S    
C90   H47   S    
C45   O2    A    
C25   C29   S    
C38   C39   A    
C20   H1    S    
C74   C75   A    
C29   H9    S    
C51   C52   A    
Cr5   O16   S    
C32   C35   S    
Cr1   O24   S    
Cr4   O14   S    
C86   C87   S    
C97   H64   S    
C27   C80   S    
C99   H67   S    
C102  H78   S    
C45   O3    A    
C39   C40   A    
C14   C77   S    
Cr6   O11   S    
O32   C100  S    
C94   C95   S    
C6    C8    S    
C54   C62   S    
C58   C59   A    
O29   C91   S    
C48   H13   S    
C72   H23   S    
C59   H17   S    
C80   O11   A    
C12   O22   A    
C95   H58   S    
C58   H16   S    
C102  H76   S    
C96   H61   S    
C4    C78   S    
C29   C30   S    
C1    C28   S    
C88   C89   S    
C46   H12   S    
C11   C16   S    
Cr6   O18   S    
C47   C48   A    
C101  C102  S    
C92   C93   S    
C79   O9    A    
C82   O17   A    
C34   C64   S    
C100  H72   S    
C13   O32   S    
C13   C21   S    
C77   O7    A    
C32   C37   S    
C20   C21   S    
C91   C92   S    
C86   H36   S    
C16   C18   S    
C90   H45   S    
C5    H29   S    
C52   H15   S    
C25   H5    S    
C87   H40   S    
Cr5   O15   S    
C1    O12   A    
C55   C57   A    
Cr2   O2    S    
C73   C76   A    
C60   C63   A    
Cr1   O5    S    
C34   O25   A    
C42   C43   A    
C56   O4    A    
C2    C10   T    
Cr4   O19   S    
Cr3   O3    S    
C93   H53   S    
C50   C82   S    
Cr2   O20   S    
C5    C7    S    
C88   H41   S    
C53   H19   S    
C96   H60   S    
C54   C55   A    
C15   C24   T    
Cr3   O23   S    
C30   C33   S    
C55   H21   S    
Cr2   O5    S    
C83   O13   A    
C68   C69   A    
C3    C67   S    
Cr1   O25   S    
Cr4   O13   S    
C101  H75   S    
C97   H63   S    
C3    C5    S    
C42   O29   S    
Cr2   O26   S    
C6    C10   S    
C23   O1    A    
C44   H11   S    
C53   C54   A    
C13   C17   S    
C27   C36   T    
C89   C90   S    
C80   O6    A    
C46   C50   A    
C59   C63   A    
C17   C22   S    
Cr5   O9    S    
C12   O21   A    
C30   C36   S    
C18   H2    S    
C64   C65   A    
C14   C22   T    
C102  H77   S    
C19   C24   S    
C25   C26   S    
C96   H62   S    
C40   O28   S    
C29   C31   S    
O28   C88   S    
C82   O16   A    
C71   C75   A    
C11   C13   S    
C39   H10   S    
C79   C84   S    
C28   C37   T    
C70   H28   S    
C48   C49   A    
C79   O10   A    
C69   H27   S    
C33   C35   S    
Cr1   O1    S    
C18   C20   S    
C77   O8    A    
C85   H35   S    
C56   O24   A    
C69   C70   A    
C91   H50   S    
Cr6   O19   S    
C94   H57   S    
C3    H30   S    
Cr5   O8    S    
C9    C84   T    
O31   C97   S    
C26   C35   S    
C38   C43   A    
C71   C72   A    
C101  H74   S    
C87   H39   S    
C92   H51   S    
C60   O30   S    
C98   H66   S    
O27   C85   S    
C60   C61   A    
C40   C41   A    
C33   H7    S    
C4    C9    S    
C81   O14   A    
Cr3   O4    S    
C3    C4    S    
C78   H33   S    
C65   O31   S    
C26   C30   S    
