data_mof_unit_5850.cif
_audit_creation_date              2012-12-10T16:36:42-0500
_audit_creation_method            fapswitch 2.2
_symmetry_space_group_name_H-M    P1
_symmetry_Int_Tables_number       1
_space_group_crystal_system       triclinic
_cell_length_a                    14.084315
_cell_length_b                    16.508683
_cell_length_c                    15.124922
_cell_angle_alpha                 89.884955
_cell_angle_beta                  92.035981
_cell_angle_gamma                 89.804173
_cell_volume                      3514.49984358

loop_
_atom_site_label
_atom_site_type_symbol
_atom_type_description
_atom_site_fract_x
_atom_site_fract_y
_atom_site_fract_z
_atom_type_partial_charge
C1    C     C_R   0.680274 0.845181 0.519499 0.897030
C2    C     C_R   0.944822 0.506622 0.108048 0.456182
C3    C     C_R   0.617151 0.006709 0.126834 -0.425594
C4    C     C_R   0.117151 0.506703 0.126834 -0.425598
C5    C     C_R   0.626645 0.007769 0.034930 0.509841
C6    C     C_R   0.126646 0.507762 0.034930 0.509841
C7    C     C_2   0.244579 0.216819 0.478634 0.236791
C8    C     C_2   0.248269 0.780467 0.473712 0.227776
C9    C     C_2   0.744579 0.716820 0.478633 0.236789
C10   C     C_2   0.748268 0.280468 0.473713 0.227776
C11   C     C_2   0.754861 0.786345 0.524916 -0.100482
C12   C     C_R   0.679612 0.155274 0.518895 0.909286
C13   C     C_2   0.753336 0.214286 0.526519 -0.096899
C14   C     C_2   0.254862 0.286345 0.524915 -0.100481
C15   C     C_2   0.253336 0.714286 0.526520 -0.096897
C16   C     C_R   0.319919 0.156204 0.480677 0.795532
C17   C     C_R   0.320545 0.843377 0.480135 0.793734
C18   C     C_R   0.819919 0.656204 0.480677 0.795532
C19   C     C_R   0.820545 0.343377 0.480135 0.793730
C20   C     C_R   0.520336 0.001511 0.260280 0.852629
C21   C     C_R   0.020336 0.501511 0.260280 0.852631
C22   C     C_R   0.479486 0.999831 0.738378 0.805903
C23   C     C_R   0.180274 0.345181 0.519499 0.897026
C24   C     C_R   0.979486 0.499831 0.738378 0.805904
C25   C     C_R   0.527432 0.004262 0.163602 -0.196104
C26   C     C_R   0.027432 0.504262 0.163601 -0.196108
C27   C     C_R   0.470608 0.998922 0.833006 -0.046785
C28   C     C_R   0.970608 0.498923 0.833006 -0.046783
C29   C     C_R   0.372572 0.981483 0.959141 0.207859
C30   C     C_R   0.872570 0.481489 0.959142 0.207858
C31   C     C_R   0.382497 0.983674 0.868093 -0.214382
C32   C     C_R   0.882495 0.483679 0.868093 -0.214385
C33   C     C_R   0.551418 0.007060 0.887730 -0.183794
C34   C     C_R   0.179611 0.655274 0.518895 0.909286
C35   C     C_R   0.051418 0.507056 0.887730 -0.183793
C36   C     C_3   0.328954 0.103189 0.125951 0.136539
C37   C     C_3   0.370907 0.161733 0.195277 -0.380447
C38   C     C_3   0.339218 0.248675 0.176372 -1.028083
C39   C     C_3   0.828959 0.603197 0.125952 0.136544
C40   C     C_3   0.870925 0.661741 0.195273 -0.380462
C41   C     C_3   0.839240 0.748684 0.176370 -1.028058
C42   C     C_3   0.784593 0.964118 0.031099 0.076481
C43   C     C_3   0.866467 0.011670 0.075222 -0.325446
C44   C     C_3   0.944994 0.955575 0.111503 -0.921610
C45   C     C_R   0.544138 0.004105 0.979626 -0.005528
C46   C     C_3   0.284591 0.464104 0.031101 0.076477
C47   C     C_3   0.366467 0.511654 0.075224 -0.325445
C48   C     C_3   0.444989 0.455558 0.111512 -0.921627
C49   C     C_3   0.658994 0.724961 0.347250 0.075215
C50   C     C_3   0.558226 0.750210 0.317559 -0.305971
C51   C     C_3   0.553837 0.778351 0.221298 -0.974349
C52   C     C_3   0.691564 0.268674 0.331388 0.073014
C53   C     C_3   0.605259 0.283652 0.269381 -0.313896
C54   C     C_3   0.624071 0.256294 0.175232 -0.919447
C55   C     C_3   0.158987 0.224961 0.347254 0.075225
C56   C     C_R   0.044138 0.504102 0.979626 -0.005528
C57   C     C_3   0.058222 0.250228 0.317573 -0.305967
C58   C     C_3   0.053827 0.278368 0.221312 -0.974336
C59   C     C_3   0.191572 0.768669 0.331385 0.073007
C60   C     C_3   0.105276 0.783659 0.269371 -0.313893
C61   C     C_3   0.124089 0.756292 0.175225 -0.919395
C62   C     C_R   0.452812 0.996801 0.016171 -0.100182
C63   C     C_R   0.952812 0.496803 0.016172 -0.100179
C64   C     C_R   0.444822 0.006619 0.108048 0.456183
H1    H     H_    0.680025 0.010445 0.169849 0.196986
H2    H     H_    0.449556 0.159092 0.195167 0.214908
H3    H     H_    0.367706 0.269880 0.112844 0.279525
H4    H     H_    0.366369 0.288629 0.230457 0.268951
H5    H     H_    0.260546 0.252988 0.172553 0.269305
H6    H     H_    0.750286 0.605857 0.128783 0.176081
H7    H     H_    0.846528 0.623766 0.058195 0.132967
H8    H     H_    0.847852 0.643752 0.261846 0.243408
H9    H     H_    0.949573 0.659096 0.195153 0.214908
H10   H     H_    0.867718 0.769887 0.112836 0.279521
H11   H     H_    0.866403 0.788638 0.230450 0.268950
H12   H     H_    0.180026 0.510437 0.169849 0.196987
H13   H     H_    0.760567 0.753001 0.172562 0.269302
H14   H     H_    0.812494 0.930322 0.974057 0.174300
H15   H     H_    0.757927 0.917309 0.077345 0.129129
H16   H     H_    0.896759 0.053447 0.025938 0.248304
H17   H     H_    0.839461 0.048683 0.130273 0.218027
H18   H     H_    0.917930 0.917264 0.165357 0.262215
H19   H     H_    0.005020 0.992278 0.138904 0.280470
H20   H     H_    0.971656 0.916233 0.058224 0.280684
H21   H     H_    0.312492 0.430306 0.974061 0.174300
H22   H     H_    0.257922 0.417297 0.077348 0.129133
H23   H     H_    0.321435 0.972427 0.824255 0.168030
H24   H     H_    0.396763 0.553426 0.025938 0.248308
H25   H     H_    0.339462 0.548672 0.130271 0.218030
H26   H     H_    0.417921 0.417253 0.165368 0.262217
H27   H     H_    0.505017 0.492257 0.138910 0.280479
H28   H     H_    0.471647 0.416210 0.058237 0.280685
H29   H     H_    0.682424 0.673865 0.305447 0.175058
H30   H     H_    0.706963 0.777700 0.336869 0.129930
H31   H     H_    0.509240 0.698186 0.325105 0.232840
H32   H     H_    0.534012 0.800481 0.360206 0.203484
H33   H     H_    0.602133 0.830540 0.212247 0.266463
H34   H     H_    0.821432 0.472436 0.824255 0.168028
H35   H     H_    0.480233 0.797686 0.202553 0.273841
H36   H     H_    0.574598 0.728178 0.177046 0.266375
H37   H     H_    0.709536 0.202893 0.330236 0.140724
H38   H     H_    0.752525 0.303951 0.306634 0.161929
H39   H     H_    0.543366 0.250009 0.294180 0.214059
H40   H     H_    0.587599 0.349345 0.268677 0.249069
H41   H     H_    0.686034 0.289045 0.149369 0.295178
H42   H     H_    0.560913 0.269650 0.131550 0.275675
H43   H     H_    0.638194 0.190067 0.173832 0.260258
H44   H     H_    0.182401 0.173861 0.305447 0.175060
H45   H     H_    0.619762 0.014651 0.857993 0.183344
H46   H     H_    0.206968 0.277692 0.336868 0.129921
H47   H     H_    0.009224 0.198213 0.325126 0.232833
H48   H     H_    0.034026 0.300504 0.360223 0.203479
H49   H     H_    0.102137 0.330547 0.212254 0.266462
H50   H     H_    0.980226 0.297718 0.202575 0.273836
H51   H     H_    0.074568 0.228189 0.177059 0.266372
H52   H     H_    0.209532 0.702885 0.330234 0.140734
H53   H     H_    0.252541 0.803937 0.306636 0.161915
H54   H     H_    0.043371 0.750028 0.294169 0.214064
H55   H     H_    0.087632 0.849356 0.268662 0.249067
H56   H     H_    0.119764 0.514642 0.857993 0.183345
H57   H     H_    0.186065 0.789030 0.149364 0.295169
H58   H     H_    0.060936 0.769660 0.131538 0.275676
H59   H     H_    0.138194 0.690060 0.173830 0.260244
H60   H     H_    0.250280 0.105844 0.128774 0.176083
H61   H     H_    0.346528 0.123761 0.058196 0.132965
H62   H     H_    0.347827 0.143742 0.261846 0.243416
I1    I     I_    0.236757 0.942086 0.000136 -0.370510
I2    I     I_    0.736752 0.442099 0.000136 -0.370500
I3    I     I_    0.382961 0.334951 0.584074 -0.250038
I4    I     I_    0.367612 0.674909 0.613532 -0.239832
I5    I     I_    0.882959 0.834950 0.584078 -0.250040
I6    I     I_    0.867622 0.174902 0.613517 -0.239835
O1    O     O_3   0.500000 1.000000 0.500000 -0.513038
O2    O     O_R   0.885830 0.337110 0.539910 -0.627728
O3    O     O_R   0.692160 0.095230 0.468550 -0.657100
O4    O     O_R   0.692160 0.904770 0.468550 -0.651231
O5    O     O_R   0.192160 0.595230 0.468550 -0.657102
O6    O     O_R   0.192160 0.404770 0.468550 -0.651231
O7    O     O_R   0.316720 0.904790 0.427870 -0.617821
O8    O     O_R   0.316720 0.095210 0.427870 -0.637756
O9    O     O_R   0.816720 0.404790 0.427870 -0.617825
O10   O     O_R   0.816720 0.595210 0.427870 -0.637751
O11   O     O_R   0.594900 0.000000 0.310900 -0.662687
O12   O     O_3   1.000000 0.500000 0.500000 -0.513038
O13   O     O_R   0.094900 0.500000 0.310900 -0.662687
O14   O     O_R   0.483090 0.932320 0.697550 -0.623841
O15   O     O_R   0.483090 0.067680 0.697550 -0.625126
O16   O     O_R   0.983090 0.432320 0.697550 -0.623842
O17   O     O_R   0.983090 0.567680 0.697550 -0.625125
O18   O     O_R   0.438930 0.000000 0.294000 -0.599666
O19   O     O_R   0.938930 0.500000 0.294000 -0.599665
O20   O     O_3   0.357443 0.022027 0.144193 -0.595221
O21   O     O_3   0.857443 0.522033 0.144194 -0.595221
O22   O     O_3   0.714525 0.019109 0.997557 -0.640576
O23   O     O_R   0.605310 0.837110 0.563680 -0.605078
O24   O     O_3   0.214527 0.519096 0.997556 -0.640575
O25   O     O_3   0.658216 0.698679 0.436310 -0.622083
O26   O     O_3   0.669276 0.293002 0.417756 -0.626447
O27   O     O_3   0.158214 0.198678 0.436313 -0.622082
O28   O     O_3   0.169280 0.793000 0.417751 -0.626449
O29   O     O_R   0.605310 0.162890 0.563680 -0.604214
O30   O     O_R   0.105310 0.337110 0.563680 -0.605078
O31   O     O_R   0.105310 0.662890 0.563680 -0.604214
O32   O     O_R   0.385830 0.162890 0.539910 -0.623912
O33   O     O_R   0.385830 0.837110 0.539910 -0.627730
O34   O     O_R   0.885830 0.662890 0.539910 -0.623912
Zn1   Zn    Zn3+2 0.493670 0.096680 0.574000 1.026319
Zn2   Zn    Zn3+2 0.493670 0.903320 0.574000 1.021635
Zn3   Zn    Zn3+2 0.993670 0.596680 0.574000 1.026320
Zn4   Zn    Zn3+2 0.993670 0.403320 0.574000 1.021633
Zn5   Zn    Zn3+2 0.617760 1.000000 0.438070 0.964407
Zn6   Zn    Zn3+2 0.117760 0.500000 0.438070 0.964403
Zn7   Zn    Zn3+2 0.394920 1.000000 0.413930 0.995195
Zn8   Zn    Zn3+2 0.894920 0.500000 0.413930 0.995196

loop_
_geom_bond_atom_site_label_1
_geom_bond_atom_site_label_2
_ccdc_geom_bond_type
C51   H33   S    
C21   C26   S    
C33   C45   A    
C57   H47   S    
C23   O6    A    
C36   H61   S    
C1    C11   S    
C44   H19   S    
C18   O34   A    
O10   Zn8   S    
C16   O8    A    
C53   C54   S    
C16   O32   A    
C19   O2    A    
C12   C13   S    
C52   H38   S    
C54   H43   S    
C39   O21   S    
O17   Zn3   S    
C36   C37   S    
C42   O22   S    
O23   Zn2   S    
C44   H18   S    
O1    Zn1   S    
C41   H13   S    
C50   H31   S    
C57   H48   S    
C7    O27   S    
C20   C25   S    
C53   H40   S    
C5    O22   S    
O12   Zn4   S    
C45   C62   A    
C40   H9    S    
C60   H55   S    
C61   H57   S    
C1    O23   A    
O5    Zn6   S    
C62   C64   A    
C41   H10   S    
C29   C62   A    
C39   H6    S    
C7    C14   D    
C22   O14   A    
C28   C35   A    
C20   O18   A    
O8    Zn7   S    
C48   H27   S    
C58   H49   S    
O16   Zn4   S    
C60   H54   S    
O3    Zn5   S    
C49   H30   S    
C1    O4    A    
C10   O26   S    
C15   C34   S    
C46   H21   S    
C55   O27   S    
C12   O29   A    
O13   Zn6   S    
C59   C60   S    
C59   H53   S    
O19   Zn8   S    
C48   H26   S    
C30   C63   A    
C52   O26   S    
C47   H25   S    
C20   O11   A    
C49   O25   S    
C35   H56   S    
C3    H1    S    
C28   C32   A    
C51   H35   S    
C30   I2    S    
C52   H37   S    
C31   H23   S    
C54   H42   S    
C27   C31   A    
C3    C25   A    
C4    C6    A    
C34   O31   A    
C24   O16   A    
O1    Zn2   S    
C6    C56   A    
C39   C40   S    
C36   O20   S    
C3    C5    A    
C43   H16   S    
C59   H52   S    
O6    Zn6   S    
O12   Zn3   S    
C12   O3    A    
C27   C33   A    
C60   C61   S    
C25   C64   A    
C21   O13   A    
C14   C23   S    
C43   C44   S    
C37   C38   S    
C41   H11   S    
C59   O28   S    
C47   C48   S    
O30   Zn4   S    
O4    Zn5   S    
C9    O25   S    
C10   C19   S    
C37   H2    S    
C50   C51   S    
C56   C63   A    
C17   O7    A    
C22   O15   A    
C9    C11   D    
O29   Zn1   S    
O15   Zn1   S    
C7    C16   S    
C64   O20   S    
C42   H14   S    
C8    C15   D    
C22   C27   S    
C29   I1    S    
C55   H46   S    
O2    Zn4   S    
O9    Zn8   S    
C43   H17   S    
C4    H12   S    
O7    Zn7   S    
C33   H45   S    
C42   C43   S    
C8    O28   S    
C52   C53   S    
C37   H62   S    
C51   H36   S    
O14   Zn2   S    
C46   C47   S    
C40   C41   S    
C18   O10   A    
C40   H8    S    
C54   H41   S    
C36   H60   S    
C35   C56   A    
O32   Zn1   S    
C24   C28   S    
C38   H4    S    
C44   H20   S    
C10   C13   D    
C11   I5    S    
C2    C26   A    
C4    C26   A    
O33   Zn2   S    
C2    O21   S    
C46   O24   S    
O12   Zn6   S    
C34   O5    A    
C8    C17   S    
C55   H44   S    
C61   H59   S    
C47   H24   S    
C23   O30   A    
C55   C57   S    
O1    Zn5   S    
C2    C63   A    
O11   Zn5   S    
C29   C31   A    
C17   O33   A    
C30   C32   A    
C50   H32   S    
C57   C58   S    
C58   H51   S    
C15   I4    S    
C5    C45   A    
C53   H39   S    
C13   I6    S    
C32   H34   S    
C21   O19   A    
O31   Zn3   S    
C38   H5    S    
C24   O17   A    
C9    C18   S    
C42   H15   S    
O18   Zn7   S    
C38   H3    S    
O34   Zn3   S    
C19   O9    A    
C49   C50   S    
C48   H28   S    
O12   Zn8   S    
C58   H50   S    
C39   H7    S    
C61   H58   S    
C49   H29   S    
O1    Zn7   S    
C6    O24   S    
C46   H22   S    
C14   I3    S    
