data_mof_unit_8398.cif
_audit_creation_date              2012-12-11T17:43:13-0500
_audit_creation_method            fapswitch 2.2
_symmetry_space_group_name_H-M    P1
_symmetry_Int_Tables_number       1
_space_group_crystal_system       triclinic
_cell_length_a                    15.144655
_cell_length_b                    15.217508
_cell_length_c                    17.293863
_cell_angle_alpha                 108.330785
_cell_angle_beta                  106.678376
_cell_angle_gamma                 108.559404
_cell_volume                      3237.81341597

loop_
_atom_site_label
_atom_site_type_symbol
_atom_type_description
_atom_site_fract_x
_atom_site_fract_y
_atom_site_fract_z
_atom_type_partial_charge
C1    C     C_R   0.087788 0.280222 0.059000 0.472096
C2    C     C_R   0.022821 0.064149 0.073545 0.587768
C3    C     C_R   0.000200 0.900657 0.970062 -0.175591
C4    C     C_R   0.000858 0.088524 0.000589 -0.163045
C5    C     C_R   0.024820 0.970375 0.058513 -0.101786
C6    C     C_R   0.976190 0.019345 0.912224 -0.100372
C7    C     C_R   0.022968 0.130984 0.835782 -0.230293
C8    C     C_R   0.983722 0.868016 0.143776 -0.226772
C9    C     C_R   0.893812 0.109502 0.700939 -0.200077
C10   C     C_R   0.117891 0.897781 0.279987 -0.194467
C11   C     C_R   0.511830 0.645008 0.347147 0.458850
C12   C     C_R   0.913988 0.713015 0.925316 0.433831
C13   C     C_R   0.512377 0.411176 0.719898 0.471403
C14   C     C_R   0.520619 0.647132 0.269401 -0.305596
C15   C     C_R   0.524155 0.426753 0.806998 -0.262625
C16   C     C_R   0.938251 0.501963 0.741510 0.469259
C17   C     C_R   0.063036 0.484289 0.253135 0.456090
C18   C     C_R   0.509095 0.558333 0.201700 -0.139675
C19   C     C_R   0.548780 0.524640 0.871704 -0.042054
C20   C     C_R   0.488551 0.466380 0.212314 0.311337
C21   C     C_R   0.561912 0.607686 0.848531 0.333490
C22   C     C_R   0.477561 0.464268 0.290579 0.488378
C23   C     C_R   0.030600 0.545457 0.737144 -0.002312
C24   C     C_R   0.549937 0.591246 0.759914 0.495849
C25   C     C_R   0.489622 0.554020 0.357012 -0.183772
C26   C     C_R   0.525405 0.492899 0.696860 -0.177119
C27   C     C_R   0.618336 0.570089 0.118372 0.549126
C28   C     C_R   0.452230 0.525306 0.961683 0.507323
C29   C     C_R   0.625624 0.553496 0.036576 -0.140522
C30   C     C_R   0.444503 0.544516 0.043674 -0.130865
C31   C     C_R   0.544506 0.536341 0.959156 -0.003304
C32   C     C_R   0.525253 0.562873 0.121929 -0.022307
C33   C     C_R   0.994567 0.163186 0.769164 0.545462
C34   C     C_R   0.972185 0.431015 0.255318 0.015821
C35   C     C_R   0.015438 0.842820 0.214782 0.534361
C36   C     C_R   0.965473 0.428711 0.334908 -0.101509
C37   C     C_R   0.039060 0.545782 0.657725 -0.097507
C38   C     C_R   0.069079 0.631847 0.566504 0.420566
C39   C     C_R   0.935463 0.342115 0.425888 0.418423
C40   C     C_R   0.724197 0.214933 0.822358 0.425430
C41   C     C_R   0.273000 0.787431 0.180040 0.451588
C42   C     C_R   0.077901 0.637822 0.650513 0.419812
C43   C     C_R   0.926872 0.336494 0.341821 0.426038
C44   C     C_R   0.995362 0.449004 0.585293 -0.081595
C45   C     C_R   0.674067 0.216914 0.743874 0.050214
C46   C     C_R   0.008547 0.525128 0.407545 -0.095044
C47   C     C_R   0.983913 0.440652 0.501047 -0.101505
C48   C     C_R   0.020592 0.533237 0.491652 -0.095621
C49   C     C_R   0.595301 0.129132 0.662959 0.032593
C50   C     C_R   0.400582 0.873069 0.341067 -0.060612
C51   C     C_R   0.578035 0.997013 0.435621 0.411572
C52   C     C_R   0.420684 0.996566 0.569625 0.377992
C53   C     C_R   0.500589 0.922045 0.349845 0.558639
C54   C     C_R   0.495249 0.079541 0.653664 0.486413
C55   C     C_R   0.374632 0.898007 0.412842 -0.211784
C56   C     C_R   0.320624 0.786587 0.259890 0.025323
C57   C     C_R   0.623152 0.101329 0.592568 -0.293638
C58   C     C_R   0.448327 0.972751 0.497121 0.042134
C59   C     C_R   0.550875 0.023455 0.508762 -0.070561
C60   C     C_R   0.821332 0.023760 0.699252 -0.179041
C61   C     C_R   0.188937 0.977725 0.274291 -0.149875
C62   C     C_R   0.849058 0.992267 0.766481 -0.011363
C63   C     C_R   0.157872 0.002521 0.203073 -0.004910
C64   C     C_R   0.298013 0.586985 0.999301 -0.025595
C65   C     C_R   0.737056 0.462905 0.045294 0.013239
C66   C     C_R   0.949900 0.046246 0.835708 0.144457
C67   C     C_R   0.350471 0.544895 0.043340 0.063035
C68   C     C_R   0.055203 0.947356 0.136957 0.139895
C69   C     C_R   0.730963 0.308604 0.746020 -0.163907
C70   C     C_R   0.265623 0.693204 0.256220 -0.175787
C71   C     C_R   0.289400 0.488272 0.071499 -0.051208
C72   C     C_R   0.754242 0.565384 0.975839 -0.136492
C73   C     C_R   0.111052 0.582086 0.818684 -0.061699
C74   C     C_R   0.891108 0.404036 0.177594 -0.096460
C75   C     C_R   0.916048 0.196904 0.978842 -0.146065
C76   C     C_R   0.084640 0.795853 0.002438 -0.144824
C77   C     C_R   0.002007 0.185839 0.014788 -0.077830
C78   C     C_R   0.710399 0.536432 0.028004 0.206688
C79   C     C_R   0.000154 0.803697 0.957056 -0.039691
C80   C     C_R   0.976235 0.924356 0.896582 0.583590
Cl1   Cl    Cl    0.205986 0.308808 0.141399 -0.603983
Cl2   Cl    Cl    0.887038 0.225674 0.435661 -0.466227
Cl3   Cl    Cl    0.818099 0.477767 0.665195 -0.572806
Cl4   Cl    Cl    0.184493 0.502372 0.321380 -0.584182
Cl5   Cl    Cl    0.084379 0.272735 0.772694 -0.639431
Cl6   Cl    Cl    0.927468 0.741339 0.221593 -0.590127
Cl7   Cl    Cl    0.664726 0.134817 0.864785 -0.576908
Cl8   Cl    Cl    0.329999 0.875477 0.143006 -0.602869
Cl9   Cl    Cl    0.798186 0.670058 0.832645 -0.625536
Cl10  Cl    Cl    0.532336 0.757117 0.434745 -0.644562
Cl11  Cl    Cl    0.475687 0.287839 0.637246 -0.606039
Cl12  Cl    Cl    0.474507 0.354973 0.126274 -0.580223
Cl13  Cl    Cl    0.592741 0.730514 0.931080 -0.565299
Cl14  Cl    Cl    0.872832 0.215488 0.246866 -0.492231
Cl15  Cl    Cl    0.131306 0.759438 0.744807 -0.517731
Cl16  Cl    Cl    0.116691 0.748177 0.556365 -0.491842
H1    H     H_    0.100891 0.173565 0.888950 0.178890
H2    H     H_    0.295708 0.857076 0.402133 0.210704
H3    H     H_    0.871722 0.134624 0.649628 0.168221
H4    H     H_    0.142415 0.878457 0.334944 0.185779
H5    H     H_    0.743249 0.982593 0.646565 0.186307
H6    H     H_    0.268338 0.019794 0.324591 0.182158
H7    H     H_    0.791461 0.927533 0.765915 0.174615
H8    H     H_    0.214076 0.063427 0.198455 0.176188
H9    H     H_    0.327224 0.641914 0.974740 0.170445
H10   H     H_    0.711438 0.421022 0.081055 0.152691
H11   H     H_    0.706778 0.336387 0.697722 0.235435
H12   H     H_    0.904321 0.824919 0.093302 0.172217
H13   H     H_    0.288357 0.666204 0.305583 0.228017
H14   H     H_    0.310373 0.453047 0.113460 0.184351
H15   H     H_    0.749386 0.621978 0.952585 0.168314
H16   H     H_    0.192427 0.626789 0.839388 0.170414
H17   H     H_    0.810419 0.355098 0.155689 0.174592
H18   H     H_    0.837681 0.138054 0.946810 0.209959
H19   H     H_    0.163292 0.851172 0.027613 0.215128
H20   H     H_    0.447232 0.318694 0.253962 0.388055
H21   H     H_    0.580585 0.734110 0.781982 0.380950
H22   H     H_    0.695004 0.617661 0.248095 0.349604
H23   H     H_    0.482540 0.553133 0.417369 0.226424
H24   H     H_    0.307442 0.439660 0.879299 0.361666
H25   H     H_    0.398096 0.101770 0.701053 0.357759
H26   H     H_    0.594306 0.931291 0.291573 0.392572
H27   H     H_    0.723336 0.041995 0.501028 0.333841
H28   H     H_    0.323668 0.938858 0.614122 0.375151
H29   H     H_    0.971791 0.801044 0.809981 0.378229
H30   H     H_    0.018868 0.182697 0.158370 0.370090
H31   H     H_    0.515616 0.479825 0.628999 0.221248
H32   H     H_    0.538719 0.718191 0.262495 0.233378
H33   H     H_    0.511071 0.362160 0.823597 0.210777
H34   H     H_    0.035599 0.593868 0.397486 0.206004
H35   H     H_    0.967161 0.380532 0.595507 0.204889
H36   H     H_    0.701501 0.144987 0.603677 0.177726
N1    N     N_R   0.055660 0.348550 0.045620 -0.096089
N2    N     N_R   0.185200 0.638170 0.176300 -0.072558
N3    N     N_R   0.201680 0.494570 0.045620 -0.057333
N4    N     N_R   0.798320 0.505430 0.954380 -0.053462
N5    N     N_R   0.068420 0.560530 0.871650 -0.079237
N6    N     N_R   0.931580 0.439470 0.128350 -0.076104
N7    N     N_R   0.948070 0.295860 0.997670 -0.074167
N8    N     N_R   0.051930 0.704140 0.002330 -0.076878
N9    N     N_R   0.944340 0.651450 0.954380 -0.093407
N10   N     N_R   0.960830 0.507850 0.823700 -0.091929
N11   N     N_R   0.039170 0.492150 0.176300 -0.091836
N12   N     N_R   0.811290 0.303410 0.871650 -0.101208
N13   N     N_R   0.188710 0.696590 0.128350 -0.101837
N14   N     N_R   0.205200 0.552990 0.997670 -0.058327
N15   N     N_R   0.794800 0.447010 0.002330 -0.064975
N16   N     N_R   0.814800 0.361830 0.823700 -0.074805
Ni1   Ni    Ni4+2 0.119340 0.493420 0.109960 0.289945
Ni2   Ni    Ni4+2 0.880660 0.506580 0.890040 0.296379
Ni3   Ni    Ni4+2 0.872590 0.372590 0.000000 0.285499
Ni4   Ni    Ni4+2 0.127410 0.627410 0.000000 0.273177
O1    O     O_3   0.455863 0.377571 0.305733 -0.652658
O2    O     O_3   0.041028 0.128475 0.159561 -0.660918
O3    O     O_3   0.561308 0.667851 0.731591 -0.659885
O4    O     O_3   0.702389 0.589094 0.191757 -0.686297
O5    O     O_3   0.368809 0.491306 0.881294 -0.716506
O6    O     O_3   0.472084 0.118163 0.724903 -0.671559
O7    O     O_3   0.520917 0.889516 0.275576 -0.693033
O8    O     O_3   0.678286 0.041165 0.446225 -0.685799
O9    O     O_3   0.321710 0.938377 0.556252 -0.693484
O10   O     O_3   0.955877 0.859218 0.810129 -0.664917

loop_
_geom_bond_atom_site_label_1
_geom_bond_atom_site_label_2
_ccdc_geom_bond_type
N5    N10   A    
C71   H14   S    
C27   C29   A    
C1    C77   A    
C14   C18   A    
C57   H36   S    
C16   N10   A    
H29   O10   S    
C76   C79   A    
N12   N16   A    
C19   C31   S    
C43   Cl14  S    
C69   H11   S    
C49   C57   A    
C64   H9    S    
C44   H35   S    
C15   C19   A    
C74   N6    A    
C21   Cl13  S    
C40   Cl7   S    
C19   C21   A    
N16   Ni2   S    
C38   C42   A    
N12   Ni3   S    
N6    N11   A    
C71   N3    A    
C11   C14   A    
C57   C59   A    
H27   O8    S    
C11   C25   A    
C1    Cl1   S    
C49   C54   A    
C12   C79   A    
C8    H12   S    
C51   O8    S    
C76   H19   S    
C14   H32   S    
C12   N9    A    
C60   C62   A    
N7    Ni3   S    
C37   C42   A    
C61   C63   A    
C33   Cl5   S    
C72   C78   A    
C29   C78   S    
C10   H4    S    
C22   C25   A    
H21   O3    S    
N11   Ni1   S    
H26   O7    S    
N5    Ni4   S    
H22   O4    S    
C10   C35   A    
C65   N15   A    
N8    Ni4   S    
C67   C71   A    
C30   C67   S    
C24   O3    S    
C52   O9    S    
C72   H15   S    
C3    C79   S    
C9    H3    S    
C13   Cl11  S    
C9    C33   A    
C7    C33   A    
C23   C73   A    
C5    C68   S    
C1    N1    A    
C3    C80   A    
C25   H23   S    
C52   C54   A    
N9    Ni2   S    
C51   C59   A    
C76   N8    A    
C40   C45   A    
C46   C48   A    
C53   O7    S    
C50   C53   A    
C62   C66   A    
C45   C69   A    
C42   Cl15  S    
N4    N15   A    
C64   C67   A    
C12   Cl9   S    
N1    Ni1   S    
N8    N9    A    
C4    C6    A    
C41   Cl8   S    
C39   C43   A    
C58   C59   A    
N3    Ni1   S    
C74   H17   S    
C16   Cl3   S    
C50   C56   S    
C51   C53   A    
C8    C35   A    
C2    C4    A    
C41   C56   A    
C70   H13   S    
C54   O6    S    
C20   Cl12  S    
C6    C80   A    
C47   C48   A    
C15   H33   S    
C45   C49   S    
N3    N14   A    
C75   H18   S    
C36   C46   A    
C75   C77   A    
C80   O10   S    
H20   O1    S    
C52   C58   A    
C34   C74   A    
N14   Ni4   S    
H30   O2    S    
C20   C22   A    
C8    C68   A    
C16   C23   A    
C56   C70   A    
H25   O6    S    
C13   C15   A    
H24   O5    S    
C13   C26   A    
C21   C24   A    
C10   C61   A    
C18   C32   S    
C17   C34   A    
C60   H5    S    
C65   H10   S    
C73   H16   S    
C39   C47   A    
C62   H7    S    
C27   O4    S    
N2    N13   A    
C63   C68   A    
C65   C78   A    
C7    H1    S    
C64   N14   A    
C27   C32   A    
C38   C48   A    
C28   C31   A    
C39   Cl2   S    
C24   C26   A    
C63   H8    S    
C3    C5    A    
C46   H34   S    
N4    Ni2   S    
C44   C47   A    
N1    N7    A    
N6    Ni3   S    
H28   O9    S    
C50   C55   A    
C17   N11   A    
C17   Cl4   S    
C9    C60   A    
C37   C44   A    
C40   N12   A    
C61   H6    S    
C4    C77   S    
C29   C31   A    
C23   C37   S    
C7    C66   A    
C30   C32   A    
N2    Ni1   S    
C11   Cl10  S    
N10   Ni2   S    
C73   N5    A    
N15   Ni3   S    
C55   H2    S    
C28   C30   A    
C28   O5    S    
C35   Cl6   S    
C34   C36   S    
C18   C20   A    
C26   H31   S    
N13   Ni4   S    
C72   N4    A    
C2    C5    A    
C6    C66   S    
C41   N13   A    
C2    O2    S    
C55   C58   A    
C38   Cl16  S    
C70   N2    A    
C69   N16   A    
C36   C43   A    
C75   N7    A    
C22   O1    S    
