data_mof_unit_57707.cif
_audit_creation_date              2012-12-10T19:00:13-0500
_audit_creation_method            fapswitch 2.2
_symmetry_space_group_name_H-M    P1
_symmetry_Int_Tables_number       1
_space_group_crystal_system       triclinic
_cell_length_a                    9.592267
_cell_length_b                    10.792151
_cell_length_c                    13.530421
_cell_angle_alpha                 94.327879
_cell_angle_beta                  75.426561
_cell_angle_gamma                 89.642256
_cell_volume                      1351.29197148

loop_
_atom_site_label
_atom_site_type_symbol
_atom_type_description
_atom_site_fract_x
_atom_site_fract_y
_atom_site_fract_z
_atom_type_partial_charge
C1    C     C_R   0.497532 0.738241 0.505750 0.933402
C2    C     C_R   0.440405 0.473616 0.978841 0.026969
C3    C     C_R   0.488697 0.466486 0.870445 -0.053952
C4    C     C_R   0.528573 0.421676 0.036229 -0.010246
C5    C     C_R   0.661263 0.362259 0.984873 0.068240
C6    C     C_R   0.696841 0.343738 0.878596 -0.197356
C7    C     C_R   0.634011 0.425583 0.826523 0.333086
C8    C     C_R   0.490166 0.426790 0.143293 0.304630
C9    C     C_R   0.739313 0.384388 0.141732 -0.158987
C10   C     C_R   0.390763 0.503682 0.812706 -0.181684
C11   C     C_R   0.473340 0.925823 0.420922 0.107750
C12   C     C_R   0.426258 0.496498 0.699264 0.887803
C13   C     C_R   0.493570 0.873076 0.507622 -0.191818
C14   C     C_R   0.498735 0.953974 0.594589 0.439948
C15   C     C_R   0.505930 0.081764 0.585835 -0.263200
C16   C     C_R   0.501544 0.130634 0.494669 -0.158620
C17   C     C_R   0.475175 0.053189 0.414664 0.144797
C18   C     C_3   0.557407 0.039592 0.304569 -0.422827
C19   C     C_3   0.554142 0.899883 0.311659 -0.451935
C20   C     C_R   0.940077 0.396371 0.464487 0.234020
C21   C     C_R   0.914540 0.605653 0.521701 0.006891
C22   C     C_R   0.058008 0.605478 0.530517 0.471924
C23   C     C_R   0.503105 0.262772 0.491888 0.801347
C24   C     C_R   0.087259 0.396439 0.464129 0.342116
C25   C     C_3   0.077788 0.271886 0.506375 -0.421712
C26   C     C_3   0.920098 0.271597 0.505559 -0.453429
C27   C     C_R   0.573236 0.480021 0.302472 0.808695
C28   C     C_R   0.764305 0.338936 0.039250 -0.078614
C29   C     C_R   0.602928 0.433881 0.193980 -0.153610
C30   C     C_R   0.254921 0.555095 0.865290 -0.220845
C31   C     C_R   0.221602 0.583998 0.970541 0.407152
C32   C     C_R   0.314716 0.545014 0.026438 -0.146083
Cu1   Cu    Cu3+1 0.359330 0.500020 0.500010 1.096081
Cu2   Cu    Cu3+1 0.640670 0.499980 0.499990 1.026366
H1    H     H_    0.824723 0.377850 0.180544 0.197412
H2    H     H_    0.515742 0.144016 0.650453 0.180152
H3    H     H_    0.493675 0.071304 0.252709 0.245637
H4    H     H_    0.667505 0.077562 0.291949 0.200730
H5    H     H_    0.487113 0.851968 0.265127 0.226019
H6    H     H_    0.662387 0.856300 0.302981 0.217385
H7    H     H_    0.847993 0.689051 0.543651 0.220379
H8    H     H_    0.143565 0.199321 0.451337 0.239664
H9    H     H_    0.094726 0.275742 0.584900 0.221214
H10   H     H_    0.895967 0.200079 0.449057 0.210679
H11   H     H_    0.802026 0.302693 0.840379 0.173499
H12   H     H_    0.845755 0.274082 0.583419 0.235006
H13   H     H_    0.869013 0.298040 0.000285 0.173571
H14   H     H_    0.178911 0.583033 0.823612 0.249469
H15   H     H_    0.290446 0.574589 0.106647 0.198016
N1    N     N_R   0.852320 0.499070 0.499340 -0.218879
N2    N     N_R   0.148230 0.499110 0.499340 -0.256931
O1    O     O_R   0.381190 0.680360 0.500000 -0.508867
O2    O     O_R   0.618780 0.680320 0.499990 -0.589758
O3    O     O_R   0.323230 0.500000 0.650990 -0.546914
O4    O     O_R   0.560820 0.499960 0.650980 -0.519875
O5    O     O_R   0.381220 0.319680 0.500010 -0.575366
O6    O     O_R   0.618810 0.319640 0.500000 -0.609546
O7    O     O_R   0.439180 0.500040 0.349020 -0.523752
O8    O     O_R   0.676770 0.500000 0.349010 -0.593786
S1    S     S_3+6 0.094652 0.742115 0.601036 0.065180
O9    O     O_2   0.188510 0.715072 0.670372 -0.238442
O10   O     O_2   0.162871 0.835581 0.527881 -0.326145
O11   O     O_3   0.940190 0.806846 0.675310 -0.455228
H16   H     H_    0.969315 0.882628 0.710248 0.395622
S2    S     S_3+6 0.319892 0.364927 0.203146 -0.018397
O12   O     O_2   0.338546 0.275849 0.279239 -0.335815
O13   O     O_2   0.216633 0.467785 0.258049 -0.314288
O14   O     O_3   0.248578 0.288802 0.115113 -0.498874
H17   H     H_    0.315762 0.217409 0.086658 0.363554
S3    S     S_3+6 0.065437 0.673638 0.031886 0.058612
O15   O     O_2   0.037505 0.767699 0.962216 -0.189554
O16   O     O_2   0.938968 0.589912 0.055772 -0.272753
O17   O     O_3   0.084851 0.748176 0.141261 -0.512451
H18   H     H_    0.055320 0.688173 0.194139 0.361018
S4    S     S_3+6 0.763429 0.538639 0.784685 0.044215
O18   O     O_2   0.824031 0.585274 0.872448 -0.215850
O19   O     O_2   0.884699 0.478080 0.702733 -0.328231
O20   O     O_3   0.693927 0.660879 0.743423 -0.418411
H19   H     H_    0.642214 0.708762 0.807637 0.389987
S5    S     S_3+6 0.499006 0.907163 0.715802 0.023443
O21   O     O_2   0.650814 0.910902 0.726703 -0.255267
O22   O     O_2   0.407482 0.997873 0.796380 -0.288029
O23   O     O_3   0.433437 0.765084 0.732123 -0.530733
H20   H     H_    0.385745 0.767249 0.806172 0.375378

loop_
_geom_bond_atom_site_label_1
_geom_bond_atom_site_label_2
_ccdc_geom_bond_type
C28   H13   S    
Cu1   O7    S    
C6    H11   S    
C27   C29   S    
O17   H18   S    
C4    C8    A    
C25   H9    S    
C26   H10   S    
C23   O5    A    
Cu1   O1    S    
C11   C19   S    
S1    O11   S    
C8    C29   A    
C19   H5    S    
C30   H14   S    
C18   H3    S    
C3    C7    A    
C22   S1    S    
C5    C6    A    
C16   C17   A    
C15   C16   A    
C2    C32   A    
C18   C19   S    
C1    O2    A    
C20   N1    A    
C31   S3    S    
C31   C32   A    
O14   H17   S    
S2    O13   D    
Cu2   O6    S    
S3    O15   D    
C14   S5    S    
C9    C29   A    
Cu1   O5    S    
C8    S2    S    
C21   C22   A    
S5    O23   S    
C21   N1    A    
S4    O20   S    
Cu1   Cu2   S    
Cu2   N1    S    
C20   C24   A    
C24   C25   S    
S5    O22   D    
O20   H19   S    
C4    C5    A    
C7    S4    S    
C25   C26   S    
S1    O9    D    
C2    C4    A    
S4    O18   D    
C5    C28   A    
C10   C30   A    
O23   H20   S    
S2    O14   S    
S3    O17   S    
C17   C18   S    
S4    O19   D    
C10   C12   S    
C21   H7    S    
C16   C23   S    
Cu2   O8    S    
C1    C13   S    
C15   H2    S    
Cu1   O3    S    
C23   O6    A    
C11   C17   A    
S5    O21   D    
C27   O7    A    
C25   H8    S    
C6    C7    A    
Cu1   N2    S    
C2    C3    A    
C18   H4    S    
C3    C10   A    
C27   O8    A    
S1    O10   D    
C11   C13   A    
C30   C31   A    
C20   C26   S    
C24   N2    A    
C1    O1    A    
C32   H15   S    
C12   O4    A    
C19   H6    S    
C26   H12   S    
O11   H16   S    
Cu2   O4    S    
Cu2   O2    S    
S2    O12   D    
C9    H1    S    
C14   C15   A    
S3    O16   D    
C13   C14   A    
C12   O3    A    
C9    C28   A    
C22   N2    A    
