data_mof_unit_50680.cif
_audit_creation_date              2013-03-05T15:50:31-0500
_audit_creation_method            fapswitch 2.2
_symmetry_space_group_name_H-M    P1
_symmetry_Int_Tables_number       1
_space_group_crystal_system       triclinic
_cell_length_a                    15.091383
_cell_length_b                    15.023444
_cell_length_c                    34.788729
_cell_angle_alpha                 91.513244
_cell_angle_beta                  92.324639
_cell_angle_gamma                 60.061361
_cell_volume                      6829.16137187

loop_
_atom_site_label
_atom_site_type_symbol
_atom_site_description
_atom_site_fract_x
_atom_site_fract_y
_atom_site_fract_z
_atom_type_partial_charge
O1    O     O_R   0.324990 0.503440 0.453910 -0.458119
O2    O     O_R   0.522030 0.339050 0.458320 -0.509403
C1    C     C_R   0.610721 0.301815 0.444145 0.574111
O3    O     O_R   0.676180 0.324490 0.458320 -0.444665
O4    O     O_R   0.643570 0.521510 0.464260 -0.492105
C2    C     C_R   0.592007 0.610175 0.449156 0.539386
O5    O     O_R   0.504630 0.675350 0.460920 -0.504914
O6    O     O_R   0.339850 0.642450 0.459830 -0.473072
C3    C     C_R   0.300892 0.593457 0.442759 0.575956
O7    O     O_R   0.321120 0.501280 0.538470 -0.479694
O8    O     O_R   0.518440 0.337050 0.536710 -0.525525
C4    C     C_R   0.606597 0.298764 0.553500 0.559738
O9    O     O_R   0.672300 0.322330 0.542880 -0.449291
O10   O     O_R   0.639980 0.519500 0.542640 -0.495393
C5    C     C_R   0.588446 0.607195 0.558877 0.547578
O11   O     O_R   0.500750 0.673190 0.545480 -0.490116
O12   O     O_R   0.336260 0.640450 0.538210 -0.462665
C6    C     C_R   0.298905 0.589324 0.552107 0.582923
Cr1   Cr    Cr6+3 0.426010 0.422500 0.497000 1.086956
Cr2   Cr    Cr6+3 0.651300 0.426310 0.501970 1.111689
Cr3   Cr    Cr6+3 0.422670 0.651170 0.501050 1.085627
O13   O     O_3   0.499990 0.499990 0.500010 -0.281520
C7    C     C_R   0.734420 0.701125 0.099493 -0.043769
C8    C     C_R   0.635150 0.737374 0.113674 0.231236
C9    C     C_R   0.624250 0.714614 0.151452 0.115106
C10   C     C_R   0.711628 0.651269 0.174245 -0.000894
C11   C     C_R   0.808754 0.601527 0.158207 0.181287
C12   C     C_R   0.821241 0.628391 0.121583 0.120989
C13   C     C_R   0.705090 0.564552 0.232142 -0.145222
C14   C     C_R   0.696772 0.559667 0.271674 0.173113
C15   C     C_R   0.691480 0.639772 0.295581 -0.079867
C16   C     C_R   0.698083 0.721975 0.279803 0.166753
C17   C     C_R   0.699512 0.729275 0.239598 0.222700
C18   C     C_R   0.704113 0.648994 0.216035 -0.101350
C19   C     C_R   0.568399 0.698535 0.348071 0.154530
C20   C     C_R   0.545985 0.693986 0.385960 -0.044823
C21   C     C_R   0.724929 0.575480 0.401291 -0.045259
C22   C     C_R   0.749634 0.581953 0.363543 0.133174
C23   C     C_R   0.670669 0.641779 0.336521 0.110393
C24   C     C_R   0.622923 0.630078 0.412440 -0.034420
H1    H     H_    0.709212 0.503595 0.213560 0.209485
H2    H     H_    0.466618 0.735119 0.393869 0.160612
H3    H     H_    0.784804 0.525675 0.421544 0.173505
C25   C     C_R   0.107383 0.725568 0.084448 -0.014869
C26   C     C_R   0.151613 0.631360 0.103863 -0.087412
C27   C     C_R   0.181138 0.624339 0.142891 0.233124
C28   C     C_R   0.166781 0.713995 0.162556 0.049842
C29   C     C_R   0.134282 0.804861 0.142030 -0.083126
C30   C     C_R   0.104708 0.810685 0.103191 -0.101247
C31   C     C_R   0.253281 0.712441 0.225496 0.124967
C32   C     C_R   0.259887 0.703199 0.265699 -0.056381
C33   C     C_R   0.181860 0.701585 0.285598 -0.035454
C34   C     C_R   0.096024 0.710745 0.265407 -0.075477
C35   C     C_R   0.087085 0.720127 0.225277 0.222991
C36   C     C_R   0.167754 0.718583 0.205031 0.062301
C37   C     C_R   0.190925 0.602107 0.342586 -0.087821
C38   C     C_R   0.211741 0.577841 0.381723 0.176247
C39   C     C_R   0.225693 0.731688 0.392242 0.092199
C40   C     C_R   0.200760 0.757585 0.353078 0.117378
C41   C     C_R   0.191171 0.687735 0.327697 -0.014304
C42   C     C_R   0.241023 0.636511 0.406007 0.019248
H4    H     H_    0.156910 0.564374 0.089267 0.180790
H5    H     H_    0.071834 0.883952 0.088855 0.147524
H6    H     H_    0.326419 0.695857 0.281583 0.150561
H7    H     H_    0.035442 0.711152 0.281237 0.182840
H8    H     H_    0.175291 0.553241 0.323395 0.196110
H9    H     H_    0.123413 0.873719 0.156899 0.174309
C43   C     C_R   0.724186 0.102553 0.086947 -0.015755
C44   C     C_R   0.789019 0.135160 0.105737 0.087580
C45   C     C_R   0.772359 0.169473 0.144287 0.270601
C46   C     C_R   0.689106 0.174777 0.163296 0.013002
C47   C     C_R   0.619356 0.153947 0.143318 -0.115651
C48   C     C_R   0.636733 0.118024 0.105666 -0.127752
C49   C     C_R   0.619446 0.280303 0.223726 0.260838
C50   C     C_R   0.612446 0.282090 0.263852 0.003956
C51   C     C_R   0.665593 0.192185 0.285584 0.016275
C52   C     C_R   0.727387 0.098532 0.267311 0.040296
C53   C     C_R   0.737488 0.094112 0.227617 0.090949
C54   C     C_R   0.682950 0.184672 0.205418 0.024727
C55   C     C_R   0.742695 0.168661 0.352433 0.203053
C56   C     C_R   0.730125 0.191963 0.392089 0.206503
C57   C     C_R   0.545987 0.267851 0.382360 -0.139249
C58   C     C_R   0.557720 0.242466 0.343332 0.177246
C59   C     C_R   0.655809 0.198151 0.327758 -0.033621
C60   C     C_R   0.630390 0.247944 0.406562 -0.063690
H10   H     H_    0.584357 0.096378 0.092047 0.176793
H11   H     H_    0.565592 0.354232 0.278600 0.202109
H12   H     H_    0.768006 0.028662 0.283974 0.207526
H13   H     H_    0.555204 0.158272 0.157911 0.182640
H14   H     H_    0.469391 0.308208 0.393358 0.201429
C61   C     C_R   0.688712 0.686265 0.920648 -0.046849
C62   C     C_R   0.767893 0.604112 0.900864 -0.068893
C63   C     C_R   0.754214 0.583350 0.862489 0.112298
C64   C     C_R   0.660594 0.646837 0.842935 0.010311
C65   C     C_R   0.576079 0.720280 0.863790 0.103120
C66   C     C_R   0.589067 0.737330 0.903270 0.231219
C67   C     C_R   0.615537 0.589275 0.779725 0.121290
C68   C     C_R   0.615839 0.586415 0.739262 0.165177
C69   C     C_R   0.656663 0.637781 0.719357 -0.008243
C70   C     C_R   0.696789 0.691336 0.739734 -0.085561
C71   C     C_R   0.697278 0.695427 0.779877 0.183903
C72   C     C_R   0.655670 0.644939 0.800288 -0.031724
C73   C     C_R   0.728873 0.553698 0.655621 0.193520
C74   C     C_R   0.710193 0.547865 0.615923 -0.122804
C75   C     C_R   0.558207 0.715427 0.617769 -0.060421
C76   C     C_R   0.572529 0.721776 0.657338 0.060476
C77   C     C_R   0.654976 0.638622 0.676890 0.000392
C78   C     C_R   0.622203 0.625664 0.597305 -0.054664
H15   H     H_    0.843317 0.560136 0.914304 0.209663
H16   H     H_    0.728053 0.730318 0.724099 0.172089
H17   H     H_    0.762299 0.480455 0.599744 0.186058
H18   H     H_    0.491739 0.778011 0.603672 0.194315
C79   C     C_R   0.070734 0.696454 0.902712 0.022214
C80   C     C_R   0.103374 0.761951 0.887831 0.112232
C81   C     C_R   0.124163 0.757361 0.848567 0.148481
C82   C     C_R   0.106783 0.691329 0.823923 0.051804
C83   C     C_R   0.084755 0.619977 0.839446 -0.031406
C84   C     C_R   0.073321 0.617304 0.878880 0.179113
C85   C     C_R   0.193612 0.600395 0.764503 0.232065
C86   C     C_R   0.199648 0.593785 0.724515 0.117749
C87   C     C_R   0.131776 0.678249 0.701645 0.014514
C88   C     C_R   0.056489 0.769722 0.718694 0.253331
C89   C     C_R   0.046251 0.775639 0.759060 0.187715
C90   C     C_R   0.116645 0.690537 0.781890 -0.073850
C91   C     C_R   0.215443 0.714843 0.649799 0.193690
C92   C     C_R   0.260650 0.689033 0.613850 0.043821
C93   C     C_R   0.165892 0.599975 0.596426 0.058480
C94   C     C_R   0.125769 0.619984 0.633792 0.192160
C95   C     C_R   0.152918 0.675543 0.660482 -0.007902
C96   C     C_R   0.238977 0.628476 0.587491 0.005716
H19   H     H_    0.079388 0.563982 0.820682 0.191880
C97   C     C_R   0.673139 0.074628 0.904395 -0.005179
C98   C     C_R   0.603371 0.051396 0.884379 0.100131
C99   C     C_R   0.580572 0.074015 0.845105 0.118076
C100  C     C_R   0.627186 0.119774 0.825559 -0.014960
C101  C     C_R   0.688669 0.152340 0.846077 0.100993
C102  C     C_R   0.709875 0.131884 0.885600 0.225961
C103  C     C_R   0.556816 0.222959 0.765997 -0.041791
C104  C     C_R   0.558413 0.232605 0.726374 0.126615
C105  C     C_R   0.620691 0.145353 0.703615 0.061389
C106  C     C_R   0.675640 0.047374 0.720890 0.123717
C107  C     C_R   0.674234 0.040077 0.760815 -0.048539
C108  C     C_R   0.617313 0.127710 0.783392 -0.061465
C109  C     C_R   0.572024 0.150886 0.633488 0.220623
C110  C     C_R   0.569653 0.187577 0.596402 0.059133
C111  C     C_R   0.696940 0.235184 0.617713 0.106211
C112  C     C_R   0.700796 0.196346 0.654318 0.061163
C113  C     C_R   0.633189 0.161193 0.662927 -0.055782
C114  C     C_R   0.626975 0.236834 0.588968 -0.003922
H20   H     H_    0.511347 0.290481 0.783440 0.200250
H21   H     H_    0.719661 0.965992 0.774439 0.220606
O14   O     O_R   0.834210 0.019400 0.034570 -0.517195
O15   O     O_R   0.002210 0.824620 0.031030 -0.494461
C115  C     C_R   0.046363 0.738612 0.048540 0.549469
O16   O     O_R   0.024400 0.669340 0.039790 -0.518120
O17   O     O_R   0.830490 0.694950 0.045870 -0.526523
C116  C     C_R   0.746786 0.744166 0.063460 0.563989
O18   O     O_R   0.675430 0.831160 0.051290 -0.443381
O19   O     O_R   0.698870 0.998880 0.039560 -0.498018
C117  C     C_R   0.751870 0.040588 0.050865 0.548177
O20   O     O_R   0.811290 0.006780 0.950620 -0.457467
O21   O     O_R   0.980960 0.812920 0.953200 -0.470935
C118  C     C_R   0.019244 0.721360 0.940109 0.584475
O22   O     O_R   0.001480 0.656720 0.955830 -0.455254
O23   O     O_R   0.809240 0.683250 0.968050 -0.506217
C119  C     C_R   0.716321 0.728987 0.955245 0.570617
O24   O     O_R   0.652500 0.818540 0.967340 -0.431460
O25   O     O_R   0.677620 0.987170 0.961730 -0.466731
C120  C     C_R   0.720972 0.024366 0.941807 0.587283
Cr4   Cr    Cr6+3 0.905130 0.911420 0.992650 1.102240
Cr5   Cr    Cr6+3 0.911860 0.682710 0.002320 1.084922
Cr6   Cr    Cr6+3 0.682710 0.906840 0.004710 1.146315
O26   O     O_3   0.833240 0.833660 0.999890 -0.286895
N1    N     N_R   0.545179 0.796657 0.089817 0.119583
O27   O     O_R   0.536173 0.762159 0.056033 -0.261849
O28   O     O_R   0.469649 0.882075 0.102553 -0.247251
N2    N     N_3   0.896973 0.525876 0.179428 -0.492973
H22   H     H_    0.904427 0.557643 0.205551 0.286752
H23   H     H_    0.885070 0.464892 0.185422 0.257348
N3    N     N_3   0.187251 0.854162 0.340076 -0.580239
H24   H     H_    0.125387 0.912875 0.354424 0.289341
H25   H     H_    0.165636 0.866711 0.311011 0.262267
N4    N     N_3   0.333742 0.713685 0.205206 -0.588752
H26   H     H_    0.369452 0.646395 0.188712 0.293988
H27   H     H_    0.389538 0.711578 0.224603 0.232612
N5    N     N_R   0.218476 0.528239 0.162569 0.095719
O29   O     O_R   0.281015 0.505014 0.192286 -0.266214
O30   O     O_R   0.196385 0.459756 0.149076 -0.266935
N6    N     N_3   0.924057 0.584069 0.108769 -0.510208
H28   H     H_    0.931861 0.541807 0.083537 0.259634
H29   H     H_    0.940872 0.642502 0.104309 0.270663
N7    N     N_R   0.996601 0.729461 0.205874 0.109336
O31   O     O_R   0.940740 0.699942 0.223007 -0.291441
O32   O     O_R   0.962532 0.778045 0.173434 -0.342674
N8    N     N_R   0.199599 0.496131 0.396475 0.098674
O33   O     O_R   0.152975 0.509490 0.428584 -0.285790
O34   O     O_R   0.215340 0.418278 0.374627 -0.247122
N9    N     N_3   0.235142 0.802610 0.418228 -0.567434
H30   H     H_    0.164198 0.869971 0.419475 0.267966
H31   H     H_    0.288137 0.820477 0.407602 0.260859
N10   N     N_3   0.871822 0.134479 0.086640 -0.530752
H32   H     H_    0.844574 0.173108 0.060488 0.271636
H33   H     H_    0.929122 0.058669 0.081996 0.256326
N11   N     N_R   0.468908 0.265541 0.319461 0.096881
O35   O     O_R   0.382674 0.349439 0.325095 -0.282289
O36   O     O_R   0.472470 0.200667 0.293172 -0.252664
N12   N     N_R   0.562521 0.375584 0.202775 0.111657
O37   O     O_R   0.580083 0.382714 0.167009 -0.296403
O38   O     O_R   0.496047 0.458597 0.220300 -0.319748
N13   N     N_3   0.854503 0.524847 0.352951 -0.555988
H34   H     H_    0.861353 0.472434 0.331295 0.280740
H35   H     H_    0.874467 0.576074 0.341697 0.262092
N14   N     N_R   0.843201 0.193110 0.164649 0.106350
O39   O     O_R   0.810220 0.271947 0.187794 -0.271046
O40   O     O_R   0.941296 0.134814 0.160702 -0.287732
N15   N     N_3   0.803296 0.996223 0.210327 -0.520280
H36   H     H_    0.760746 0.980470 0.189652 0.290754
H37   H     H_    0.861251 0.000531 0.196517 0.259803
N16   N     N_R   0.843493 0.117784 0.337253 0.096958
O41   O     O_R   0.867864 0.162310 0.311446 -0.243953
O42   O     O_R   0.912457 0.028496 0.350411 -0.301098
N17   N     N_R   0.818249 0.162495 0.417181 0.123062
O43   O     O_R   0.827312 0.116003 0.449361 -0.292621
O44   O     O_R   0.888815 0.183406 0.408325 -0.236362
N18   N     N_R   0.501969 0.805575 0.925533 0.111210
O45   O     O_R   0.492984 0.779302 0.959885 -0.252640
O46   O     O_R   0.427727 0.889874 0.910810 -0.273339
N19   N     N_3   0.498727 0.811264 0.677428 -0.551821
H38   H     H_    0.536883 0.844769 0.691955 0.251771
H39   H     H_    0.464699 0.788648 0.697707 0.269015
N20   N     N_R   0.695736 0.472068 0.286958 0.085544
O47   O     O_R   0.750924 0.381803 0.271487 -0.266352
O48   O     O_R   0.634126 0.482621 0.314031 -0.359523
N21   N     N_3   0.574422 0.530536 0.718780 -0.574972
H40   H     H_    0.632025 0.472951 0.702392 0.234086
H41   H     H_    0.515602 0.580857 0.700057 0.242547
N22   N     N_3   0.576508 0.532716 0.798897 -0.566467
H42   H     H_    0.497219 0.570911 0.794032 0.275655
H43   H     H_    0.589816 0.530327 0.828610 0.238078
N23   N     N_3   0.838254 0.500585 0.843253 -0.515368
H44   H     H_    0.813646 0.451651 0.831373 0.263638
H45   H     H_    0.859345 0.530475 0.820846 0.285381
N24   N     N_R   0.744738 0.747331 0.799325 0.067784
O49   O     O_R   0.705309 0.803617 0.829759 -0.369985
O50   O     O_R   0.824082 0.744516 0.784729 -0.295226
N25   N     N_R   0.820665 0.472178 0.673722 0.100362
O51   O     O_R   0.877731 0.387429 0.655012 -0.289741
O52   O     O_R   0.854713 0.486022 0.706988 -0.262558
N26   N     N_3   0.477787 0.779845 0.844945 -0.531627
H46   H     H_    0.484875 0.820628 0.822515 0.257773
H47   H     H_    0.454354 0.729866 0.833275 0.233183
N27   N     N_3   0.115803 0.832854 0.912755 -0.555694
H48   H     H_    0.191781 0.816111 0.911914 0.282731
H49   H     H_    0.068703 0.907031 0.902123 0.288346
N28   N     N_R   0.067934 0.532281 0.894167 0.095497
O53   O     O_R   0.128449 0.481202 0.922971 -0.265481
O54   O     O_R   0.023599 0.490560 0.873997 -0.297870
N29   N     N_R   0.064159 0.577673 0.645619 0.076975
O55   O     O_R   0.981180 0.633818 0.664465 -0.259240
O56   O     O_R   0.095717 0.480338 0.640595 -0.267898
N30   N     N_3   0.280995 0.503129 0.707590 -0.524549
H50   H     H_    0.249575 0.470627 0.688561 0.276115
H51   H     H_    0.326320 0.523524 0.692281 0.236908
N31   N     N_R   0.268233 0.516069 0.787569 0.101013
O57   O     O_R   0.289898 0.422435 0.779426 -0.267853
O58   O     O_R   0.317769 0.532176 0.815847 -0.343574
N32   N     N_3   0.164307 0.818730 0.834550 -0.582626
H52   H     H_    0.112328 0.871147 0.814557 0.290720
H53   H     H_    0.232447 0.770319 0.820710 0.260693
N33   N     N_R   0.991489 0.856065 0.694720 0.121044
O59   O     O_R   0.938387 0.845338 0.666465 -0.295159
O60   O     O_R   0.005805 0.934556 0.694672 -0.232796
N34   N     N_R   0.963468 0.865740 0.776547 0.085247
O61   O     O_R   0.916212 0.857365 0.805476 -0.303424
O62   O     O_R   0.938106 0.957376 0.765122 -0.289163
N35   N     N_R   0.242221 0.772086 0.676956 0.079993
O63   O     O_R   0.296531 0.728329 0.707925 -0.375984
O64   O     O_R   0.219817 0.865368 0.669149 -0.249494
N36   N     N_3   0.336732 0.715843 0.605615 -0.571601
H54   H     H_    0.302750 0.795787 0.605227 0.289500
H55   H     H_    0.393427 0.686710 0.627464 0.238661
N37   N     N_3   0.523829 0.755215 0.166254 -0.524086
H56   H     H_    0.516364 0.693597 0.175345 0.241783
H57   H     H_    0.516725 0.801863 0.190096 0.263020
N38   N     N_3   0.133791 0.550925 0.567312 -0.528263
H58   H     H_    0.109606 0.597643 0.542964 0.240201
H59   H     H_    0.068426 0.549888 0.575284 0.288156
N39   N     N_3   0.559443 0.999728 0.903374 -0.528086
H60   H     H_    0.580887 0.930320 0.888974 0.287297
H61   H     H_    0.479793 0.045265 0.901257 0.293355
N40   N     N_R   0.768888 0.169390 0.906571 0.117064
O65   O     O_R   0.737358 0.217274 0.939229 -0.302907
O66   O     O_R   0.853221 0.157435 0.892932 -0.251715
N41   N     N_3   0.771558 0.197119 0.683053 -0.569002
H62   H     H_    0.730817 0.245396 0.705742 0.239242
H63   H     H_    0.816604 0.122625 0.693651 0.310140
N42   N     N_3   0.497670 0.332327 0.709784 -0.564687
H64   H     H_    0.451084 0.327210 0.687798 0.266189
H65   H     H_    0.545964 0.354131 0.697556 0.225132
N43   N     N_3   0.511218 0.047829 0.825314 -0.582498
H66   H     H_    0.452131 0.114123 0.812415 0.272566
H67   H     H_    0.550150 0.994103 0.803723 0.262297
N44   N     N_3   0.735658 0.954819 0.699224 -0.512371
H68   H     H_    0.730825 0.969276 0.669833 0.274173
H69   H     H_    0.704007 0.907542 0.702516 0.238976
N45   N     N_R   0.509845 0.105923 0.641254 0.101338
O67   O     O_R   0.510708 0.035490 0.618429 -0.265224
O68   O     O_R   0.450605 0.136345 0.670612 -0.299045
N46   N     N_R   0.709846 0.794451 0.304339 0.107466
O69   O     O_R   0.781394 0.816042 0.297918 -0.263798
O70   O     O_R   0.649443 0.839931 0.332766 -0.306874
N47   N     N_3   0.505508 0.176958 0.567196 -0.523842
H70   H     H_    0.439767 0.248141 0.562579 0.271489
H71   H     H_    0.545733 0.150037 0.541782 0.249396
N48   N     N_3   0.731558 0.205122 0.827022 -0.525548
H72   H     H_    0.775417 0.159187 0.804365 0.278504
H73   H     H_    0.671976 0.273778 0.815813 0.242901
N49   N     N_3   0.759391 0.279844 0.610762 -0.547042
H74   H     H_    0.836038 0.224279 0.615819 0.304921
H75   H     H_    0.740035 0.340125 0.630394 0.255444
N50   N     N_R   0.689784 0.820954 0.223021 0.119030
O71   O     O_R   0.739754 0.816319 0.192745 -0.291629
O72   O     O_R   0.626454 0.910753 0.237232 -0.264926
N51   N     N_3   0.485228 0.756594 0.321297 -0.596929
H76   H     H_    0.496450 0.812538 0.308823 0.281094
H77   H     H_    0.485632 0.707056 0.299545 0.235219

loop_
_geom_bond_atom_site_label_1
_geom_bond_atom_site_label_2
_geom_bond_distance
_ccdc_geom_bond_type
N28   O54   1.300084 A    
C116  O18   1.278445 A    
C1    C60   1.479321 S    
N10   H33   1.043835 S    
C61   C119  1.489859 S    
C20   H2    1.082206 S    
N40   O65   1.301442 A    
C8    N1    1.437423 S    
C80   C81   1.406114 A    
N44   H69   1.045518 S    
C25   C26   1.405650 A    
Cr5   O26   1.968259 S    
N37   H56   1.045041 S    
C38   N8    1.438503 S    
C79   C80   1.417839 A    
C103  C108  1.394386 A    
O4    C2    1.274818 A    
C62   H15   1.083154 S    
C76   C77   1.412866 A    
C63   N23   1.432926 S    
C37   C38   1.400930 A    
C61   C66   1.419370 A    
C52   H12   1.083831 S    
N51   H76   1.044350 S    
C39   C42   1.422805 A    
C40   C41   1.412129 A    
Cr3   O13   1.968554 S    
N21   H41   1.045470 S    
N19   H38   1.045279 S    
N3    H25   1.042225 S    
N14   O40   1.301329 A    
N26   H47   1.044493 S    
O19   Cr6   1.914535 S    
C32   C33   1.400684 A    
C105  C106  1.415447 A    
C58   N11   1.437831 S    
C97   C102  1.417704 A    
N14   O39   1.300994 A    
O12   Cr3   1.937799 S    
C5    C78   1.479834 S    
C50   C51   1.400948 A    
C21   C22   1.398431 A    
O14   Cr4   2.042682 S    
N44   H68   1.042964 S    
N45   O67   1.301190 A    
C17   N50   1.443761 S    
C99   N43   1.436140 S    
C51   C52   1.394481 A    
C115  O16   1.266868 A    
O25   C120  1.281735 A    
C75   H18   1.083412 S    
C49   C54   1.419542 A    
N33   O60   1.300623 A    
C6    C96   1.483352 S    
N50   O71   1.300386 A    
N43   H66   1.045530 S    
C111  C112  1.401705 A    
C106  N44   1.436979 S    
O9    Cr2   2.037869 S    
O2    Cr1   1.933405 S    
C32   H6    1.083199 S    
C47   C48   1.387465 A    
C104  C105  1.415756 A    
C38   C42   1.416004 A    
C2    O5    1.264471 A    
C57   C60   1.402453 A    
C67   N22   1.440512 S    
C109  C110  1.408496 A    
C25   C115  1.478657 S    
N38   H59   1.043067 S    
C16   C17   1.407716 A    
O18   Cr6   2.041348 S    
C14   C15   1.415287 A    
O7    C6    1.274438 A    
C37   H8    1.083774 S    
C17   C18   1.414318 A    
N36   H55   1.045188 S    
C29   H9    1.083461 S    
C44   C45   1.410328 A    
C84   N28   1.436678 S    
N8    O33   1.301556 A    
O3    Cr2   2.033992 S    
C91   C95   1.404703 A    
C64   C72   1.482698 S    
C86   N30   1.433925 S    
N9    H31   1.044893 S    
N5    O29   1.300951 A    
C43   C117  1.486439 S    
N7    O32   1.300966 A    
N27   H48   1.045615 S    
O23   Cr5   1.912593 S    
O11   Cr3   2.025172 S    
C93   N38   1.442442 S    
C112  C113  1.407334 A    
C12   N6    1.434858 S    
C46   C54   1.470985 S    
C67   C68   1.407321 A    
C89   C90   1.422474 A    
O4    Cr2   1.923629 S    
C34   C35   1.401135 A    
C56   N17   1.437074 S    
N26   H46   1.045546 S    
C35   N7    1.441892 S    
C3    C42   1.495347 S    
C40   N3    1.443354 S    
N40   O66   1.301340 A    
N15   H37   1.045080 S    
C21   C24   1.401531 A    
C22   C23   1.412924 A    
C81   C82   1.408729 A    
C26   H4    1.083060 S    
N47   H70   1.044444 S    
N6    H29   1.044918 S    
N1    O27   1.301385 A    
N49   H75   1.044712 S    
C33   C41   1.475849 S    
C58   C59   1.410817 A    
N31   O57   1.301293 A    
N2    H23   1.045261 S    
O15   Cr4   1.912065 S    
C7    C8    1.419765 A    
C34   H7    1.083638 S    
O20   C120  1.277722 A    
C100  C108  1.470385 S    
N22   H42   1.045509 S    
N42   H65   1.044158 S    
N6    H28   1.044896 S    
C19   N51   1.434967 S    
O6    Cr3   1.908865 S    
C49   N12   1.447471 S    
N46   O70   1.300598 A    
C101  N48   1.435972 S    
C61   C62   1.405213 A    
C9    C10   1.405615 A    
N39   H61   1.045462 S    
C14   N20   1.439824 S    
C13   C14   1.393195 A    
C79   C118  1.484081 S    
C85   N31   1.439938 S    
C68   N21   1.434987 S    
C98   N39   1.433522 S    
O12   C6    1.270979 A    
C7    C12   1.426515 A    
C22   N13   1.432432 S    
N17   O44   1.301298 A    
C50   H11   1.083033 S    
N2    H22   1.043423 S    
N13   H35   1.045588 S    
C1    O3    1.273819 A    
C33   C34   1.394185 A    
N25   O51   1.301407 A    
C111  N49   1.433583 S    
C13   H1    1.084225 S    
N33   O59   1.300406 A    
N11   O36   1.301458 A    
C101  C102  1.405649 A    
C73   C77   1.419821 A    
N32   H52   1.042754 S    
C99   C100  1.405711 A    
C112  N41   1.437021 S    
C92   N36   1.434234 S    
N37   H57   1.045028 S    
C69   C70   1.392095 A    
N29   O55   1.300991 A    
C46   C47   1.395326 A    
C83   C84   1.393698 A    
C110  N47   1.435494 S    
C7    C116  1.485455 S    
C70   C71   1.396136 A    
N18   O46   1.301145 A    
C83   H19   1.084037 S    
C118  O22   1.270373 A    
N11   O35   1.300431 A    
N51   H77   1.045287 S    
N12   O38   1.301591 A    
O10   C5    1.278005 A    
C91   N35   1.438210 S    
C56   C60   1.414880 A    
C89   N34   1.446850 S    
N8    O34   1.300973 A    
C70   H16   1.083921 S    
C71   C72   1.419101 A    
C19   C20   1.385821 A    
C55   C59   1.414699 A    
C51   C59   1.476424 S    
C55   N16   1.435400 S    
N19   H39   1.045485 S    
C100  C101  1.410939 A    
C52   C53   1.391662 A    
C86   C87   1.407911 A    
O8    Cr1   1.911059 S    
C10   C11   1.403295 A    
O23   C119  1.280895 A    
N41   H62   1.044557 S    
C92   C96   1.415691 A    
N24   O49   1.300648 A    
C68   C69   1.411369 A    
N42   H64   1.045196 S    
C35   C36   1.420995 A    
C31   N4    1.437327 S    
C109  N45   1.439688 S    
C43   C44   1.426237 A    
N45   O68   1.301093 A    
N36   H54   1.044595 S    
C45   C46   1.409565 A    
C67   C72   1.420113 A    
C109  C113  1.408010 A    
N48   H72   1.045605 S    
C94   C95   1.412892 A    
C105  C113  1.476483 S    
C81   N32   1.435305 S    
O1    Cr1   2.027433 S    
N12   O37   1.300761 A    
O10   Cr2   1.915035 S    
O1    C3    1.279449 A    
N16   O41   1.301091 A    
C39   C40   1.410526 A    
C85   C90   1.411617 A    
C13   C18   1.393485 A    
C37   C41   1.401186 A    
C21   H3    1.083564 S    
C19   C23   1.410390 A    
N38   H58   1.045916 S    
C111  C114  1.415994 A    
O19   C117  1.284041 A    
O21   Cr4   1.926858 S    
O7    Cr1   2.052531 S    
C80   N27   1.434961 S    
C31   C32   1.403744 A    
N20   O48   1.301047 A    
C87   C88   1.408673 A    
C29   C30   1.396730 A    
Cr2   O13   1.978030 S    
C98   C99   1.403680 A    
C76   N19   1.433657 S    
N21   H40   1.045283 S    
N5    O30   1.301605 A    
C93   C94   1.417153 A    
C74   C78   1.403571 A    
N3    H24   1.044697 S    
N27   H49   1.045813 S    
O21   C118  1.276062 A    
C27   C28   1.414671 A    
C82   C90   1.474947 S    
C45   N14   1.440527 S    
C4    C114  1.492300 S    
C11   N2    1.436473 S    
C87   C95   1.474848 S    
C85   C86   1.395478 A    
O24   Cr6   2.030340 S    
C69   C77   1.476828 S    
C75   C76   1.392924 A    
C57   H14   1.083644 S    
C66   N18   1.440238 S    
O5    Cr3   2.055777 S    
N39   H60   1.044876 S    
N32   H53   1.045662 S    
N30   H50   1.044045 S    
C62   C63   1.393585 A    
N47   H71   1.045612 S    
C64   C65   1.413748 A    
N1    O28   1.301255 A    
C103  C104  1.392240 A    
C88   N33   1.435684 S    
O25   Cr6   1.921322 S    
N31   O58   1.301354 A    
C57   C58   1.394612 A    
C73   C74   1.407504 A    
C107  C108  1.399785 A    
C9    N37   1.434567 S    
C110  C114  1.424808 A    
Cr4   O26   1.976871 S    
C25   C30   1.403055 A    
C107  H21   1.083187 S    
O14   C117  1.272631 A    
C44   N10   1.434307 S    
C63   C64   1.407084 A    
C30   H5    1.081811 S    
N10   H32   1.045448 S    
C65   C66   1.414268 A    
N4    H26   1.045147 S    
C65   N26   1.434615 S    
N46   O69   1.301530 A    
C103  H20   1.083791 S    
C4    O9    1.277505 A    
O17   C116  1.274122 A    
C104  N42   1.431748 S    
N4    H27   1.045846 S    
C5    O11   1.271380 A    
C16   N46   1.441265 S    
C82   C83   1.397165 A    
C102  N40   1.438526 S    
N23   H44   1.045556 S    
N34   O62   1.300143 A    
C10   C18   1.465400 S    
O6    C3    1.273039 A    
N50   O72   1.301541 A    
N15   H36   1.044482 S    
N9    H30   1.045112 S    
N43   H67   1.044668 S    
C75   C78   1.401148 A    
N25   O52   1.300884 A    
N48   H73   1.044779 S    
C73   N25   1.446369 S    
C49   C50   1.402750 A    
C20   C24   1.402076 A    
Cr1   O13   1.973359 S    
C8    C9    1.403090 A    
C53   N15   1.433450 S    
N30   H51   1.045361 S    
C53   C54   1.418125 A    
C97   C98   1.417666 A    
N24   O50   1.300413 A    
C43   C48   1.405503 A    
C27   N5    1.442036 S    
C94   N29   1.439644 S    
N29   O56   1.301480 A    
N49   H74   1.045579 S    
O16   Cr5   2.029232 S    
N16   O42   1.300920 A    
C28   C29   1.403117 A    
N23   H45   1.044945 S    
N18   O45   1.301452 A    
N35   O63   1.301028 A    
O20   Cr4   2.028173 S    
N35   O64   1.300671 A    
N22   H43   1.043106 S    
C119  O24   1.274498 A    
N28   O53   1.301483 A    
C11   C12   1.394395 A    
Cr6   O26   1.981346 S    
C28   C36   1.477272 S    
C39   N9    1.436371 S    
C15   C16   1.414016 A    
C55   C56   1.411119 A    
C74   H17   1.082451 S    
O8    C4    1.277853 A    
O17   Cr5   1.935968 S    
C31   C36   1.411164 A    
N7    O31   1.300205 A    
O2    C1    1.280328 A    
C88   C89   1.414596 A    
C93   C96   1.415167 A    
C106  C107  1.398001 A    
N41   H63   1.045296 S    
C47   H13   1.083786 S    
C91   C92   1.399776 A    
C15   C23   1.467164 S    
C2    C24   1.465069 S    
N17   O43   1.301295 A    
C71   N24   1.438436 S    
C48   H10   1.083068 S    
C79   C84   1.416718 A    
C26   C27   1.401649 A    
N13   H34   1.045022 S    
C97   C120  1.488913 S    
N20   O47   1.301060 A    
O22   Cr5   2.052906 S    
O15   C115  1.278249 A    
N34   O61   1.300673 A    
