data_mof_unit_68482.cif
_audit_creation_date              2012-12-11T18:55:38-0500
_audit_creation_method            fapswitch 2.2
_symmetry_space_group_name_H-M    P1
_symmetry_Int_Tables_number       1
_space_group_crystal_system       triclinic
_cell_length_a                    8.50797
_cell_length_b                    15.041028
_cell_length_c                    16.544236
_cell_angle_alpha                 111.191174
_cell_angle_beta                  98.760209
_cell_angle_gamma                 80.802816
_cell_volume                      1938.30024419

loop_
_atom_site_label
_atom_site_type_symbol
_atom_type_description
_atom_site_fract_x
_atom_site_fract_y
_atom_site_fract_z
_atom_type_partial_charge
Ba1   Ba    Ba6+2 0.364200 0.465260 0.540910 1.603337
Ba2   Ba    Ba6+2 0.825640 0.534660 0.459080 1.598944
C1    C     C_3   0.186976 0.286412 0.901465 -0.183876
C2    C     C_R   0.889015 0.535398 0.755876 -0.256688
C3    C     C_2   0.490154 0.424146 0.146542 -0.164161
C4    C     C_3   0.617548 0.275945 0.758731 0.367935
C5    C     C_2   0.445570 0.422459 0.220236 0.037130
C6    C     C_2   0.170917 0.496206 0.190738 0.026710
C7    C     C_3   0.226118 0.516907 0.116274 -0.055701
C8    C     C_3   0.369692 0.446416 0.078532 -0.046751
C9    C     C_2   0.094822 0.522170 0.043980 -0.103304
C10   C     C_2   0.124696 0.535765 0.971610 -0.124667
C11   C     C_R   0.850648 0.605973 0.932584 -0.008809
C12   C     C_3   0.145487 0.301355 0.811736 0.400857
C13   C     C_R   0.995126 0.551092 0.904930 -0.017814
C14   C     C_R   0.727451 0.625685 0.872931 -0.160713
C15   C     C_R   0.746005 0.589410 0.783985 0.039220
C16   C     C_3   0.619752 0.215214 0.816899 -0.159540
C17   C     C_R   0.014990 0.516733 0.814690 -0.000115
C18   C     C_R   0.838725 0.178601 0.531247 0.051373
C19   C     C_R   0.065991 0.200011 0.468957 0.028223
C20   C     C_R   0.280092 0.774380 0.499543 -0.211103
C21   C     C_R   0.349116 0.820621 0.455711 0.016866
C22   C     C_R   0.279268 0.910756 0.454185 -0.156264
C23   C     C_3   0.152655 0.769535 0.747864 0.288307
C24   C     C_R   0.130126 0.952604 0.487218 0.014025
C25   C     C_R   0.054658 0.901118 0.525335 -0.028239
C26   C     C_R   0.055644 0.045505 0.486422 0.010124
C27   C     C_R   0.906035 0.083164 0.521946 -0.029414
C28   C     C_3   0.604832 0.196497 0.194994 0.344474
C29   C     C_R   0.834099 0.028229 0.555453 -0.082076
C30   C     C_R   0.909534 0.941872 0.560257 -0.060676
C31   C     C_R   0.127171 0.103946 0.454759 -0.161390
C32   C     C_R   0.929351 0.238669 0.513651 -0.187586
C33   C     C_R   0.127937 0.811422 0.530622 0.024815
C34   C     C_3   0.184111 0.850928 0.837344 -0.015499
C35   C     C_3   0.431614 0.201969 0.151445 -0.422965
C36   C     C_3   0.681669 0.787935 0.738748 0.290979
C37   C     C_3   0.643623 0.893545 0.741405 -0.021310
C38   C     C_3   0.031666 0.181173 0.269032 0.247875
C39   C     C_3   0.029647 0.155789 0.171336 -0.392659
C40   C     C_3   0.102648 0.212803 0.732275 -0.141725
C41   C     C_3   0.245294 0.141824 0.695566 -0.394629
C42   C     C_3   0.544896 0.957905 0.816096 -0.190268
C43   C     C_3   0.630168 0.974899 0.907056 -0.482066
C44   C     C_3   0.552574 0.899578 0.656026 -0.407987
C45   C     C_3   0.461292 0.686405 0.229470 0.342642
C46   C     C_3   0.219273 0.184377 0.904391 -0.474331
C47   C     C_3   0.105691 0.682500 0.760301 -0.251025
C48   C     C_3   0.041327 0.882101 0.892110 -0.160874
C49   C     C_3   0.059502 0.975838 0.968708 -0.461390
C50   C     C_3   0.335397 0.823710 0.891848 -0.462615
C51   C     C_3   0.781399 0.202056 0.870054 -0.169699
C52   C     C_3   0.761699 0.212205 0.963548 -0.462969
C53   C     C_3   0.400176 0.721899 0.084724 -0.236215
C54   C     C_3   0.394240 0.831143 0.121524 -0.408170
C55   C     C_3   0.078580 0.883495 0.259844 -0.469043
C56   C     C_3   0.513974 0.671986 0.140332 -0.160304
C57   C     C_3   0.851289 0.816689 0.146257 -0.158521
C58   C     C_3   0.885466 0.863035 0.083699 -0.454621
C59   C     C_3   0.219216 0.423866 0.307864 -0.242887
C60   C     C_3   0.890364 0.344943 0.555890 -0.253498
C61   C     C_3   0.657092 0.380340 0.809173 -0.152213
C62   C     C_3   0.608815 0.426654 0.902513 -0.409786
C63   C     C_3   0.379614 0.692544 0.522077 -0.238988
C64   C     C_3   0.653046 0.093043 0.193117 -0.348857
C65   C     C_3   0.969754 0.736263 0.258032 0.326095
C66   C     C_3   0.002491 0.792946 0.202270 -0.044944
C67   C     C_2   0.274297 0.449314 0.237443 -0.210369
H1    H     H_    0.413280 0.250790 0.113731 0.073078
H2    H     H_    0.015938 0.222158 0.154846 0.117102
H3    H     H_    0.929319 0.113856 0.136575 0.066629
H4    H     H_    0.142846 0.111611 0.149269 0.116692
H5    H     H_    0.034703 0.350577 0.819677 -0.055372
H6    H     H_    0.263254 0.749901 0.715802 0.078769
H7    H     H_    0.200056 0.914498 0.821958 0.093646
H8    H     H_    0.089446 0.324923 0.943357 0.078494
H9    H     H_    0.509833 0.619794 0.242997 0.050039
H10   H     H_    0.329347 0.694283 0.227184 -0.055112
H11   H     H_    0.631611 0.696826 0.150589 0.160860
H12   H     H_    0.402813 0.131463 0.102927 0.088426
H13   H     H_    0.529919 0.594214 0.101763 0.060392
H14   H     H_    0.085004 0.719079 0.294455 -0.067185
H15   H     H_    0.886625 0.781595 0.306690 0.083692
H16   H     H_    0.495504 0.278966 0.725246 0.113085
H17   H     H_    0.088934 0.745931 0.157362 0.105042
H18   H     H_    0.611095 0.398051 0.130032 0.111888
H19   H     H_    0.618488 0.668973 0.896312 0.063347
H20   H     H_    0.907272 0.514959 0.688368 0.051346
H21   H     H_    0.972017 0.518360 0.051761 0.110325
H22   H     H_    0.247580 0.535994 0.961500 0.105165
H23   H     H_    0.345490 0.225180 0.200656 0.152759
H24   H     H_    0.721039 0.052675 0.582679 0.107689
H25   H     H_    0.233133 0.078135 0.421049 0.078557
H26   H     H_    0.342898 0.945140 0.424368 0.079488
H27   H     H_    0.851685 0.908585 0.593476 0.104994
H28   H     H_    0.522041 0.244871 0.859630 0.098259
H29   H     H_    0.592030 0.142910 0.772905 0.074401
H30   H     H_    0.685585 0.213098 0.156757 0.019989
H31   H     H_    0.329928 0.127064 0.747385 0.112227
H32   H     H_    0.203296 0.072636 0.652733 0.116545
H33   H     H_    0.307322 0.169555 0.656977 0.165071
H34   H     H_    0.767379 0.749404 0.690371 0.080731
H35   H     H_    0.016002 0.174890 0.747389 0.101596
H36   H     H_    0.041083 0.238948 0.679920 0.080980
H37   H     H_    0.664179 0.906941 0.920046 0.133418
H38   H     H_    0.736764 0.011102 0.913871 0.145994
H39   H     H_    0.549479 0.022542 0.956008 0.126848
H40   H     H_    0.509752 0.028849 0.809186 0.101416
H41   H     H_    0.434933 0.926427 0.809889 0.132979
H42   H     H_    0.549114 0.972791 0.653723 0.099699
H43   H     H_    0.611856 0.848485 0.599944 0.151204
H44   H     H_    0.427634 0.883761 0.650398 0.116325
H45   H     H_    0.738031 0.786220 0.803106 -0.045372
H46   H     H_    0.342017 0.152797 0.888645 0.129634
H47   H     H_    0.212487 0.187792 0.971975 0.131414
H48   H     H_    0.131136 0.136780 0.861436 0.127447
H49   H     H_    0.985515 0.699609 0.782804 0.011185
H50   H     H_    0.104811 0.620705 0.698424 0.128002
H51   H     H_    0.189610 0.662367 0.810152 0.107677
H52   H     H_    0.952804 0.995335 0.004740 0.127249
H53   H     H_    0.164696 0.968410 0.015119 0.136592
H54   H     H_    0.070549 0.034597 0.945079 0.132527
H55   H     H_    0.932757 0.893601 0.850323 0.122036
H56   H     H_    0.757714 0.923989 0.748981 0.086955
H57   H     H_    0.024613 0.825071 0.916592 0.101513
H58   H     H_    0.310599 0.775150 0.924026 0.123049
H59   H     H_    0.434055 0.787367 0.851527 0.149269
H60   H     H_    0.378709 0.888626 0.943002 0.129046
H61   H     H_    0.733737 0.288464 0.003658 0.133548
H62   H     H_    0.663192 0.173017 0.965206 0.135553
H63   H     H_    0.874780 0.183806 0.993547 0.128546
H64   H     H_    0.842843 0.129388 0.837354 0.112524
H65   H     H_    0.860145 0.254960 0.872767 0.123984
H66   H     H_    0.384174 0.859694 0.192495 0.169894
H67   H     H_    0.916846 0.223399 0.290077 0.062448
H68   H     H_    0.503227 0.853582 0.108816 0.123520
H69   H     H_    0.288819 0.863036 0.088932 0.116371
H70   H     H_    0.442299 0.696111 0.018918 0.111774
H71   H     H_    0.279302 0.699854 0.075414 0.114092
H72   H     H_    0.194063 0.861917 0.291801 0.122403
H73   H     H_    0.106416 0.924694 0.221296 0.135200
H74   H     H_    0.998053 0.930630 0.308987 0.126413
H75   H     H_    0.989453 0.821551 0.048498 0.139363
H76   H     H_    0.779414 0.862987 0.035709 0.118366
H77   H     H_    0.909913 0.938280 0.118898 0.137377
H78   H     H_    0.049250 0.113546 0.283746 -0.013517
H79   H     H_    0.759240 0.863630 0.188571 0.117050
H80   H     H_    0.803856 0.748887 0.104022 0.132644
H81   H     H_    0.096684 0.401855 0.289444 0.142910
H82   H     H_    0.296245 0.362196 0.318049 0.129060
H83   H     H_    0.226300 0.484587 0.370481 0.131411
H84   H     H_    0.983173 0.388927 0.567215 0.151574
H85   H     H_    0.786578 0.372544 0.518752 0.152398
H86   H     H_    0.879233 0.359954 0.625350 0.043193
H87   H     H_    0.595376 0.505777 0.922288 0.141111
H88   H     H_    0.493256 0.406624 0.908899 0.160825
H89   H     H_    0.294459 0.321931 0.934610 0.126006
H90   H     H_    0.703222 0.407285 0.949095 0.112063
H91   H     H_    0.785720 0.383733 0.812193 0.069796
H92   H     H_    0.599239 0.425628 0.770733 0.154852
H93   H     H_    0.508284 0.701978 0.534714 0.140591
H94   H     H_    0.355816 0.691922 0.584964 0.114703
H95   H     H_    0.358896 0.623094 0.469857 0.118801
H96   H     H_    0.770014 0.085762 0.231162 0.086842
H97   H     H_    0.563570 0.070756 0.222344 0.122785
H98   H     H_    0.660269 0.043438 0.124855 0.071796
O1    O     O_2   0.428380 0.595290 0.716080 -0.467908
O2    O     O_2   0.679069 0.811679 0.446381 -0.480655
O3    O     O_3   0.522734 0.767877 0.293143 -0.606406
O4    O     O_3   0.649320 0.571640 0.606850 -0.491848
O5    O     O_3   0.067570 0.379360 0.450830 -0.496669
O6    O     O_2   0.850910 0.734710 0.551660 -0.461168
O7    O     O_3   0.028682 0.803666 0.696478 -0.679547
O8    O     O_2   0.848340 0.483568 0.190496 -0.493109
O9    O     O_3   0.897025 0.654404 0.203418 -0.626474
O10   O     O_3   0.202060 0.415890 0.655600 -0.481018
O11   O     O_2   0.338862 0.510512 0.809508 -0.505277
O12   O     O_3   0.157678 0.235740 0.309827 -0.625331
O13   O     O_3   0.542835 0.741611 0.715688 -0.661691
O14   O     O_3   0.270112 0.342990 0.795775 -0.630262
O15   O     O_2   0.338780 0.265250 0.448290 -0.430345
O16   O     O_3   0.612600 0.359160 0.609560 -0.488579
O17   O     O_2   0.509757 0.184108 0.559538 -0.513924
O18   O     O_3   0.727214 0.227480 0.697245 -0.658455
O19   O     O_2   0.761310 0.404670 0.283870 -0.467987
O20   O     O_3   0.540390 0.428280 0.393140 -0.480212
O21   O     O_3   0.987650 0.584030 0.344390 -0.470903
O22   O     O_3   0.622865 0.257390 0.283471 -0.611939
O23   O     O_3   0.122140 0.620560 0.549160 -0.493450
O24   O     O_3   0.577110 0.640760 0.390430 -0.492543
P1    P     P_3+3 0.592580 0.619730 0.703530 0.935270
P2    P     P_3+3 0.156500 0.273340 0.422460 0.985113
P3    P     P_3+3 0.662166 0.236601 0.594062 0.924550
P4    P     P_3+3 0.597130 0.380190 0.296460 0.980562
P5    P     P_3+3 0.530315 0.761123 0.397541 0.932530
P6    P     P_3+3 0.201573 0.446953 0.768967 0.899246
P7    P     P_3+3 0.036082 0.743066 0.583379 0.906886
P8    P     P_3+3 0.975862 0.553816 0.231619 0.942909

loop_
_geom_bond_atom_site_label_1
_geom_bond_atom_site_label_2
_ccdc_geom_bond_type
C53   C54   S    
C64   H96   S    
C65   H14   S    
C37   H56   S    
C44   H43   S    
C49   H54   S    
C10   H22   S    
C45   H10   S    
O18   P3    S    
C59   H81   S    
O14   P6    S    
C31   H25   S    
C45   O3    S    
C41   H32   S    
C50   H59   S    
C51   C52   S    
C42   C43   S    
C13   C17   A    
C20   C33   A    
C38   H67   S    
C4    O18   S    
C6    C67   D    
C4    H16   S    
C55   H73   S    
C50   H60   S    
C12   H5    S    
C26   C27   A    
C22   C24   A    
Ba1   Ba2   S    
C56   H13   S    
Ba2   O6    S    
C36   C37   S    
C36   H45   S    
C47   H51   S    
C19   C31   A    
Ba1   O23   S    
C1    C46   S    
C32   C60   S    
O16   P3    S    
C53   H70   S    
C60   H86   S    
C62   H90   S    
Ba2   P4    S    
C28   O22   S    
Ba2   O20   S    
C34   H7    S    
C16   C51   S    
O24   P5    S    
C2    C17   A    
Ba1   O10   S    
C23   O7    S    
C47   H49   S    
C6    C7    S    
C63   H93   S    
C1    H89   S    
C21   C22   A    
O1    P1    D    
C48   H57   S    
C16   H28   S    
C7    C8    S    
C44   H44   S    
C43   H39   S    
C56   H11   S    
Ba2   O4    S    
C39   H2    S    
C18   C32   A    
C42   H40   S    
Ba1   O20   S    
C25   C30   A    
C57   C58   S    
O10   P6    S    
C44   H42   S    
C35   H12   S    
O5    P2    S    
C58   H77   S    
C61   H91   S    
C37   C42   S    
C4    C16   S    
C18   P3    S    
C40   H36   S    
C50   H58   S    
O2    P5    D    
C23   C47   S    
C18   C27   A    
C57   H80   S    
C15   P1    S    
Ba1   O16   S    
C52   H61   S    
O7    P7    S    
C36   O13   S    
C55   H74   S    
C65   C66   S    
O19   P4    D    
C48   H55   S    
C41   H31   S    
O13   P1    S    
C22   H26   S    
C3    C5    D    
C64   H97   S    
C14   C15   A    
C19   C32   A    
O21   P8    S    
C25   C33   A    
C29   H24   S    
C28   H30   S    
Ba1   O4    S    
C53   H71   S    
C60   H85   S    
C28   C35   S    
C46   H47   S    
C23   H6    S    
C4    C61   S    
C21   P5    S    
Ba1   P2    S    
Ba2   O19   S    
C20   C63   S    
C36   H34   S    
C52   H62   S    
C62   H88   S    
C57   C66   S    
C38   O12   S    
C54   H69   S    
O22   P4    S    
C29   C30   A    
C10   C13   S    
C65   O9    S    
Ba1   O15   S    
C63   H94   S    
C48   C49   S    
C24   C25   A    
C51   H64   S    
O15   P2    D    
Ba2   O24   S    
C59   H82   S    
O8    P8    D    
C28   C64   S    
C1    C12   S    
C46   H46   S    
C66   H17   S    
C64   H98   S    
C38   C39   S    
C30   H27   S    
O11   P6    D    
C26   C31   A    
C37   C44   S    
C49   H52   S    
C53   C56   S    
C40   C41   S    
C2    C15   A    
O9    P8    S    
C5    P4    S    
C1    H8    S    
C54   H66   S    
C34   C48   S    
C43   H37   S    
O23   P7    S    
C2    H20   S    
O12   P2    S    
C59   C67   S    
C61   H92   S    
C35   H23   S    
O20   P4    S    
O6    P7    D    
C24   C26   A    
C51   H65   S    
Ba2   O23   S    
C40   H35   S    
C5    C67   S    
C9    C10   D    
C46   H48   S    
C55   H72   S    
C52   H63   S    
C34   C50   S    
C62   H87   S    
Ba1   O5    S    
C39   H3    S    
Ba1   O1    S    
C60   H84   S    
C12   C40   S    
C11   C13   A    
C41   H33   S    
C3    C8    S    
C27   C29   A    
C57   H79   S    
C45   C56   S    
O3    P5    S    
C54   H68   S    
C9    H21   S    
C47   H50   S    
O17   P3    D    
C7    C9    S    
C63   H95   S    
C12   O14   S    
O4    P1    S    
C16   H29   S    
C59   H83   S    
Ba2   O21   S    
C23   C34   S    
C39   H4    S    
C61   C62   S    
C3    H18   S    
Ba1   P1    S    
C65   H15   S    
C58   H76   S    
C11   C14   A    
C14   H19   S    
C49   H53   S    
C20   C21   A    
C6    P8    S    
C55   C66   S    
C45   H9    S    
C19   P2    S    
C35   H1    S    
C17   P6    S    
C38   H78   S    
C58   H75   S    
C43   H38   S    
C33   P7    S    
Ba2   O5    S    
C42   H41   S    
