data_mof_unit_18994.cif
_audit_creation_date              2012-12-10T17:47:45-0500
_audit_creation_method            fapswitch 2.2
_symmetry_space_group_name_H-M    P1
_symmetry_Int_Tables_number       1
_space_group_crystal_system       triclinic
_cell_length_a                    14.696733
_cell_length_b                    14.749844
_cell_length_c                    14.345563
_cell_angle_alpha                 77.077285
_cell_angle_beta                  102.049832
_cell_angle_gamma                 115.149016
_cell_volume                      2720.78204897

loop_
_atom_site_label
_atom_site_type_symbol
_atom_type_description
_atom_site_fract_x
_atom_site_fract_y
_atom_site_fract_z
_atom_type_partial_charge
C1    C     C_R   0.880440 0.312391 0.518528 0.816540
C2    C     C_R   0.119596 0.687532 0.480142 0.807473
C3    C     C_R   0.642683 0.074292 0.513230 0.009621
C4    C     C_R   0.360848 0.921323 0.469207 0.009574
C5    C     C_R   0.672764 0.005965 0.585914 0.046176
C6    C     C_R   0.330873 0.987956 0.394372 0.043065
C7    C     C_R   0.538687 0.045034 0.471959 0.109898
C8    C     C_R   0.465460 0.949040 0.507388 0.113288
C9    C     C_R   0.499611 0.882775 0.578086 -0.265856
C10   C     C_R   0.505057 0.109377 0.398032 -0.276316
C11   C     C_R   0.600764 0.910033 0.614963 -0.153296
C12   C     C_R   0.403745 0.081706 0.360993 -0.157766
C13   C     C_R   0.687495 0.602838 0.306841 -0.255040
C14   C     C_R   0.282907 0.338733 0.668450 -0.251616
C15   C     C_R   0.781873 0.604730 0.349338 -0.016568
C16   C     C_R   0.202852 0.369004 0.637618 -0.010327
C17   C     C_R   0.719503 0.523999 0.499024 0.694477
C18   C     C_R   0.284133 0.481197 0.505262 0.746606
C19   C     C_R   0.617846 0.510061 0.456613 -0.155740
C20   C     C_R   0.361128 0.441661 0.525525 -0.126408
C21   C     C_R   0.604001 0.552218 0.358521 -0.067863
C22   C     C_R   0.362835 0.374674 0.612926 -0.105770
C23   C     C_R   0.999896 0.499895 0.668787 0.800582
C24   C     C_R   0.000167 0.500209 0.331201 0.797342
C25   C     C_R   0.530139 0.456630 0.506496 -0.191533
C26   C     C_R   0.438622 0.470318 0.465519 -0.146105
C27   C     C_R   0.423772 0.503360 0.364574 0.436118
C28   C     C_R   0.526340 0.383437 0.591240 0.479497
C29   C     C_R   0.506362 0.539137 0.311039 0.385758
C30   C     C_R   0.443190 0.342804 0.643145 0.421525
C31   C     C_1   0.999830 0.499985 0.771116 -0.173465
C32   C     C_1   0.000373 0.500341 0.228854 -0.190256
C33   C     C_1   0.999924 0.500104 0.856546 -0.000478
C34   C     C_1   0.000453 0.500388 0.143426 -0.009063
C35   C     C_1   0.000170 0.500253 0.957262 0.013062
C36   C     C_1   0.000365 0.500348 0.042724 0.011160
C37   C     C_R   0.813692 0.204541 0.539346 -0.176351
C38   C     C_R   0.186802 0.794484 0.453834 -0.179140
C39   C     C_R   0.773619 0.034988 0.631709 0.390085
C40   C     C_R   0.228941 0.959422 0.351501 0.388016
C41   C     C_R   0.842690 0.136459 0.612770 0.309817
C42   C     C_R   0.157964 0.859957 0.376959 0.300698
C43   C     C_R   0.716948 0.171299 0.487637 -0.334923
C44   C     C_R   0.285190 0.828181 0.501982 -0.328974
Cu1   Cu    Cu3+1 0.081740 0.475690 0.523180 0.979220
Cu2   Cu    Cu3+1 0.918260 0.524310 0.476820 0.970259
H1    H     H_    0.621571 0.855807 0.669549 0.197947
H2    H     H_    0.383178 0.134349 0.304059 0.199468
H3    H     H_    0.300683 0.777733 0.563712 0.168783
H4    H     H_    0.700771 0.225724 0.430784 0.169480
H5    H     H_    0.450487 0.808334 0.607501 0.136613
H6    H     H_    0.554859 0.182254 0.365780 0.143575
H7    H     H_    0.139768 0.338020 0.678939 0.169543
H8    H     H_    0.843594 0.637282 0.306198 0.166801
H9    H     H_    0.679371 0.636935 0.232095 0.204258
H10   H     H_    0.280826 0.285996 0.734778 0.198788
N1    N     N_R   0.795420 0.560790 0.441960 -0.225993
N2    N     N_R   0.204580 0.439210 0.558040 -0.223026
O1    O     O_R   0.977910 0.338120 0.530560 -0.562214
O2    O     O_R   0.022090 0.661880 0.469440 -0.566638
O3    O     O_R   0.839850 0.379180 0.491410 -0.569276
O4    O     O_R   0.160150 0.620820 0.508590 -0.547719
O5    O     O_R   0.069040 0.479460 0.643530 -0.589972
O6    O     O_R   0.930960 0.520540 0.356470 -0.589258
O7    O     O_R   0.930990 0.520530 0.604380 -0.507253
O8    O     O_R   0.069010 0.479470 0.395620 -0.516530
O9    O     O_3   0.324690 0.478735 0.318291 -0.569251
C45   C     C_3   0.313395 0.558938 0.248035 -0.110911
H11   H     H_    0.314159 0.546056 0.174979 0.177187
H12   H     H_    0.370822 0.635357 0.261783 0.150945
H13   H     H_    0.237783 0.558412 0.248498 0.179595
O10   O     O_3   0.597500 0.341379 0.620615 -0.507146
C46   C     C_3   0.582732 0.274096 0.557539 -0.257104
H14   H     H_    0.501237 0.228479 0.534867 0.123195
H15   H     H_    0.621157 0.315832 0.492720 0.164191
H16   H     H_    0.617191 0.220163 0.596276 0.201957
O11   O     O_3   0.063600 0.828273 0.322922 -0.736309
H17   H     H_    0.044710 0.758052 0.312454 0.324646
O12   O     O_3   0.935093 0.167436 0.670145 -0.740728
H18   H     H_    0.950347 0.235185 0.685137 0.322972
O13   O     O_3   0.800104 0.964489 0.699853 -0.743797
H19   H     H_    0.874031 0.992685 0.720889 0.374701
O14   O     O_3   0.202809 0.027949 0.280222 -0.738107
H20   H     H_    0.128495 0.000843 0.261408 0.377681
O15   O     O_3   0.491772 0.561354 0.211498 -0.596292
C47   C     C_3   0.471154 0.473621 0.172836 -0.317800
H21   H     H_    0.401249 0.409787 0.196688 0.188351
H22   H     H_    0.536366 0.450362 0.192112 0.165041
H23   H     H_    0.458250 0.490816 0.093068 0.195215
O16   O     O_3   0.445632 0.277893 0.729089 -0.548678
C48   C     C_3   0.392772 0.176533 0.712064 -0.282164
H24   H     H_    0.321737 0.164078 0.660696 0.145315
H25   H     H_    0.370853 0.127656 0.781462 0.190843
H26   H     H_    0.442737 0.151078 0.686153 0.183133
O17   O     O_3   0.290926 0.566073 0.437920 -0.556122
C49   C     C_3   0.370040 0.651807 0.472784 -0.347620
H27   H     H_    0.445627 0.654005 0.469078 0.151210
H28   H     H_    0.364081 0.655038 0.547923 0.152251
H29   H     H_    0.364803 0.720696 0.426024 0.204532
O18   O     O_3   0.744195 0.504639 0.597339 -0.520007
C50   C     C_3   0.764999 0.592173 0.636162 -0.255978
H30   H     H_    0.696754 0.610103 0.624573 0.138452
H31   H     H_    0.829595 0.658360 0.605634 0.156179
H32   H     H_    0.787003 0.577740 0.715117 0.196037

loop_
_geom_bond_atom_site_label_1
_geom_bond_atom_site_label_2
_ccdc_geom_bond_type
C44   H3    S    
C7    C10   A    
C14   H10   S    
C50   H30   S    
C27   C29   A    
O17   C49   S    
C46   H15   S    
C46   H14   S    
C11   H1    S    
C35   C36   T    
C9    H5    S    
C4    C8    A    
C10   H6    S    
O13   H19   S    
C7    C8    A    
C39   C41   A    
O11   H17   S    
C25   C28   A    
C3    C43   A    
C26   C27   A    
C19   C21   A    
C5    C11   A    
C3    C7    A    
C1    O1    A    
C6    C12   A    
C2    O2    A    
C23   O5    A    
C49   H29   S    
Cu1   O4    S    
C18   C20   A    
C16   H7    S    
C33   C35   S    
C18   N2    A    
O14   H20   S    
C45   H11   S    
C49   H28   S    
C31   C33   T    
C29   O15   S    
C24   O8    A    
C40   C42   A    
C24   O6    A    
C18   O17   S    
C15   N1    A    
C40   O14   S    
C28   O10   S    
Cu1   N2    S    
Cu2   O3    S    
O9    C45   S    
C15   H8    S    
C6    C40   A    
C39   O13   S    
Cu2   O7    S    
C4    C6    A    
C48   H24   S    
C47   H21   S    
C8    C9    A    
C4    C44   A    
C25   C26   A    
O15   C47   S    
C21   C29   A    
Cu1   O5    S    
Cu2   O6    S    
C32   C34   T    
C37   C43   A    
C24   C32   S    
C38   C44   A    
C48   H25   S    
C2    C38   S    
C30   O16   S    
C49   H27   S    
C13   C21   A    
C16   N2    A    
C9    C11   A    
C10   C12   A    
C20   C22   A    
C50   H32   S    
C13   C15   A    
Cu2   N1    S    
C46   H16   S    
C14   C16   A    
C50   H31   S    
Cu1   O1    S    
C22   C30   A    
Cu2   O2    S    
O10   C46   S    
C3    C5    A    
C47   H23   S    
C1    O3    A    
C41   O12   S    
C43   H4    S    
C38   C42   A    
C1    C37   S    
C23   O7    A    
C5    C39   A    
C48   H26   S    
C14   C22   A    
O16   C48   S    
C20   C26   A    
C45   H13   S    
C28   C30   A    
O18   C50   S    
C17   C19   A    
C12   H2    S    
C47   H22   S    
C37   C41   A    
C19   C25   A    
C17   O18   S    
C27   O9    S    
O12   H18   S    
Cu1   Cu2   S    
C34   C36   S    
C42   O11   S    
C45   H12   S    
C17   N1    A    
Cu1   O8    S    
C2    O4    A    
C23   C31   S    
C13   H9    S    
