data_mof_unit_21736.cif
_audit_creation_date              2013-03-05T16:31:21-0500
_audit_creation_method            fapswitch 2.2
_symmetry_space_group_name_H-M    P1
_symmetry_Int_Tables_number       1
_space_group_crystal_system       triclinic
_cell_length_a                    9.543346
_cell_length_b                    10.815292
_cell_length_c                    13.460996
_cell_angle_alpha                 90.444728
_cell_angle_beta                  72.097258
_cell_angle_gamma                 90.655892
_cell_volume                      1321.99102157

loop_
_atom_site_label
_atom_site_type_symbol
_atom_site_description
_atom_site_fract_x
_atom_site_fract_y
_atom_site_fract_z
_atom_type_partial_charge
O1    O     O_R   0.381190 0.680360 0.500000 -0.580247
O2    O     O_R   0.618780 0.680320 0.499990 -0.578855
C1    C     C_R   0.500113 0.737453 0.501264 0.798345
O3    O     O_R   0.323230 0.500000 0.650990 -0.582245
O4    O     O_R   0.560820 0.499960 0.650980 -0.593315
C2    C     C_R   0.420768 0.494697 0.700189 0.779927
Cu1   Cu    Cu3+1 0.359330 0.500020 0.500010 0.952278
Cu2   Cu    Cu3+1 0.640670 0.499980 0.499990 0.969736
O5    O     O_R   0.381220 0.319680 0.500010 -0.576417
O6    O     O_R   0.618810 0.319640 0.500000 -0.597836
O7    O     O_R   0.439180 0.500040 0.349020 -0.579829
O8    O     O_R   0.676770 0.500000 0.349010 -0.525075
C3    C     C_R   0.499560 0.262312 0.499744 0.798823
C4    C     C_R   0.579725 0.499206 0.299390 0.840356
C5    C     C_R   0.787021 0.401639 0.022798 -0.245588
H1    H     H_    0.797781 0.318375 0.835212 0.145808
H2    H     H_    0.892441 0.363615 0.978155 0.173602
C6    C     C_R   0.626344 0.486316 0.184536 -0.144110
C7    C     C_R   0.234536 0.544776 0.867936 -0.222327
C8    C     C_R   0.194406 0.565886 0.974619 -0.081270
C9    C     C_R   0.291936 0.540419 0.030066 -0.112889
C10   C     C_R   0.431596 0.488062 0.979822 0.072764
C11   C     C_R   0.465862 0.455388 0.872606 0.083344
C12   C     C_R   0.539635 0.468841 0.031411 0.098660
C13   C     C_R   0.675031 0.412601 0.976581 0.111586
C14   C     C_R   0.697896 0.367435 0.875812 -0.211895
C15   C     C_R   0.593310 0.385603 0.825534 -0.192703
C16   C     C_R   0.518444 0.504930 0.135313 -0.260283
C17   C     C_R   0.766089 0.441151 0.125409 0.354318
C18   C     C_R   0.371667 0.493453 0.815212 -0.099938
H3    H     H_    0.417054 0.546415 0.181003 0.158966
H4    H     H_    0.159876 0.572979 0.826023 0.152273
H5    H     H_    0.253621 0.562373 0.112057 0.156916
H6    H     H_    0.088808 0.606884 0.013923 0.177250
H7    H     H_    0.613870 0.343331 0.749468 0.164411
C19   C     C_R   0.402225 0.933383 0.464689 0.108835
C20   C     C_R   0.497547 0.870505 0.506192 -0.077222
C21   C     C_R   0.584831 0.937234 0.555246 -0.205099
H8    H     H_    0.655489 0.889949 0.591769 0.153788
C22   C     C_R   0.583868 0.066333 0.554655 -0.207276
H9    H     H_    0.653713 0.116969 0.591116 0.149419
C23   C     C_R   0.496192 0.128907 0.504585 -0.101634
C24   C     C_R   0.401703 0.060951 0.463059 0.030549
C25   C     C_3   0.387354 0.060901 0.354826 -0.197924
C26   C     C_3   0.388067 0.920682 0.357795 -0.522990
H10   H     H_    0.279956 0.095598 0.352262 0.180514
H11   H     H_    0.280803 0.878036 0.359501 0.206750
H12   H     H_    0.485946 0.876716 0.301705 0.185428
C27   C     C_R   0.957810 0.436966 0.424933 0.365357
N1    N     N_R   0.852320 0.499070 0.499340 -0.200420
C28   C     C_R   0.896817 0.570959 0.568525 -0.085440
H13   H     H_    0.817181 0.626687 0.625209 0.146645
C29   C     C_R   0.045652 0.570656 0.568752 -0.084718
H14   H     H_    0.077610 0.625856 0.625725 0.140274
N2    N     N_R   0.148230 0.499110 0.499340 -0.194574
C30   C     C_R   0.105560 0.438257 0.424124 0.274278
C31   C     C_3   0.120043 0.303476 0.401652 -0.522606
C32   C     C_3   0.959949 0.301192 0.405127 -0.493079
H15   H     H_    0.196981 0.285705 0.322305 0.239533
H16   H     H_    0.139922 0.250064 0.466126 0.214274
H17   H     H_    0.943943 0.277438 0.329079 0.256042
H18   H     H_    0.888682 0.248354 0.472712 0.200132
N3    N     N_R   0.887775 0.435063 0.166703 0.098476
O9    O     O_R   0.928650 0.534065 0.206352 -0.406367
O10   O     O_R   0.979143 0.343367 0.140381 -0.397324
C33   C     C_2   0.518347 0.115886 0.273502 0.402648
H19   H     H_    0.629300 0.089698 0.270031 0.085613
O11   O     O_2   0.500516 0.190468 0.210962 -0.546421

loop_
_geom_bond_atom_site_label_1
_geom_bond_atom_site_label_2
_geom_bond_distance
_ccdc_geom_bond_type
C32   H18   1.111562 S    
O4    Cu2   1.938927 S    
C33   O11   1.220677 D    
C24   C25   1.504657 S    
N3    O10   1.301449 A    
C5    C17   1.397684 A    
C20   C21   1.402755 A    
C11   C15   1.410765 A    
C27   C32   1.489654 S    
C27   C30   1.406631 A    
C15   H7    1.080373 S    
C4    C6    1.477449 S    
C25   C33   1.505504 S    
C7    C8    1.385585 A    
Cu1   N2    2.017303 S    
Cu2   O8    1.954132 S    
C8    H6    1.082071 S    
Cu1   O5    1.963962 S    
C32   H17   1.108345 S    
C17   N3    1.435647 S    
C33   H19   1.086203 S    
C14   C15   1.383735 A    
C6    C16   1.402191 A    
Cu1   Cu2   2.684847 S    
C6    C17   1.416674 A    
O1    Cu1   1.959176 S    
C29   H14   1.081710 S    
C8    C9    1.391203 A    
Cu1   O7    1.938927 S    
C31   C32   1.514031 S    
O4    C2    1.297284 A    
O3    Cu1   1.954132 S    
C7    H4    1.083422 S    
C31   H16   1.111046 S    
C22   C23   1.406816 A    
C19   C20   1.390903 A    
C21   C22   1.396484 A    
O8    C4    1.297682 A    
N1    C28   1.369846 A    
O2    C1    1.291715 A    
C29   N2    1.368894 A    
H1    C14   1.084284 S    
C21   H8    1.083298 S    
O7    C4    1.301796 A    
C10   C12   1.426839 A    
N2    C30   1.364220 A    
C31   H15   1.111203 S    
O3    C2    1.299677 A    
C5    C13   1.398632 A    
C23   C24   1.397896 A    
C5    H2    1.084590 S    
C28   C29   1.421375 A    
C28   H13   1.081618 S    
C11   C18   1.419454 A    
Cu2   N1    2.017313 S    
C19   C26   1.491178 S    
C9    H5    1.076097 S    
C12   C13   1.417399 A    
C1    C20   1.440149 S    
Cu2   O6    1.959175 S    
C27   N1    1.361232 A    
C26   H11   1.111772 S    
C30   C31   1.485782 S    
O5    C3    1.293806 A    
C10   C11   1.421016 A    
C3    C23   1.444343 S    
C19   C24   1.380125 A    
C22   H9    1.083366 S    
C26   H12   1.113422 S    
C2    C18   1.473498 S    
C13   C14   1.391528 A    
C9    C10   1.418318 A    
C7    C18   1.401413 A    
C16   H3    1.074985 S    
O2    Cu2   1.963962 S    
C25   C26   1.517492 S    
C12   C16   1.403164 A    
C25   H10   1.106014 S    
N3    O9    1.301167 A    
O1    C1    1.290461 A    
O6    C3    1.290661 A    
