data_mof_unit_34321.cif
_audit_creation_date              2012-12-10T20:45:36-0500
_audit_creation_method            fapswitch 2.2
_symmetry_space_group_name_H-M    P1
_symmetry_Int_Tables_number       1
_space_group_crystal_system       triclinic
_cell_length_a                    10.664157
_cell_length_b                    10.654183
_cell_length_c                    9.870276
_cell_angle_alpha                 90.26232
_cell_angle_beta                  90.399166
_cell_angle_gamma                 90.263421
_cell_volume                      1121.38885065

loop_
_atom_site_label
_atom_site_type_symbol
_atom_type_description
_atom_site_fract_x
_atom_site_fract_y
_atom_site_fract_z
_atom_type_partial_charge
C1    C     C_R   0.497886 0.260321 0.499360 0.873960
C2    C     C_R   0.856893 0.232608 0.906933 -0.126803
C3    C     C_R   0.778731 0.139244 0.852737 -0.131152
C4    C     C_R   0.260310 0.504302 0.499494 0.865301
C5    C     C_R   0.752856 0.136590 0.713844 -0.134503
C6    C     C_R   0.803032 0.228670 0.629108 -0.109979
C7    C     C_R   0.880705 0.323777 0.682879 0.127085
C8    C     C_R   0.413780 0.063311 0.582619 0.118385
C9    C     C_R   0.491330 0.128503 0.494538 -0.094655
C10   C     C_R   0.556662 0.064864 0.392754 -0.251906
C11   C     C_R   0.559811 0.935478 0.394573 -0.244347
C12   C     C_R   0.223253 0.831403 0.117300 -0.117431
C13   C     C_R   0.497215 0.871572 0.497809 -0.094528
C14   C     C_R   0.417175 0.935319 0.584507 0.100529
C15   C     C_3   0.402350 0.930171 0.734633 -0.487055
C16   C     C_R   0.501504 0.739723 0.500139 0.878641
C17   C     C_3   0.396936 0.072487 0.732366 -0.495876
C18   C     C_R   0.437347 0.408560 0.070291 0.212352
C19   C     C_R   0.571057 0.583027 0.073636 -0.188274
C20   C     C_R   0.572868 0.582431 0.929384 0.245322
C21   C     C_R   0.435914 0.409688 0.927804 0.179791
C22   C     C_3   0.297876 0.386483 0.922906 -0.523977
C23   C     C_R   0.931345 0.570616 0.407172 -0.246736
C24   C     C_3   0.300417 0.381582 0.076451 -0.496495
C25   C     C_R   0.739608 0.495367 0.500404 0.868808
C26   C     C_R   0.248525 0.846636 0.255516 -0.116361
C27   C     C_R   0.196952 0.763505 0.349545 -0.111908
C28   C     C_R   0.118778 0.664763 0.305618 0.133923
C29   C     C_R   0.091012 0.652330 0.166629 -0.188752
C30   C     C_R   0.144360 0.734392 0.072884 -0.146226
C31   C     C_3   0.779887 0.652110 0.868514 -0.780328
C32   C     C_R   0.872077 0.492564 0.500188 -0.074755
C33   C     C_R   0.939617 0.417899 0.592255 -0.008555
C34   C     C_R   0.068405 0.427575 0.591712 -0.252454
C35   C     C_R   0.127732 0.506162 0.499072 -0.076199
C36   C     C_R   0.060063 0.578385 0.404718 -0.006685
C37   C     C_R   0.909035 0.323565 0.822323 -0.181153
H1    H     H_    0.263899 0.895448 0.044780 0.125946
H2    H     H_    0.477170 0.118494 0.785593 0.218714
H3    H     H_    0.625820 0.651714 0.129754 0.148174
H4    H     H_    0.307426 0.923493 0.289664 0.143692
H5    H     H_    0.244719 0.468007 0.882772 0.216208
H6    H     H_    0.273378 0.295081 0.875476 0.195337
H7    H     H_    0.247101 0.458308 0.125035 0.232577
H8    H     H_    0.280863 0.286433 0.117192 0.198001
H9    H     H_    0.216490 0.776877 0.456445 0.097110
H10   H     H_    0.029551 0.577867 0.130730 0.127795
H11   H     H_    0.124053 0.723068 0.965896 0.130080
H12   H     H_    0.739189 0.068222 0.918095 0.119634
H13   H     H_    0.876725 0.628373 0.338449 0.151448
H14   H     H_    0.123151 0.369124 0.659554 0.152405
H15   H     H_    0.970814 0.394351 0.865619 0.125474
H16   H     H_    0.877931 0.233942 0.014373 0.130665
H17   H     H_    0.624770 0.763043 0.889849 0.191531
H18   H     H_    0.828928 0.719164 0.801063 0.235768
H19   H     H_    0.802705 0.555632 0.835341 0.266586
H20   H     H_    0.814409 0.666637 0.973986 0.208015
H21   H     H_    0.694580 0.062522 0.671855 0.146831
H22   H     H_    0.783175 0.224593 0.521425 0.098852
H23   H     H_    0.611248 0.114791 0.317860 0.164356
H24   H     H_    0.615515 0.886051 0.320151 0.159822
H25   H     H_    0.312382 0.885435 0.764556 0.196582
H26   H     H_    0.486991 0.894400 0.787155 0.203602
H27   H     H_    0.302818 0.108872 0.758779 0.193397
N1    N     N_R   0.499160 0.499140 0.142800 -0.114173
N2    N     N_R   0.499160 0.499180 0.857150 -0.121995
N3    N     N_2   0.646150 0.672869 0.860221 -0.253784
O1    O     O_R   0.500020 0.316790 0.614690 -0.612297
O2    O     O_R   0.500000 0.316760 0.385350 -0.623297
O3    O     O_R   0.316770 0.500030 0.614670 -0.628950
O4    O     O_R   0.316750 0.499990 0.385330 -0.609582
O5    O     O_R   0.500000 0.683240 0.614650 -0.600975
O6    O     O_R   0.499980 0.683210 0.385310 -0.620095
O7    O     O_R   0.683250 0.500010 0.614670 -0.589561
O8    O     O_R   0.683230 0.499970 0.385330 -0.630097
Zn1   Zn    Zn3+2 0.500010 0.500020 0.653130 0.963567
Zn2   Zn    Zn3+2 0.499990 0.499980 0.346870 0.945629

loop_
_geom_bond_atom_site_label_1
_geom_bond_atom_site_label_2
_ccdc_geom_bond_type
C21   N2    A    
C18   C21   A    
C20   N3    S    
O2    Zn2   S    
C35   C36   A    
C16   O5    A    
O5    Zn1   S    
C4    O3    A    
C3    H12   S    
C18   N1    A    
C31   N3    S    
C26   C27   A    
O7    Zn1   S    
C5    H21   S    
C29   H10   S    
C18   C24   S    
C24   H8    S    
C30   H11   S    
C28   C29   A    
C34   C35   A    
C17   H27   S    
C5    C6    A    
C1    O1    A    
C25   O7    A    
C17   H2    S    
C19   C20   A    
C8    C9    A    
C8    C14   A    
C31   H19   S    
C9    C10   A    
C25   C32   S    
C4    C35   S    
C13   C14   A    
C7    C33   S    
C7    C37   A    
N1    Zn2   S    
C16   O6    A    
C1    C9    S    
C19   H3    S    
C37   H15   S    
C23   H13   S    
H17   N3    S    
C3    C5    A    
C1    O2    A    
C12   C26   A    
C25   O8    A    
C10   H23   S    
C29   C30   A    
C22   H6    S    
N2    Zn1   S    
C33   C34   A    
C34   H14   S    
O8    Zn2   S    
C27   H9    S    
O3    Zn1   S    
C24   H7    S    
C22   C24   S    
O4    Zn2   S    
C20   N2    A    
C15   C17   S    
O6    Zn2   S    
C12   C30   A    
C6    H22   S    
C11   H24   S    
C2    H16   S    
C6    C7    A    
O1    Zn1   S    
C8    C17   S    
C32   C33   A    
C31   H20   S    
C2    C3    A    
C23   C32   A    
C11   C13   A    
C2    C37   A    
C22   H5    S    
C15   H25   S    
C19   N1    A    
C12   H1    S    
C10   C11   A    
C28   C36   S    
C23   C36   A    
C13   C16   S    
C27   C28   A    
C15   H26   S    
C14   C15   S    
C31   H18   S    
C21   C22   S    
C4    O4    A    
C26   H4    S    
