data_mof_unit_31839.cif
_audit_creation_date              2013-03-05T15:40:17-0500
_audit_creation_method            fapswitch 2.2
_symmetry_space_group_name_H-M    P1
_symmetry_Int_Tables_number       1
_space_group_crystal_system       triclinic
_cell_length_a                    10.747525
_cell_length_b                    8.68701
_cell_length_c                    7.554103
_cell_angle_alpha                 102.618901
_cell_angle_beta                  95.286847
_cell_angle_gamma                 93.812398
_cell_volume                      682.587744887

loop_
_atom_site_label
_atom_site_type_symbol
_atom_site_description
_atom_site_fract_x
_atom_site_fract_y
_atom_site_fract_z
_atom_type_partial_charge
O1    O     O_R   0.509050 0.286130 0.619770 -0.584177
O2    O     O_R   0.485540 0.256780 0.308360 -0.589637
C1    C     C_R   0.494079 0.200167 0.453824 0.860157
O3    O     O_R   0.331410 0.514680 0.655740 -0.584371
O4    O     O_R   0.307900 0.485330 0.344330 -0.566964
C2    C     C_R   0.263305 0.501948 0.500982 0.788942
Cu1   Cu    Cu3+1 0.513920 0.517380 0.684380 0.941655
Cu2   Cu    Cu3+1 0.486080 0.482620 0.315620 0.943266
O5    O     O_R   0.514460 0.743220 0.691640 -0.594755
O6    O     O_R   0.490950 0.713870 0.380230 -0.606700
O7    O     O_R   0.692100 0.514670 0.655670 -0.574475
O8    O     O_R   0.668590 0.485320 0.344260 -0.600423
C3    C     C_R   0.504664 0.799891 0.546426 0.840345
C4    C     C_R   0.736875 0.500487 0.499169 0.747808
H1    H     H_    0.099800 0.257513 0.394147 0.177848
C5    C     C_R   0.151900 0.797510 0.622536 -0.163687
H2    H     H_    0.252989 0.803184 0.629431 0.135527
C6    C     C_R   0.096866 0.939052 0.674668 -0.117998
H3    H     H_    0.155189 0.049805 0.720499 0.132120
C7    C     C_R   0.966937 0.938313 0.665817 -0.051041
H4    H     H_    0.924354 0.048552 0.704336 0.140922
C8    C     C_R   0.891492 0.796013 0.605576 -0.159652
H5    H     H_    0.790935 0.801373 0.596199 0.111171
C9    C     C_R   0.945450 0.650610 0.555827 0.087688
C10   C     C_R   0.077087 0.652001 0.561793 0.097476
C11   C     C_R   0.130030 0.507950 0.503094 -0.128499
C12   C     C_R   0.055495 0.365775 0.439620 -0.189815
C13   C     C_R   0.925771 0.361322 0.436512 -0.007324
C14   C     C_R   0.871160 0.504225 0.497130 -0.167978
C15   C     C_2   0.488143 0.032040 0.428956 -0.364513
H6    H     H_    0.466079 0.960599 0.291362 0.170122
C16   C     C_2   0.508416 0.968168 0.572287 -0.379789
H7    H     H_    0.528564 0.039911 0.710599 0.180402
N1    N     N_2   0.465100 0.456430 0.038520 -0.203713
H8    H     H_    0.411433 0.364358 0.949140 0.211676
N2    N     N_2   0.534900 0.543570 0.961480 -0.080728
C17   C     C_3   0.607054 0.687439 0.068686 -0.036784
C18   C     C_3   0.730859 0.723743 0.996427 -0.791201
H9    H     H_    0.784955 0.617894 0.973994 0.260563
H10   H     H_    0.716160 0.770164 0.872155 0.261768
H11   H     H_    0.788854 0.818496 0.099228 0.245850
H12   H     H_    0.549837 0.789280 0.072330 0.150944
H13   H     H_    0.639853 0.678313 0.204596 0.218919
C19   C     C_2   0.849055 0.206652 0.370677 0.336788
H14   H     H_    0.748044 0.198671 0.370826 0.076280
O9    O     O_2   0.898196 0.085205 0.314522 -0.574015

loop_
_geom_bond_atom_site_label_1
_geom_bond_atom_site_label_2
_geom_bond_distance
_ccdc_geom_bond_type
C17   H13   1.075732 S    
O4    Cu2   1.948099 S    
C18   H10   1.102452 S    
C9    C10   1.410491 A    
C17   C18   1.523537 S    
C5    C10   1.413604 A    
C1    C15   1.427586 S    
Cu1   N2    2.045087 S    
C3    C16   1.429217 S    
N1    N2    1.293022 D    
Cu2   O8    1.951518 S    
C16   H7    1.087572 S    
O2    C1    1.296651 A    
C2    C11   1.438212 S    
Cu1   Cu2   2.721656 S    
Cu2   N1    2.045087 S    
C19   H14   1.083337 S    
C15   C16   1.327683 D    
C11   C12   1.391371 A    
O4    C2    1.300001 A    
O3    Cu1   1.951517 S    
C5    C6    1.394587 A    
C13   C14   1.411840 A    
O8    C4    1.298787 A    
Cu1   O7    1.948100 S    
C6    C7    1.391373 A    
C15   H6    1.083929 S    
N1    H8    1.029184 S    
O7    C4    1.301341 A    
C8    C9    1.415336 A    
C7    C8    1.394835 A    
C4    C14   1.443013 S    
C17   H12   1.107439 S    
C18   H9    1.110583 S    
C7    H4    1.082721 S    
C18   H11   1.110122 S    
O3    C2    1.299899 A    
C6    H3    1.082912 S    
C12   C13   1.390067 A    
Cu1   O5    1.950232 S    
O5    C3    1.295503 A    
C8    H5    1.081301 S    
N2    C17   1.460261 S    
O1    Cu1   1.956893 S    
C10   C11   1.408919 A    
C9    C14   1.415833 A    
H1    C12   1.085251 S    
C13   C19   1.489162 S    
Cu2   O6    1.956892 S    
O2    Cu2   1.950234 S    
C19   O9    1.221372 D    
C5    H2    1.080209 S    
O1    C1    1.301084 A    
O6    C3    1.302943 A    
