data_mof_unit_50767.cif
_audit_creation_date              2012-12-10T17:29:18-0500
_audit_creation_method            fapswitch 2.2
_symmetry_space_group_name_H-M    P1
_symmetry_Int_Tables_number       1
_space_group_crystal_system       triclinic
_cell_length_a                    12.120568
_cell_length_b                    12.891747
_cell_length_c                    12.989228
_cell_angle_alpha                 85.491362
_cell_angle_beta                  113.215805
_cell_angle_gamma                 93.106414
_cell_volume                      1858.9206476

loop_
_atom_site_label
_atom_site_type_symbol
_atom_type_description
_atom_site_fract_x
_atom_site_fract_y
_atom_site_fract_z
_atom_type_partial_charge
C1    C     C_R   0.475459 0.300256 0.492112 0.996704
C2    C     C_R   0.559241 0.477772 0.991443 0.013121
C3    C     C_R   0.567017 0.528167 0.893314 -0.000373
C4    C     C_R   0.481440 0.525509 0.032898 0.125273
C5    C     C_R   0.432385 0.625800 0.986777 -0.042087
C6    C     C_R   0.466164 0.679294 0.905934 0.011249
C7    C     C_R   0.529984 0.630219 0.858160 -0.047466
C8    C     C_R   0.445957 0.476872 0.114916 -0.123772
C9    C     C_R   0.347935 0.632213 0.126485 0.167906
C10   C     C_R   0.617837 0.479235 0.832380 -0.247385
C11   C     C_R   0.533576 0.812991 0.506198 -0.259916
C12   C     C_R   0.568160 0.494816 0.709413 0.935503
C13   C     C_R   0.457035 0.190234 0.473462 -0.313907
C14   C     C_R   0.336668 0.038157 0.393689 0.314097
C15   C     C_R   0.347577 0.147417 0.395862 0.311000
C16   C     C_R   0.557898 0.128200 0.526820 0.269026
C17   C     C_R   0.553149 0.027258 0.496881 -0.125546
C18   C     C_R   0.439092 0.978589 0.454865 -0.179299
C19   C     C_R   0.431932 0.873480 0.485314 0.468074
C20   C     C_R   0.644006 0.861664 0.519161 -0.251932
C21   C     C_R   0.656589 0.969196 0.520182 0.506894
C22   C     C_R   0.002187 0.583591 0.369768 0.380959
C23   C     C_R   0.522630 0.700499 0.505123 0.930181
C24   C     C_R   0.124680 0.574350 0.389208 -0.011345
C25   C     C_R   0.155404 0.459716 0.549467 0.472771
C26   C     C_R   0.029327 0.456487 0.524211 -0.138792
C27   C     C_R   0.955491 0.531136 0.446810 -0.151586
C28   C     C_R   0.841013 0.546933 0.453025 0.453865
C29   C     C_R   0.860300 0.394324 0.572356 0.049889
C30   C     C_R   0.974378 0.380403 0.574293 -0.073011
C31   C     C_R   0.434204 0.507613 0.291271 0.984903
C32   C     C_R   0.353289 0.672212 0.025064 0.373132
C33   C     C_R   0.397556 0.534740 0.172175 -0.170300
C34   C     C_R   0.697732 0.399308 0.884725 0.241207
C35   C     C_R   0.685830 0.341302 0.974471 0.178818
C36   C     C_R   0.626744 0.382893 0.036181 0.299222
H1    H     H_    0.721648 0.816170 0.533044 0.242809
H2    H     H_    0.820163 0.335119 0.610813 0.223197
H3    H     H_    0.016239 0.307183 0.610547 0.221728
H4    H     H_    0.159584 0.611733 0.330755 0.234929
H5    H     H_    0.442984 0.759271 0.877804 0.223279
H6    H     H_    0.463943 0.396937 0.143018 0.229095
H7    H     H_    0.551883 0.672589 0.793027 0.153186
N1    N     N_R   0.798200 0.480260 0.519790 -0.165134
N2    N     N_R   0.201820 0.519740 0.480210 -0.162267
O1    O     O_R   0.579910 0.341070 0.505280 -0.622506
O2    O     O_R   0.388440 0.353740 0.492580 -0.554142
O3    O     O_R   0.643280 0.490550 0.663120 -0.578498
O4    O     O_R   0.451810 0.503220 0.650420 -0.516000
O5    O     O_R   0.611560 0.646260 0.507420 -0.601911
O6    O     O_R   0.420090 0.658930 0.494720 -0.559512
O7    O     O_R   0.548190 0.496780 0.349580 -0.588222
O8    O     O_R   0.356720 0.509450 0.336880 -0.577575
Zn1   Zn    Zn3+2 0.627850 0.491540 0.508480 1.057528
Zn2   Zn    Zn3+2 0.372150 0.508460 0.491520 1.125670
Br1   Br    Br    0.293680 0.718664 0.211236 -0.309652
Br2   Br    Br    0.191276 0.968477 0.297727 -0.141600
S1    S     S_3+6 0.796214 0.026626 0.529361 0.094647
O9    O     O_2   0.780184 0.136122 0.477483 -0.264082
O10   O     O_2   0.880887 0.027138 0.650567 -0.227456
O11   O     O_3   0.855177 0.955561 0.461231 -0.485207
H8    H     H_    0.934800 0.988667 0.473967 0.403867
S2    S     S_3+6 0.228178 0.229010 0.305526 0.107051
O12   O     O_2   0.164266 0.267716 0.372920 -0.287339
O13   O     O_2   0.280746 0.319836 0.259475 -0.305719
O14   O     O_3   0.126733 0.170672 0.194672 -0.417911
H9    H     H_    0.061267 0.220961 0.159834 0.431164
Br3   Br    Br    0.678019 0.163632 0.670144 -0.300198
Br4   Br    Br    0.750769 0.667638 0.378370 -0.289722
S3    S     S_3+6 0.913576 0.642748 0.236003 0.091752
O15   O     O_2   0.793157 0.588252 0.186715 -0.269046
O16   O     O_2   0.897783 0.755589 0.247203 -0.167668
O17   O     O_3   0.983391 0.635961 0.147599 -0.532017
H10   H     H_    0.926920 0.666332 0.074512 0.407633
S4    S     S_3+6 0.251023 0.410581 0.687631 0.084016
O18   O     O_2   0.312687 0.503222 0.751354 -0.243673
O19   O     O_2   0.186824 0.355301 0.754911 -0.257061
O20   O     O_3   0.351922 0.328183 0.683886 -0.525174
H11   H     H_    0.303937 0.266101 0.649194 0.373140
S5    S     S_3+6 0.262709 0.779072 0.947734 0.113566
O21   O     O_2   0.150409 0.781073 0.970346 -0.176049
O22   O     O_2   0.333800 0.878782 0.981718 -0.228028
O23   O     O_3   0.221861 0.768724 0.809104 -0.515006
H12   H     H_    0.177749 0.832991 0.773091 0.398952
S6    S     S_3+6 0.842304 0.405410 0.879368 0.122446
O24   O     O_2   0.855945 0.317111 0.817310 -0.188219
O25   O     O_2   0.863880 0.506751 0.823783 -0.254117
O26   O     O_3   0.947539 0.394475 0.010926 -0.459064
H13   H     H_    0.928653 0.448545 0.051174 0.377515
S7    S     S_3+6 0.671970 0.327979 0.176970 0.076337
O27   O     O_2   0.584881 0.241993 0.181810 -0.249421
O28   O     O_2   0.795357 0.283882 0.217691 -0.201442
O29   O     O_3   0.680497 0.417389 0.265761 -0.540593
H14   H     H_    0.699869 0.376450 0.338172 0.387836
Br5   Br    Br    0.746177 0.201447 0.003214 -0.149791
S8    S     S_3+6 0.322634 0.834864 0.542647 0.077602
O30   O     O_2   0.219183 0.778199 0.458317 -0.259312
O31   O     O_2   0.377253 0.764891 0.646750 -0.301788
O32   O     O_3   0.271219 0.940318 0.576583 -0.529370
H15   H     H_    0.198846 0.915130 0.589604 0.395467

loop_
_geom_bond_atom_site_label_1
_geom_bond_atom_site_label_2
_ccdc_geom_bond_type
S2    O13   D    
O29   H14   S    
O17   H10   S    
C14   C18   A    
C28   Br4   S    
C31   O7    A    
C12   O3    A    
C12   O4    A    
S6    O24   D    
O3    Zn1   S    
C11   C19   A    
C26   C27   A    
O5    Zn1   S    
C24   N2    A    
C8    H6    S    
C18   C19   A    
C3    C7    A    
C5    C6    A    
C1    O1    A    
S1    O10   D    
S8    O32   S    
C2    C36   A    
C34   C35   A    
C9    C32   A    
C23   O6    A    
O32   H15   S    
C16   C17   A    
C6    H5    S    
S8    O31   D    
C29   H2    S    
C31   C33   S    
S3    O15   D    
C16   Br3   S    
C7    H7    S    
C4    C8    A    
C5    C32   A    
S1    O11   S    
S6    O25   D    
O14   H9    S    
S2    O14   S    
C9    C33   A    
S5    O23   S    
O7    Zn1   S    
O8    Zn2   S    
C11   C20   A    
S5    O22   D    
O20   H11   S    
C1    O2    A    
C23   O5    A    
S1    O9    D    
O4    Zn2   S    
C28   N1    A    
C17   C21   A    
C25   S4    S    
C34   S6    S    
C2    C4    A    
S4    O18   D    
C29   C30   A    
C32   S5    S    
S7    O28   D    
O23   H12   S    
S8    O30   D    
O1    Zn1   S    
S3    O17   S    
C17   C18   A    
C10   C34   A    
C9    Br1   S    
C31   O8    A    
S4    O19   D    
C10   C12   S    
C26   C30   A    
C22   C27   A    
C13   C15   A    
C29   N1    A    
C22   C24   A    
C1    C13   S    
C25   N2    A    
S7    O29   S    
O2    Zn2   S    
S6    O26   S    
C36   S7    S    
C14   Br2   S    
C20   C21   A    
S5    O21   D    
C6    C7    A    
C35   Br5   S    
C2    C3    A    
C25   C26   A    
C21   S1    S    
C3    C10   A    
C20   H1    S    
S7    O27   D    
C11   C23   S    
C24   H4    S    
C30   H3    S    
O6    Zn2   S    
C8    C33   A    
O11   H8    S    
S4    O20   S    
S2    O12   D    
N1    Zn1   S    
C4    C5    A    
O26   H13   S    
N2    Zn2   S    
C13   C16   A    
C27   C28   A    
C15   S2    S    
C14   C15   A    
S3    O16   D    
C35   C36   A    
C22   S3    S    
C19   S8    S    
