data_mof_unit_35668.cif
_audit_creation_date              2012-12-11T15:14:45-0500
_audit_creation_method            fapswitch 2.2
_symmetry_space_group_name_H-M    P1
_symmetry_Int_Tables_number       1
_space_group_crystal_system       triclinic
_cell_length_a                    22.125358
_cell_length_b                    7.235633
_cell_length_c                    19.410765
_cell_angle_alpha                 90.000238
_cell_angle_beta                  99.077725
_cell_angle_gamma                 90.000302
_cell_volume                      3068.56759909

loop_
_atom_site_label
_atom_site_type_symbol
_atom_type_description
_atom_site_fract_x
_atom_site_fract_y
_atom_site_fract_z
_atom_type_partial_charge
O1    O     O_R   0.448470 0.506130 0.415700 -0.531540
O2    O     O_R   0.551530 0.006130 0.584300 -0.531540
O3    O     O_R   0.436320 0.174490 0.555800 -0.536832
O4    O     O_R   0.563680 0.674490 0.444200 -0.536830
C1    C     C_R   0.421727 0.344086 0.575858 0.710343
C2    C     C_R   0.578273 0.844086 0.424142 0.710343
O5    O     O_R   0.441350 0.176340 0.414480 -0.533650
O6    O     O_R   0.558650 0.676340 0.585520 -0.533650
O7    O     O_R   0.556600 0.007100 0.441970 -0.533196
O8    O     O_R   0.443400 0.507100 0.558030 -0.533195
C3    C     C_R   0.427086 0.344656 0.389255 0.672044
C4    C     C_R   0.572914 0.844657 0.610745 0.672045
O9    O     O_3   0.537810 0.339550 0.509190 -0.372196
O10   O     O_3   0.462190 0.839550 0.490810 -0.372198
V1    V     V_3+5 0.492990 0.064280 0.498300 1.411297
V2    V     V_3+5 0.507010 0.564280 0.501700 1.411298
C5    C     C_R   0.870136 0.995582 0.696003 -0.192529
C6    C     C_R   0.129869 0.495666 0.303993 -0.192525
H1    H     H_    0.889916 0.030813 0.650259 0.111723
H2    H     H_    0.110092 0.530944 0.349735 0.111723
C7    C     C_R   0.887078 0.943971 0.820666 -0.067150
C8    C     C_R   0.112921 0.443981 0.179335 -0.067161
C9    C     C_R   0.591182 0.808660 0.738181 -0.152702
C10   C     C_R   0.408815 0.308622 0.261821 -0.152700
C11   C     C_R   0.628516 0.803913 0.802746 -0.120502
C12   C     C_R   0.371480 0.303858 0.197257 -0.120502
C13   C     C_R   0.691047 0.838567 0.808481 -0.145908
C14   C     C_R   0.308949 0.338522 0.191522 -0.145909
C15   C     C_R   0.718395 0.879983 0.749030 0.083881
C16   C     C_R   0.281603 0.379963 0.250972 0.083880
C17   C     C_R   0.679507 0.887178 0.682883 0.017959
C18   C     C_R   0.320493 0.387178 0.317117 0.017959
C19   C     C_R   0.782809 0.914095 0.753313 0.054233
C20   C     C_R   0.217190 0.414091 0.246689 0.054232
C21   C     C_R   0.806818 0.958565 0.691377 0.041039
C22   C     C_R   0.193184 0.458606 0.308622 0.041040
C23   C     C_R   0.767632 0.965659 0.625849 0.128094
C24   C     C_R   0.232371 0.465705 0.374150 0.128092
C25   C     C_R   0.704885 0.928858 0.622993 -0.189040
C26   C     C_R   0.295117 0.428885 0.377006 -0.189042
C27   C     C_R   0.824371 0.906307 0.817355 -0.234554
C28   C     C_R   0.175626 0.406277 0.182648 -0.234555
C29   C     C_R   0.910129 0.989365 0.759363 0.142612
C30   C     C_R   0.089875 0.489442 0.240634 0.142607
C31   C     C_R   0.615532 0.850423 0.677870 -0.069215
C32   C     C_R   0.384467 0.350414 0.322130 -0.069218
H3    H     H_    0.809546 0.873851 0.866181 0.102314
H4    H     H_    0.190449 0.373771 0.133825 0.102321
H5    H     H_    0.542797 0.779207 0.735174 0.109447
H6    H     H_    0.457199 0.279160 0.264828 0.109452
H7    H     H_    0.716481 0.831850 0.860451 0.106428
H8    H     H_    0.283514 0.331795 0.139552 0.106428
H9    H     H_    0.608820 0.772020 0.848991 0.121935
H10   H     H_    0.391174 0.271946 0.151012 0.121935
H11   H     H_    0.674878 0.933192 0.573512 0.126055
H12   H     H_    0.325124 0.433230 0.426486 0.126060
C33   C     C_3   0.776069 0.852244 0.311682 -0.225985
C34   C     C_3   0.223931 0.352250 0.688316 -0.225985
C35   C     C_3   0.787976 0.031120 0.271145 -0.234253
C36   C     C_3   0.212023 0.531125 0.728853 -0.234245
H13   H     H_    0.820206 0.143875 0.290659 0.108563
H14   H     H_    0.179793 0.643878 0.709338 0.108567
H15   H     H_    0.799370 0.813356 0.364553 0.130475
H16   H     H_    0.200631 0.313362 0.635445 0.130476
C37   C     C_1   0.874514 0.940747 0.120161 -0.186492
C38   C     C_1   0.125485 0.440748 0.879838 -0.186481
C39   C     C_1   0.622972 0.852420 0.376898 -0.200457
C40   C     C_1   0.377027 0.352421 0.623101 -0.200449
C41   C     C_3   0.778330 0.735589 0.244980 -0.107919
C42   C     C_3   0.221669 0.235595 0.755018 -0.107920
C43   C     C_3   0.789321 0.913638 0.205038 0.123974
C44   C     C_3   0.210677 0.413644 0.794960 0.123967
C45   C     C_3   0.708137 0.760528 0.223235 -0.193672
C46   C     C_3   0.291861 0.260538 0.776763 -0.193668
C47   C     C_3   0.706257 0.876643 0.289480 0.089266
C48   C     C_3   0.293743 0.376652 0.710519 0.089256
C49   C     C_3   0.719717 0.938726 0.182537 -0.163781
C50   C     C_3   0.280281 0.438735 0.817461 -0.163774
C51   C     C_3   0.718227 0.051805 0.249511 0.490129
C52   C     C_3   0.281771 0.551814 0.750488 0.490127
C53   C     C_1   0.835954 0.929941 0.158196 -0.042595
C54   C     C_1   0.164044 0.429944 0.841801 -0.042593
C55   C     C_1   0.660288 0.861411 0.337259 -0.034462
C56   C     C_1   0.339711 0.361415 0.662740 -0.034475
H17   H     H_    0.696463 0.977233 0.129578 0.122064
H18   H     H_    0.303534 0.477244 0.870421 0.122065
H19   H     H_    0.675589 0.648869 0.203432 0.153032
H20   H     H_    0.324410 0.148883 0.796567 0.153034
H21   H     H_    0.803717 0.603815 0.243030 0.116690
H22   H     H_    0.196283 0.103820 0.756966 0.116694
O11   O     O_R   0.056650 0.288730 0.942060 -0.530206
O12   O     O_R   0.943350 0.788730 0.057940 -0.530205
O13   O     O_R   0.058660 0.616870 0.085540 -0.532733
O14   O     O_R   0.941340 0.116870 0.914460 -0.532734
C57   C     C_R   0.072632 0.448911 0.110913 0.685175
C58   C     C_R   0.927367 0.948909 0.889087 0.685180
O15   O     O_R   0.063700 0.618520 0.944220 -0.535837
O16   O     O_R   0.936300 0.118520 0.055780 -0.535837
O17   O     O_R   0.948460 0.787610 0.915680 -0.537414
O18   O     O_R   0.051540 0.287610 0.084320 -0.537413
C59   C     C_R   0.079020 0.450108 0.924859 0.712562
C60   C     C_R   0.920979 0.950108 0.075140 0.712571
O19   O     O_3   0.962230 0.453430 0.990860 -0.373324
O20   O     O_3   0.037770 0.953430 0.009140 -0.373325
V3    V     V_3+5 0.007010 0.728750 0.001700 1.411788
V4    V     V_3+5 0.992990 0.228750 0.998300 1.411788
C61   C     C_3   0.977325 0.030911 0.759263 -0.367475
C62   C     C_3   0.988162 0.238408 0.753927 -0.728607
H23   H     H_    0.962173 0.294261 0.704701 0.215685
H24   H     H_    0.973671 0.311533 0.798916 0.233694
H25   H     H_    0.037641 0.264890 0.754241 0.212104
H26   H     H_    0.006605 0.977386 0.806791 0.172719
H27   H     H_    0.992903 0.959868 0.714398 0.168276
C63   C     C_3   0.022684 0.531058 0.240731 -0.367465
C64   C     C_3   0.011871 0.738569 0.246057 -0.728580
H28   H     H_    0.037857 0.794405 0.295287 0.215677
H29   H     H_    0.026381 0.811665 0.201073 0.233698
H30   H     H_    0.962393 0.765109 0.245729 0.212096
H31   H     H_    0.993399 0.477541 0.193205 0.172719
H32   H     H_    0.007098 0.460054 0.285599 0.168269
O21   O     O_3   0.684010 0.216692 0.248332 -0.559254
C65   C     C_3   0.694869 0.304882 0.314117 0.060845
H33   H     H_    0.727165 0.421241 0.311920 0.136382
H34   H     H_    0.714698 0.213330 0.357928 0.111489
C66   C     C_3   0.634773 0.379948 0.331155 -0.660499
H35   H     H_    0.601791 0.265126 0.333150 0.219180
H36   H     H_    0.642943 0.449272 0.382784 0.184642
H37   H     H_    0.614815 0.480803 0.290782 0.215118
O22   O     O_3   0.315987 0.716706 0.751671 -0.559256
C67   C     C_3   0.305138 0.804884 0.685883 0.060848
H38   H     H_    0.272841 0.921245 0.688071 0.136382
H39   H     H_    0.285313 0.713325 0.642073 0.111491
C68   C     C_3   0.365238 0.879942 0.668855 -0.660506
H40   H     H_    0.398225 0.765122 0.666884 0.219181
H41   H     H_    0.357079 0.949226 0.617217 0.184650
H42   H     H_    0.385185 0.980831 0.709221 0.215109
C69   C     C_3   0.793869 0.012978 0.559677 -0.355003
C70   C     C_3   0.749251 0.011729 0.491192 -0.786592
H43   H     H_    0.729261 0.871759 0.481123 0.227828
H44   H     H_    0.712623 0.116370 0.491985 0.230663
H45   H     H_    0.774653 0.047070 0.448097 0.210057
H46   H     H_    0.814597 0.153154 0.565775 0.179501
H47   H     H_    0.830442 0.911570 0.553724 0.174248
C71   C     C_3   0.206135 0.513046 0.440321 -0.355002
C72   C     C_3   0.250751 0.511763 0.508808 -0.786597
H48   H     H_    0.270734 0.371783 0.518872 0.227831
H49   H     H_    0.287385 0.616389 0.508020 0.230660
H50   H     H_    0.225349 0.547104 0.551903 0.210056
H51   H     H_    0.185419 0.653237 0.434224 0.179500
H52   H     H_    0.169554 0.411666 0.446271 0.174250

loop_
_geom_bond_atom_site_label_1
_geom_bond_atom_site_label_2
_ccdc_geom_bond_type
C24   C26   A    
C69   H46   S    
C39   C55   T    
C9    C31   A    
C13   C15   A    
C61   H26   S    
O1    C3    A    
O2    C4    A    
C48   C56   S    
C2    O7    A    
C72   H48   S    
C34   C48   S    
C8    C28   A    
C12   C14   A    
O5    C3    A    
C51   O21   S    
C46   C48   S    
C21   C23   A    
C10   C12   A    
C50   C52   S    
C33   C35   S    
C36   C44   S    
C34   C36   S    
C64   H28   S    
C58   O17   A    
C15   C19   A    
C62   H23   S    
C36   H14   S    
C8    C57   S    
C41   C43   S    
C61   H27   S    
C71   H52   S    
O13   V3    S    
C7    C29   A    
C25   H11   S    
C17   C25   A    
C14   C16   A    
C26   H12   S    
C20   C28   A    
C42   C46   S    
C66   H37   S    
C44   C50   S    
C61   C62   S    
C41   C45   S    
C20   C22   A    
C63   H31   S    
O12   C60   A    
O15   V3    S    
C50   H18   S    
O6    V2    S    
O5    V1    S    
C69   H47   S    
C49   H17   S    
O13   C57   A    
C23   C69   S    
C34   H16   S    
C45   C47   S    
C38   C59   S    
C42   H22   S    
C24   C71   S    
C37   C60   S    
O11   C59   A    
C1    C40   S    
C41   H21   S    
C12   H10   S    
O20   V3    S    
C72   H49   S    
C13   H7    S    
C33   H15   S    
C49   C51   S    
C10   H6    S    
O17   V3    S    
C8    C30   A    
C35   H13   S    
C46   H20   S    
C16   C20   A    
C40   C56   T    
O4    C2    A    
C35   C51   S    
C57   O18   A    
C34   C42   S    
C28   H4    S    
C64   H29   S    
O16   C60   A    
O4    V2    S    
C67   H39   S    
C5    C29   A    
O14   V4    S    
C71   H51   S    
C6    C30   A    
C38   C54   T    
C37   C53   T    
O6    C4    A    
C64   H30   S    
C27   H3    S    
O1    V2    S    
C29   C61   S    
O14   C58   A    
O2    V1    S    
O21   C65   S    
C70   H44   S    
C68   H42   S    
C7    C27   A    
C2    C39   S    
C17   C31   A    
C68   H40   S    
C67   C68   S    
C65   H34   S    
C45   H19   S    
C43   C49   S    
C72   H50   S    
O3    V1    S    
C68   H41   S    
O22   C67   S    
C63   H32   S    
C36   C52   S    
C52   O22   S    
C18   C32   A    
C48   C52   S    
C11   H9    S    
C4    C31   S    
O3    C1    A    
C70   H45   S    
C63   C64   S    
C7    C58   S    
C11   C13   A    
C69   C70   S    
O18   V4    S    
O16   V4    S    
C62   H25   S    
C71   C72   S    
C19   C27   A    
C33   C47   S    
C65   C66   S    
O11   V4    S    
C67   H38   S    
O7    V1    S    
C10   C32   A    
C1    O8    A    
C15   C17   A    
O8    V2    S    
C16   C18   A    
C14   H8    S    
C47   C55   S    
C66   H35   S    
C6    C22   A    
C22   C24   A    
C19   C21   A    
C62   H24   S    
O19   V4    S    
C6    H2    S    
C18   C26   A    
C44   C54   S    
C9    H5    S    
C70   H43   S    
C30   C63   S    
C5    H1    S    
O12   V3    S    
C9    C11   A    
C23   C25   A    
C46   C50   S    
O9    V2    S    
C66   H36   S    
C45   C49   S    
O10   V1    S    
C3    C32   S    
C42   C44   S    
C5    C21   A    
C33   C41   S    
C65   H33   S    
C47   C51   S    
O15   C59   A    
C35   C43   S    
C43   C53   S    
