data_mof_unit_6480.cif
_audit_creation_date              2012-10-26T19:59:30-0400
_audit_creation_method            fapswitch 2.2
_symmetry_space_group_name_H-M    P1
_symmetry_Int_Tables_number       1
_space_group_crystal_system       triclinic
_cell_length_a                    10.755069
_cell_length_b                    8.686873
_cell_length_c                    7.487962
_cell_angle_alpha                 103.17807
_cell_angle_beta                  94.625237
_cell_angle_gamma                 92.954298
_cell_volume                      677.179265385

loop_
_atom_site_label
_atom_site_type_symbol
_atom_type_description
_atom_site_fract_x
_atom_site_fract_y
_atom_site_fract_z
_atom_type_partial_charge
C1    C     C_R   0.495939 0.199726 0.453087 0.570543
C2    C     C_R   0.503708 0.800252 0.546913 0.514990
C3    C     C_R   0.737419 0.508526 0.499779 0.517684
C4    C     C_R   0.154292 0.756836 0.767233 -0.052655
C5    C     C_R   0.100670 0.871924 0.893791 0.261522
C6    C     C_R   0.971326 0.876074 0.886855 -0.088085
C7    C     C_R   0.895048 0.763689 0.755656 -0.146880
C8    C     C_R   0.947129 0.640856 0.631938 0.017573
C9    C     C_R   0.078665 0.638049 0.636736 -0.011263
C10   C     C_R   0.129924 0.518752 0.506920 0.015019
C11   C     C_R   0.052923 0.409904 0.371964 -0.115862
C12   C     C_R   0.924925 0.411796 0.368533 -0.143485
C13   C     C_R   0.871679 0.523002 0.499684 0.015724
C14   C     C_2   0.493670 0.031515 0.427067 -0.121385
C15   C     C_2   0.505362 0.968394 0.572951 -0.137472
C16   C     C_R   0.263102 0.506491 0.502732 0.551879
Cl1   Cl    Cl    0.196329 0.012207 0.061008 -0.587959
Cl2   Cl    Cl    0.350865 0.321502 0.907718 -0.386659
Cu1   Cu    Cu3+1 0.513920 0.517380 0.684380 1.041358
Cu2   Cu    Cu3+1 0.486080 0.482620 0.315620 1.089860
H1    H     H_    0.092232 0.320127 0.271050 0.195905
H2    H     H_    0.599516 0.621371 0.051027 0.196683
H3    H     H_    0.254993 0.763991 0.772198 0.170924
H4    H     H_    0.929555 0.967599 0.982137 0.136769
H5    H     H_    0.795502 0.776274 0.751130 0.137559
H6    H     H_    0.867054 0.322579 0.266453 0.134106
H7    H     H_    0.482524 0.959324 0.286757 0.160018
H8    H     H_    0.516468 0.040530 0.713255 0.168590
N1    N     N_2   0.465100 0.456430 0.038520 0.047360
N2    N     N_2   0.534900 0.543570 0.961480 -0.213248
O1    O     O_R   0.509050 0.286130 0.619770 -0.461257
O2    O     O_R   0.485540 0.256780 0.308360 -0.455625
O3    O     O_R   0.331410 0.514680 0.655740 -0.461636
O4    O     O_R   0.307900 0.485330 0.344330 -0.460013
O5    O     O_R   0.514460 0.743220 0.691640 -0.523729
O6    O     O_R   0.490950 0.713870 0.380230 -0.523563
O7    O     O_R   0.692100 0.514670 0.655670 -0.518411
O8    O     O_R   0.668590 0.485320 0.344260 -0.534876

loop_
_geom_bond_atom_site_label_1
_geom_bond_atom_site_label_2
_ccdc_geom_bond_type
C2    O5    A    
C11   C12   A    
C6    C7    A    
Cu1   O7    S    
C14   H7    S    
Cu2   O8    S    
C9    C10   A    
Cu1   Cu2   S    
C7    H5    S    
Cu1   O1    S    
C6    H4    S    
C7    C8    A    
Cl2   N1    S    
Cu1   O5    S    
C2    C15   S    
C15   H8    S    
N1    N2    D    
Cu2   N1    S    
Cu1   O3    S    
C5    C6    A    
C16   O3    A    
C5    Cl1   S    
C10   C11   A    
Cu2   O4    S    
Cu2   O6    S    
C8    C13   A    
C1    O1    A    
C12   C13   A    
C3    O7    A    
Cu2   O2    S    
C2    O6    A    
C4    H3    S    
C14   C15   D    
C8    C9    A    
C10   C16   S    
C1    C14   S    
H2    N2    S    
C16   O4    A    
C4    C9    A    
Cu1   N2    S    
C11   H1    S    
C1    O2    A    
C3    O8    A    
C12   H6    S    
C4    C5    A    
C3    C13   S    
