data_mof_unit_10452.cif
_audit_creation_date              2012-12-10T17:48:47-0500
_audit_creation_method            fapswitch 2.2
_symmetry_space_group_name_H-M    P1
_symmetry_Int_Tables_number       1
_space_group_crystal_system       triclinic
_cell_length_a                    15.737443
_cell_length_b                    10.72961
_cell_length_c                    9.891574
_cell_angle_alpha                 89.334149
_cell_angle_beta                  89.961333
_cell_angle_gamma                 91.687483
_cell_volume                      1669.41984533

loop_
_atom_site_label
_atom_site_type_symbol
_atom_type_description
_atom_site_fract_x
_atom_site_fract_y
_atom_site_fract_z
_atom_type_partial_charge
Br1   Br    Br    0.912469 0.726846 0.326148 -0.568704
C1    C     C_R   0.505259 0.259883 0.501860 0.860826
C2    C     C_R   0.489610 0.045172 0.878330 -0.141149
C3    C     C_R   0.444762 0.932268 0.868403 -0.156411
C4    C     C_R   0.338330 0.499587 0.500104 0.884868
C5    C     C_R   0.435183 0.876495 0.742657 -0.155604
C6    C     C_R   0.470369 0.934199 0.624788 0.097543
C7    C     C_R   0.499301 0.058287 0.631416 0.096724
C8    C     C_R   0.508684 0.125914 0.507332 -0.119832
C9    C     C_R   0.507559 0.064218 0.383618 -0.216463
C10   C     C_R   0.496857 0.937330 0.380997 -0.209081
C11   C     C_R   0.480799 0.871436 0.501113 -0.130164
C12   C     C_3   0.949480 0.444656 0.632672 -0.466019
C13   C     C_R   0.388477 0.336182 0.142170 -0.161136
C14   C     C_R   0.333683 0.255572 0.072733 -0.212023
C15   C     C_R   0.333587 0.255928 0.932855 -0.183552
C16   C     C_R   0.491468 0.738930 0.499830 0.887472
C17   C     C_R   0.388487 0.336607 0.861634 -0.152656
C18   C     C_R   0.445117 0.419278 0.928610 0.148978
C19   C     C_R   0.445132 0.419213 0.073335 0.166227
C20   C     C_R   0.552192 0.577690 0.070521 -0.116917
C21   C     C_R   0.552164 0.577662 0.927269 -0.113353
C22   C     C_R   0.661680 0.500277 0.499898 0.919091
C23   C     C_3   0.917527 0.502402 0.498346 0.275853
C24   C     C_3   0.047540 0.444171 0.633362 -0.397942
C25   C     C_3   0.047748 0.423702 0.379545 -0.390987
C26   C     C_3   0.949679 0.423115 0.379784 -0.366316
C27   C     C_1   0.750626 0.500713 0.499701 -0.151239
C28   C     C_3   0.082703 0.501168 0.499429 0.304349
C29   C     C_3   0.954399 0.638283 0.485581 0.131715
C30   C     C_3   0.052719 0.636770 0.484440 -0.414123
C31   C     C_1   0.825984 0.501382 0.499198 -0.056530
C32   C     C_1   0.174116 0.500235 0.499959 -0.103528
C33   C     C_1   0.249432 0.499766 0.500162 -0.181228
C34   C     C_R   0.517073 0.107944 0.761256 -0.160979
H1    H     H_    0.923680 0.347445 0.645156 0.191400
H2    H     H_    0.594771 0.641152 0.123599 0.158815
H3    H     H_    0.068991 0.346790 0.646269 0.179891
H4    H     H_    0.384207 0.330645 0.249355 0.206856
H5    H     H_    0.290967 0.192526 0.127990 0.152952
H6    H     H_    0.291031 0.192864 0.878993 0.153335
H7    H     H_    0.385069 0.330627 0.754523 0.208032
H8    H     H_    0.594690 0.641156 0.872442 0.160006
H9    H     H_    0.072050 0.463862 0.282175 0.184721
H10   H     H_    0.069716 0.326176 0.387211 0.172295
H11   H     H_    0.924508 0.325396 0.390195 0.171313
H12   H     H_    0.072166 0.498663 0.720844 0.178244
H13   H     H_    0.926447 0.459854 0.281358 0.210874
H14   H     H_    0.078130 0.694332 0.569061 0.152510
H15   H     H_    0.078511 0.678936 0.389068 0.208419
H16   H     H_    0.933641 0.692338 0.574530 0.128949
H17   H     H_    0.926791 0.498978 0.720171 0.179509
H18   H     H_    0.516064 0.113666 0.288166 0.172567
H19   H     H_    0.554531 0.192622 0.775418 0.171996
H20   H     H_    0.501633 0.085562 0.976546 0.144660
H21   H     H_    0.419905 0.885888 0.958462 0.139965
H22   H     H_    0.399870 0.788580 0.738672 0.160609
H23   H     H_    0.502664 0.890924 0.284834 0.170754
N1    N     N_R   0.499210 0.498800 0.142780 -0.123375
N2    N     N_R   0.499180 0.498720 0.857170 -0.127761
O1    O     O_R   0.500000 0.316780 0.614690 -0.655061
O2    O     O_R   0.499990 0.316750 0.385360 -0.640482
O3    O     O_R   0.377150 0.500020 0.614720 -0.639167
O4    O     O_R   0.377140 0.499990 0.385380 -0.631210
O5    O     O_R   0.500010 0.683250 0.614640 -0.623214
O6    O     O_R   0.500000 0.683220 0.385310 -0.618442
O7    O     O_R   0.622860 0.500010 0.614620 -0.615610
O8    O     O_R   0.622850 0.499980 0.385280 -0.600456
Zn1   Zn    Zn3+2 0.500010 0.500020 0.653130 0.926407
Zn2   Zn    Zn3+2 0.499990 0.499980 0.346870 0.941988

loop_
_geom_bond_atom_site_label_1
_geom_bond_atom_site_label_2
_ccdc_geom_bond_type
C11   C16   S    
C26   H13   S    
C29   H16   S    
C23   C31   S    
C14   H5    S    
C5    C6    A    
O4    Zn2   S    
C24   H3    S    
C10   H23   S    
C8    C9    A    
C24   H12   S    
C16   O5    A    
C18   C19   A    
C1    O1    A    
C2    C34   A    
C10   C11   A    
C23   C26   S    
C4    C33   S    
C32   C33   T    
C25   C26   S    
C4    O4    A    
C25   H9    S    
C6    C7    A    
C28   C30   S    
C22   C27   S    
C3    H21   S    
C34   H19   S    
C21   N2    A    
C12   H1    S    
C5    H22   S    
C12   C24   S    
C16   O6    A    
O6    Zn2   S    
C2    H20   S    
N2    Zn1   S    
C30   H14   S    
O5    Zn1   S    
C26   H11   S    
O8    Zn2   S    
Br1   C29   S    
C22   O8    A    
C20   N1    A    
C17   H7    S    
C24   C28   S    
C29   C30   S    
C18   N2    A    
C23   C29   S    
C6    C11   A    
C3    C5    A    
C9    C10   A    
C30   H15   S    
O1    Zn1   S    
C14   C15   A    
C12   H17   S    
C28   C32   S    
C4    O3    A    
C27   C31   T    
C20   H2    S    
O2    Zn2   S    
C25   C28   S    
C15   C17   A    
C17   C18   A    
C13   C19   A    
C22   O7    A    
C9    H18   S    
C13   C14   A    
N1    Zn2   S    
C25   H10   S    
O7    Zn1   S    
C13   H4    S    
C20   C21   A    
C1    C8    S    
C1    O2    A    
C15   H6    S    
C21   H8    S    
C2    C3    A    
O3    Zn1   S    
C12   C23   S    
C7    C8    A    
C19   N1    A    
C7    C34   A    
