data_mof_unit_7278.cif
_audit_creation_date              2012-12-11T14:58:25-0500
_audit_creation_method            fapswitch 2.2
_symmetry_space_group_name_H-M    P1
_symmetry_Int_Tables_number       1
_space_group_crystal_system       triclinic
_cell_length_a                    10.879798
_cell_length_b                    10.90377
_cell_length_c                    18.758152
_cell_angle_alpha                 90.072301
_cell_angle_beta                  90.32071
_cell_angle_gamma                 60.3393
_cell_volume                      1933.68383405

loop_
_atom_site_label
_atom_site_type_symbol
_atom_type_description
_atom_site_fract_x
_atom_site_fract_y
_atom_site_fract_z
_atom_type_partial_charge
C1    C     C_R   0.357986 0.774998 0.397692 0.543528
C2    C     C_R   0.616118 0.128416 0.164144 0.054738
C3    C     C_R   0.359043 0.332047 0.162267 -0.008167
C4    C     C_R   0.483481 0.244657 0.273162 -0.144787
C5    C     C_R   0.484882 0.239132 0.199458 -0.030671
C6    C     C_R   0.060750 0.703983 0.283798 0.320377
C7    C     C_R   0.943338 0.814381 0.317098 -0.063995
C8    C     C_R   0.682550 0.987934 0.188707 -0.114040
C9    C     C_R   0.797189 0.881379 0.151977 -0.098827
C10   C     C_R   0.243658 0.438351 0.199311 -0.082936
C11   C     C_R   0.243709 0.446749 0.273357 0.014679
C12   C     C_R   0.386695 0.355408 0.387203 0.531744
C13   C     C_R   0.879473 0.786794 0.374410 0.329133
C14   C     C_R   0.932685 0.648498 0.398463 -0.079727
C15   C     C_R   0.048529 0.537295 0.364647 -0.163359
C16   C     C_R   0.116108 0.563900 0.307904 0.032635
C17   C     C_R   0.364546 0.344475 0.311079 -0.000953
C18   C     C_R   0.905551 0.317466 0.307949 0.366353
C19   C     C_R   0.951091 0.299630 0.238102 -0.115119
C20   C     C_R   0.852922 0.341714 0.182322 -0.017246
C21   C     C_R   0.707763 0.412225 0.195996 -0.153653
C22   C     C_R   0.661371 0.436006 0.266321 -0.215095
C23   C     C_R   0.712469 0.416064 0.394723 0.574331
C24   C     C_R   0.760575 0.387827 0.322051 0.039241
C25   C     C_R   0.455067 0.824906 0.288690 -0.132514
C26   C     C_R   0.435414 0.866986 0.217341 -0.135928
C27   C     C_R   0.298725 0.935182 0.188219 0.029247
C28   C     C_R   0.182249 0.969112 0.231995 -0.066809
C29   C     C_R   0.201323 0.930399 0.303104 -0.032928
C30   C     C_R   0.337853 0.851120 0.330823 0.044875
C31   C     C_R   0.464539 0.284920 0.717315 -0.085445
C32   C     C_R   0.447005 0.283435 0.789573 0.360442
C33   C     C_R   0.311091 0.335393 0.816687 0.025607
C34   C     C_R   0.345298 0.766352 0.605610 0.568767
C35   C     C_R   0.191734 0.402056 0.771843 -0.177715
C36   C     C_R   0.209719 0.406653 0.698892 -0.122391
C37   C     C_R   0.346678 0.342267 0.671561 -0.023880
C38   C     C_R   0.740989 0.475045 0.731871 -0.156246
C39   C     C_R   0.752162 0.461074 0.804856 -0.187280
C40   C     C_R   0.814373 0.326941 0.835664 0.066935
C41   C     C_R   0.849041 0.207964 0.792633 0.428375
C42   C     C_R   0.834440 0.222992 0.718850 -0.101873
C43   C     C_R   0.785651 0.356029 0.688175 -0.051302
C44   C     C_R   0.212967 0.803473 0.717850 0.378556
C45   C     C_R   0.372661 0.351962 0.597345 0.546873
C46   C     C_R   0.208702 0.813511 0.791078 -0.052914
C47   C     C_R   0.308872 0.834529 0.827303 -0.037544
C48   C     C_R   0.419949 0.835744 0.789975 -0.161272
C49   C     C_R   0.425457 0.824667 0.716574 -0.202287
C50   C     C_R   0.322442 0.808362 0.679870 0.023310
C51   C     C_R   0.906575 0.317606 0.110680 0.525162
C52   C     C_R   0.329662 0.294973 0.091889 0.528323
C53   C     C_R   0.271698 0.963689 0.112041 0.554207
C54   C     C_R   0.878537 0.310135 0.905824 0.561840
C55   C     C_R   0.296556 0.291509 0.886799 0.582854
C56   C     C_R   0.757983 0.379740 0.612192 0.560440
C57   C     C_R   0.277684 0.890947 0.898818 0.565309
C58   C     C_R   0.847822 0.913728 0.090793 -0.069352
C59   C     C_R   0.783814 0.052736 0.066264 -0.068579
C60   C     C_R   0.670454 0.160201 0.103354 -0.053113
Cr1   Cr    Cr6+3 0.601770 0.606860 0.505860 1.046406
Cr2   Cr    Cr6+3 0.291380 0.601660 0.495070 1.075568
Cr3   Cr    Cr6+3 0.606880 0.291510 0.499120 1.108227
Cr4   Cr    Cr6+3 0.062440 0.063090 0.008210 1.041933
Cr5   Cr    Cr6+3 0.062880 0.375170 0.998920 1.013284
Cr6   Cr    Cr6+3 0.374700 0.061720 0.992470 1.055633
H1    H     H_    0.580295 0.172418 0.300909 0.173275
H2    H     H_    0.885363 0.627772 0.444042 0.179811
H3    H     H_    0.089233 0.431117 0.384517 0.203398
H4    H     H_    0.063145 0.252144 0.227276 0.115266
H5    H     H_    0.631434 0.449896 0.152756 0.130158
H6    H     H_    0.548963 0.492042 0.277340 0.127643
H7    H     H_    0.561943 0.762933 0.309145 0.143716
H8    H     H_    0.526719 0.837704 0.184080 0.134114
H9    H     H_    0.076031 0.019450 0.210101 0.148794
H10   H     H_    0.845693 0.773313 0.170521 0.130690
H11   H     H_    0.109770 0.953535 0.335032 0.161944
H12   H     H_    0.571005 0.241735 0.697180 0.162645
H13   H     H_    0.085815 0.442265 0.792464 0.155615
H14   H     H_    0.118228 0.456211 0.663944 0.162239
H15   H     H_    0.697346 0.580005 0.709703 0.160892
H16   H     H_    0.722590 0.554392 0.836831 0.145652
H17   H     H_    0.863251 0.131186 0.685844 0.177175
H18   H     H_    0.902241 0.921747 0.298611 0.140387
H19   H     H_    0.122339 0.812311 0.818932 0.205992
H20   H     H_    0.498790 0.852318 0.817002 0.166320
H21   H     H_    0.935855 0.830943 0.062054 0.132257
H22   H     H_    0.821104 0.076987 0.017953 0.165657
H23   H     H_    0.643688 0.959955 0.235384 0.121349
H24   H     H_    0.147614 0.510099 0.170790 0.176583
O1    O     O_R   0.748800 0.497470 0.428000 -0.498703
O2    O     O_R   0.300070 0.471040 0.567100 -0.480383
O3    O     O_R   0.491670 0.258900 0.574910 -0.506910
O4    O     O_R   0.718780 0.304180 0.577850 -0.492876
O5    O     O_3   0.500010 0.500010 0.500020 -0.307592
O6    O     O_R   0.186690 0.923650 0.086970 -0.488869
O7    O     O_R   0.957250 0.194250 0.084630 -0.540332
O8    O     O_R   0.934970 0.407490 0.085330 -0.513126
O9    O     O_R   0.203780 0.365190 0.067090 -0.513142
O10   O     O_R   0.417600 0.174890 0.067840 -0.510059
O11   O     O_R   0.375320 0.946260 0.070860 -0.503663
O12   O     O_R   0.476420 0.724060 0.429470 -0.514986
O13   O     O_R   0.160600 0.919630 0.926660 -0.484088
O14   O     O_R   0.933060 0.190520 0.936020 -0.449645
O15   O     O_R   0.908880 0.403460 0.925020 -0.536601
O16   O     O_R   0.179600 0.361450 0.918490 -0.516728
O17   O     O_R   0.391510 0.170860 0.907530 -0.447140
O18   O     O_R   0.351130 0.942530 0.922260 -0.503437
O19   O     O_3   0.166667 0.166667 0.999870 -0.283582
O20   O     O_R   0.264580 0.744340 0.416750 -0.509450
O21   O     O_R   0.309380 0.472470 0.418200 -0.511932
O22   O     O_R   0.501710 0.260430 0.414300 -0.487675
O23   O     O_R   0.728090 0.305600 0.428960 -0.450805
O24   O     O_R   0.738760 0.495930 0.588610 -0.513194
O25   O     O_R   0.467110 0.722640 0.578360 -0.519529
O26   O     O_R   0.254530 0.742800 0.577360 -0.426399
F1    F     F_    0.766449 0.894304 0.406940 -0.630762
F2    F     F_    0.002038 0.265986 0.361733 -0.649891
F3    F     F_    0.562989 0.224139 0.832650 -0.610291
F4    F     F_    0.904750 0.076725 0.821079 -0.598485
F5    F     F_    0.110683 0.786593 0.685018 -0.604177
H25   H     H_    0.511341 0.826776 0.688707 0.152674
H26   H     H_    0.620993 0.266956 0.082844 0.102973
F6    F     F_    0.121221 0.734025 0.228467 -0.663742

loop_
_geom_bond_atom_site_label_1
_geom_bond_atom_site_label_2
_ccdc_geom_bond_type
C33   C55   S    
Cr4   O13   S    
C51   O7    A    
C23   O1    A    
C41   C42   A    
C35   C36   A    
C6    F6    S    
Cr6   O17   S    
C45   O3    A    
C58   H21   S    
C56   O4    A    
Cr3   O4    S    
C26   C27   A    
C21   H5    S    
C18   C24   A    
C54   O14   A    
C28   C29   A    
Cr5   O8    S    
C18   C19   A    
C20   C51   S    
C38   C39   A    
C2    C60   A    
C47   C57   S    
Cr6   O10   S    
C15   C16   A    
Cr3   O5    S    
C44   F5    S    
C9    C58   A    
C22   H6    S    
Cr3   O22   S    
C45   O2    A    
C59   H22   S    
C26   H8    S    
C11   C17   A    
Cr2   O21   S    
C19   C20   A    
C53   O11   A    
C8    C9    A    
Cr2   O2    S    
C12   C17   S    
Cr1   O25   S    
C23   C24   S    
C9    H10   S    
C18   F2    S    
C46   H19   S    
C51   O8    A    
C7    H18   S    
C59   C60   A    
C41   F4    S    
C13   C14   A    
C53   O6    A    
Cr6   O11   S    
C15   H3    S    
Cr5   O15   S    
C44   C46   A    
C57   O13   A    
C34   C50   S    
C55   O16   A    
Cr5   O9    S    
Cr2   O5    S    
C36   H14   S    
C39   C40   A    
C48   H20   S    
C34   O25   A    
C52   O10   A    
C31   C37   A    
C55   O17   A    
C60   H26   S    
Cr2   O26   S    
C29   C30   A    
C1    O20   A    
C23   O23   A    
C11   C16   S    
C47   C48   A    
Cr2   O20   S    
Cr4   O7    S    
Cr1   O5    S    
Cr5   O19   S    
C4    C17   A    
C40   C41   A    
C40   C54   S    
C38   H15   S    
C22   C24   A    
C58   C59   A    
C2    C5    S    
C42   C43   A    
C32   F3    S    
C37   C45   S    
Cr5   O16   S    
C12   O22   A    
C31   H12   S    
C44   C50   A    
C25   C30   A    
Cr4   O14   S    
C46   C47   A    
C36   C37   A    
C14   H2    S    
C54   O15   A    
C31   C32   A    
C2    C8    A    
C42   H17   S    
C39   H16   S    
Cr6   O18   S    
C4    C5    A    
C3    C5    A    
C4    H1    S    
C13   F1    S    
C3    C52   S    
C27   C53   S    
C6    C7    A    
Cr3   O3    S    
C52   O9    A    
C32   C33   A    
Cr1   O12   S    
C25   C26   A    
C38   C43   A    
C3    C10   A    
Cr4   O19   S    
C48   C49   A    
C49   H25   S    
C35   H13   S    
C1    C30   S    
C33   C35   A    
Cr4   O6    S    
C25   H7    S    
Cr6   O19   S    
C10   C11   A    
C6    C16   A    
Cr3   O23   S    
C43   C56   S    
C7    C13   A    
C57   O18   A    
C29   H11   S    
C20   C21   A    
C10   H24   S    
C49   C50   A    
Cr1   O24   S    
C56   O24   A    
C14   C15   A    
C19   H4    S    
C8    H23   S    
C21   C22   A    
C28   H9    S    
C34   O26   A    
C1    O12   A    
C12   O21   A    
Cr1   O1    S    
C27   C28   A    
