data_mof_unit_52703.cif
_audit_creation_date              2012-12-11T14:01:32-0500
_audit_creation_method            fapswitch 2.2
_symmetry_space_group_name_H-M    P1
_symmetry_Int_Tables_number       1
_space_group_crystal_system       triclinic
_cell_length_a                    19.046439
_cell_length_b                    10.958429
_cell_length_c                    18.749119
_cell_angle_alpha                 89.678944
_cell_angle_beta                  89.797185
_cell_angle_gamma                 90.026669
_cell_volume                      3913.21188217

loop_
_atom_site_label
_atom_site_type_symbol
_atom_type_description
_atom_site_fract_x
_atom_site_fract_y
_atom_site_fract_z
_atom_type_partial_charge
C1    C     C_R   0.272391 0.042217 0.853498 0.557216
C2    C     C_R   0.022192 0.662508 0.959194 -0.127491
C3    C     C_R   0.507152 0.167666 0.031757 -0.126094
C4    C     C_R   0.522144 0.162521 0.959204 -0.127489
C5    C     C_2   0.248816 0.578910 0.920543 -0.111900
C6    C     C_2   0.751264 0.579768 0.079599 -0.111897
C7    C     C_2   0.748815 0.078908 0.920542 -0.111894
C8    C     C_2   0.251265 0.079767 0.079600 -0.111899
C9    C     C_2   0.250197 0.587086 0.076941 -0.106239
C10   C     C_2   0.749699 0.586354 0.922865 -0.106166
C11   C     C_2   0.750197 0.087084 0.076940 -0.106243
C12   C     C_R   0.727589 0.042588 0.146491 0.557967
C13   C     C_2   0.249700 0.086352 0.922866 -0.106167
C14   C     C_2   0.294835 0.520929 0.037299 -0.166037
C15   C     C_2   0.705612 0.519611 0.963273 -0.164431
C16   C     C_2   0.794832 0.020922 0.037297 -0.166038
C17   C     C_2   0.205613 0.019609 0.963274 -0.164429
C18   C     C_2   0.303480 0.544871 0.961045 -0.162467
C19   C     C_2   0.696772 0.544520 0.039333 -0.162609
C20   C     C_2   0.803477 0.044862 0.961044 -0.162467
C21   C     C_2   0.196773 0.044518 0.039334 -0.162610
C22   C     C_2   0.512644 0.840518 0.584531 -0.094162
C23   C     C_R   0.772391 0.542217 0.853498 0.557212
C24   C     C_2   0.513987 0.828651 0.428636 -0.104565
C25   C     C_2   0.012650 0.340499 0.584534 -0.094251
C26   C     C_2   0.013982 0.328655 0.428634 -0.104544
C27   C     C_2   0.547370 0.749985 0.472413 -0.165306
C28   C     C_2   0.533223 0.742900 0.548244 -0.168440
C29   C     C_2   0.047315 0.249924 0.472406 -0.165346
C30   C     C_2   0.033182 0.242860 0.548237 -0.168477
C31   C     C_2   0.247251 0.565254 0.583054 -0.062267
C32   C     C_2   0.752273 0.564358 0.417304 -0.061115
C33   C     C_2   0.747264 0.065270 0.583047 -0.062210
C34   C     C_R   0.227589 0.542589 0.146491 0.557969
C35   C     C_2   0.252271 0.064373 0.417307 -0.061095
C36   C     C_2   0.237510 0.568804 0.427804 -0.137510
C37   C     C_2   0.762931 0.569628 0.572048 -0.135208
C38   C     C_2   0.737506 0.068814 0.427804 -0.137473
C39   C     C_2   0.262930 0.069635 0.572048 -0.135225
C40   C     C_R   0.471152 0.821730 0.853356 0.540324
C41   C     C_R   0.528001 0.822841 0.147254 0.544964
C42   C     C_R   0.971151 0.321728 0.853357 0.540309
C43   C     C_R   0.028000 0.322842 0.147254 0.544960
C44   C     C_2   0.184024 0.543488 0.472708 -0.158431
C45   C     C_R   0.495881 0.060325 0.070427 -0.081625
C46   C     C_2   0.815935 0.541269 0.527324 -0.159605
C47   C     C_2   0.684017 0.043508 0.472710 -0.158400
C48   C     C_2   0.315951 0.041348 0.527325 -0.159526
C49   C     C_2   0.186257 0.574040 0.548531 0.230725
C50   C     C_2   0.813753 0.570341 0.451011 0.230853
C51   C     C_2   0.686260 0.074002 0.548542 0.230745
C52   C     C_2   0.313755 0.070349 0.451006 0.230797
C53   C     C_R   0.260833 0.635751 0.851341 0.553107
C54   C     C_R   0.739129 0.636212 0.148620 0.555055
C55   C     C_R   0.760833 0.135751 0.851341 0.553118
C56   C     C_R   0.521498 0.050685 0.924157 -0.088222
C57   C     C_R   0.239129 0.136212 0.148620 0.555063
C58   C     C_R   0.273704 0.043510 0.646594 0.553015
C59   C     C_R   0.726292 0.042966 0.353419 0.553913
C60   C     C_R   0.773701 0.543516 0.646597 0.553003
C61   C     C_R   0.226294 0.542966 0.353418 0.553910
C62   C     C_R   0.472466 0.824885 0.649406 0.554505
C63   C     C_R   0.531847 0.823132 0.353832 0.560430
C64   C     C_R   0.972468 0.324883 0.649408 0.554496
C65   C     C_R   0.031850 0.323132 0.353833 0.560426
C66   C     C_R   0.260032 0.633814 0.647523 0.573069
C67   C     C_R   0.995904 0.560337 0.070420 -0.081613
C68   C     C_R   0.739873 0.633508 0.352576 0.571835
C69   C     C_R   0.760033 0.133813 0.647524 0.573092
C70   C     C_R   0.239874 0.133504 0.352574 0.571820
C71   C     C_R   0.498090 0.833333 0.075721 -0.001100
C72   C     C_R   0.496950 0.828446 0.926541 0.003450
C73   C     C_R   0.998083 0.333333 0.075724 -0.001108
C74   C     C_R   0.996945 0.328439 0.926544 0.003453
C75   C     C_R   0.499823 0.945187 0.036862 0.025806
C76   C     C_R   0.506241 0.941475 0.961666 0.024374
C77   C     C_R   0.999831 0.445191 0.036861 0.025805
C78   C     C_R   0.021528 0.550667 0.924151 -0.088232
C79   C     C_R   0.006252 0.441468 0.961665 0.024367
C80   C     C_R   0.490892 0.720578 0.966610 -0.149951
C81   C     C_R   0.489720 0.723328 0.039512 -0.153955
C82   C     C_R   0.990868 0.220574 0.966617 -0.149935
C83   C     C_R   0.989696 0.223332 0.039519 -0.153954
C84   C     C_3   0.092080 0.704906 0.550180 0.001118
C85   C     C_3   0.035694 0.756819 0.598993 -0.364917
C86   C     C_3   0.914067 0.688122 0.448504 0.001665
C87   C     C_3   0.966386 0.744224 0.396295 -0.359806
C88   C     C_3   0.591970 0.204630 0.550304 0.001057
C89   C     C_R   0.007196 0.667669 0.031746 -0.126090
C90   C     C_3   0.535565 0.256316 0.599177 -0.364900
C91   C     C_3   0.414002 0.188253 0.448323 0.001668
C92   C     C_3   0.466551 0.243738 0.396131 -0.359848
Cr1   Cr    Cr6+3 0.230530 0.836340 0.748870 1.021700
Cr2   Cr    Cr6+3 0.614360 0.677860 0.250770 1.011532
Cr3   Cr    Cr6+3 0.885640 0.177860 0.749230 1.013298
Cr4   Cr    Cr6+3 0.114360 0.177860 0.250770 1.011524
Cr5   Cr    Cr6+3 0.769470 0.836340 0.251130 1.023903
Cr6   Cr    Cr6+3 0.730530 0.336340 0.748870 1.021678
Cr7   Cr    Cr6+3 0.269470 0.336340 0.251130 1.023873
Cr8   Cr    Cr6+3 0.387420 0.989430 0.750820 1.015177
Cr9   Cr    Cr6+3 0.612580 0.989430 0.249180 1.011451
Cr10  Cr    Cr6+3 0.887420 0.489430 0.750820 1.015245
Cr11  Cr    Cr6+3 0.112580 0.489430 0.249180 1.011494
Cr12  Cr    Cr6+3 0.385640 0.677860 0.749230 1.013302
H1    H     H_    0.483923 0.632355 0.941806 0.136658
H2    H     H_    0.713272 0.607212 0.554139 0.076796
H3    H     H_    0.787810 0.103757 0.445507 0.083974
H4    H     H_    0.213237 0.107125 0.554137 0.076778
H5    H     H_    0.292430 0.522224 0.558044 0.051788
H6    H     H_    0.706638 0.523718 0.443147 0.039820
H7    H     H_    0.792455 0.022315 0.558018 0.051793
H8    H     H_    0.206629 0.023776 0.443163 0.039789
H9    H     H_    0.482390 0.068936 0.126219 0.133392
H10   H     H_    0.534399 0.050453 0.867942 0.131421
H11   H     H_    0.982410 0.568961 0.126210 0.133399
H12   H     H_    0.486377 0.636712 0.067536 0.136976
H13   H     H_    0.034431 0.550419 0.867936 0.131419
H14   H     H_    0.005109 0.755021 0.058352 0.105869
H15   H     H_    0.033210 0.745602 0.929716 0.109498
H16   H     H_    0.505053 0.255012 0.058367 0.105866
H17   H     H_    0.533145 0.245623 0.929728 0.109484
H18   H     H_    0.324385 0.445668 0.060245 0.152821
H19   H     H_    0.676579 0.443456 0.941087 0.151850
H20   H     H_    0.824381 0.945658 0.060243 0.152823
H21   H     H_    0.176581 0.943453 0.941087 0.151849
H22   H     H_    0.356081 0.537896 0.938890 0.150327
H23   H     H_    0.983888 0.132349 0.941816 0.136655
H24   H     H_    0.644161 0.537075 0.061519 0.154411
H25   H     H_    0.856078 0.037879 0.938888 0.150318
H26   H     H_    0.144162 0.037071 0.061520 0.154414
H27   H     H_    0.222420 0.664433 0.053960 0.113032
H28   H     H_    0.777018 0.664421 0.945120 0.112941
H29   H     H_    0.722421 0.164433 0.053959 0.113031
H30   H     H_    0.277018 0.164420 0.945120 0.112940
H31   H     H_    0.196027 0.582023 0.942716 0.113979
H32   H     H_    0.804041 0.583463 0.057400 0.112256
H33   H     H_    0.696025 0.082027 0.942715 0.113976
H34   H     H_    0.986341 0.136720 0.067547 0.136973
H35   H     H_    0.304041 0.083463 0.057401 0.112259
H36   H     H_    0.582662 0.680899 0.451341 0.152181
H37   H     H_    0.533725 0.652682 0.572622 0.149736
H38   H     H_    0.082556 0.180772 0.451332 0.152209
H39   H     H_    0.033650 0.152634 0.572609 0.149758
H40   H     H_    0.478820 0.899226 0.447856 0.114488
H41   H     H_    0.516159 0.931502 0.561384 0.126964
H42   H     H_    0.978863 0.399289 0.447860 0.114398
H43   H     H_    0.016197 0.431486 0.561395 0.126934
H44   H     H_    0.066793 0.672701 0.500536 0.115704
H45   H     H_    0.134650 0.508027 0.452466 0.151786
H46   H     H_    0.129858 0.779641 0.537037 0.141494
H47   H     H_    0.060054 0.792911 0.648321 0.166948
H48   H     H_    0.007653 0.832186 0.571344 0.082285
H49   H     H_    0.997284 0.684524 0.613699 0.158075
H50   H     H_    0.943441 0.645474 0.493150 0.114256
H51   H     H_    0.880192 0.763064 0.469365 0.139896
H52   H     H_    0.938114 0.785643 0.350447 0.170277
H53   H     H_    0.997213 0.816493 0.423233 0.081120
H54   H     H_    0.002863 0.672993 0.376283 0.162815
H55   H     H_    0.566681 0.172438 0.500661 0.115634
H56   H     H_    0.864626 0.503245 0.547898 0.142059
H57   H     H_    0.629677 0.279481 0.537184 0.141540
H58   H     H_    0.559911 0.292283 0.648536 0.166970
H59   H     H_    0.507486 0.331728 0.571615 0.082279
H60   H     H_    0.497192 0.183928 0.613808 0.158128
H61   H     H_    0.443193 0.146027 0.493227 0.114166
H62   H     H_    0.380081 0.263447 0.468789 0.140102
H63   H     H_    0.438482 0.284674 0.350008 0.170202
H64   H     H_    0.497291 0.316273 0.422934 0.081187
H65   H     H_    0.503089 0.172249 0.376547 0.162831
H66   H     H_    0.634645 0.008049 0.452466 0.151766
H67   H     H_    0.364663 0.003400 0.547903 0.142101
H68   H     H_    0.287812 0.603756 0.445510 0.083985
O1    O     O_R   0.215090 0.709860 0.828130 -0.522508
O2    O     O_R   0.543740 0.718170 0.330000 -0.515162
O3    O     O_R   0.956260 0.218170 0.670000 -0.514614
O4    O     O_R   0.043740 0.218170 0.330000 -0.515200
O5    O     O_R   0.320940 0.626760 0.674370 -0.515240
O6    O     O_R   0.679060 0.626760 0.325630 -0.524162
O7    O     O_R   0.820940 0.126760 0.674370 -0.515239
O8    O     O_R   0.179060 0.126760 0.325630 -0.524136
O9    O     O_3   0.334530 0.834540 0.749640 -0.248888
O10   O     O_3   0.665470 0.834540 0.250360 -0.250582
O11   O     O_3   0.834530 0.334540 0.749640 -0.248892
O12   O     O_R   0.784910 0.709860 0.171870 -0.521224
O13   O     O_3   0.165470 0.334540 0.250360 -0.250580
O14   O     O_R   0.236990 0.958390 0.823710 -0.500163
O15   O     O_R   0.763010 0.958390 0.176290 -0.499932
O16   O     O_R   0.736990 0.458390 0.823710 -0.500164
O17   O     O_R   0.263010 0.458390 0.176290 -0.499924
O18   O     O_R   0.332380 0.074750 0.830850 -0.509893
O19   O     O_R   0.667620 0.074750 0.169150 -0.511479
O20   O     O_R   0.832380 0.574750 0.830850 -0.509890
O21   O     O_R   0.167620 0.574750 0.169150 -0.511486
O22   O     O_R   0.445800 0.917770 0.825070 -0.503363
O23   O     O_R   0.715090 0.209860 0.828130 -0.522507
O24   O     O_R   0.554200 0.917770 0.174930 -0.505857
O25   O     O_R   0.945800 0.417770 0.825070 -0.503357
O26   O     O_R   0.054200 0.417770 0.174930 -0.505864
O27   O     O_R   0.456410 0.716580 0.829970 -0.526204
O28   O     O_R   0.543590 0.716580 0.170030 -0.522277
O29   O     O_R   0.956410 0.216580 0.829970 -0.526207
O30   O     O_R   0.043590 0.216580 0.170030 -0.522274
O31   O     O_R   0.321080 0.625290 0.822650 -0.497407
O32   O     O_R   0.678920 0.625290 0.177350 -0.496299
O33   O     O_R   0.821080 0.125290 0.822650 -0.497404
O34   O     O_R   0.284910 0.209860 0.171870 -0.521229
O35   O     O_R   0.178920 0.125290 0.177350 -0.496294
O36   O     O_R   0.214930 0.711450 0.668160 -0.466127
O37   O     O_R   0.785070 0.711450 0.331840 -0.464234
O38   O     O_R   0.714930 0.211450 0.668160 -0.466208
O39   O     O_R   0.285070 0.211450 0.331840 -0.464375
O40   O     O_R   0.236850 0.959870 0.675420 -0.498766
O41   O     O_R   0.763150 0.959870 0.324580 -0.496587
O42   O     O_R   0.736850 0.459870 0.675420 -0.498756
O43   O     O_R   0.263150 0.459870 0.324580 -0.496587
O44   O     O_R   0.332230 0.076350 0.670880 -0.519256
O45   O     O_R   0.445660 0.919250 0.676780 -0.506655
O46   O     O_R   0.667770 0.076350 0.329120 -0.521935
O47   O     O_R   0.832230 0.576350 0.670880 -0.519218
O48   O     O_R   0.167770 0.576350 0.329120 -0.521903
O49   O     O_3   0.125625 0.606825 0.585253 -0.537795
O50   O     O_3   0.874433 0.598622 0.412772 -0.538344
O51   O     O_3   0.625618 0.106590 0.585308 -0.537832
O52   O     O_3   0.374444 0.098472 0.412746 -0.538436
O53   O     O_R   0.554340 0.919250 0.323220 -0.501827
O54   O     O_R   0.945660 0.419250 0.676780 -0.506599
O55   O     O_R   0.054340 0.419250 0.323220 -0.501772
O56   O     O_R   0.456260 0.718170 0.670000 -0.514595

loop_
_geom_bond_atom_site_label_1
_geom_bond_atom_site_label_2
_ccdc_geom_bond_type
C44   C49   S    
C43   C73   S    
C31   C66   S    
C55   O23   A    
C75   C76   A    
Cr3   O33   S    
C14   H18   S    
C13   H30   S    
C14   C18   S    
C91   H62   S    
Cr11  O13   S    
C61   O48   A    
C7    C55   S    
C20   H25   S    
C9    C14   D    
C84   H44   S    
Cr3   O11   S    
Cr2   O10   S    
C64   O54   A    
C53   O1    A    
Cr5   O10   S    
C63   O53   A    
Cr7   O39   S    
C1    O14   A    
C15   C19   S    
C6    C19   D    
Cr6   O38   S    
C53   O31   A    
Cr1   O40   S    
C15   H19   S    
C90   H58   S    
C8    H35   S    
C56   C76   A    
Cr10  O11   S    
C5    C53   S    
C6    C54   S    
C84   O49   S    
C41   O24   A    
C10   C15   D    
C11   H29   S    
C23   O16   A    
C62   O56   A    
Cr11  O55   S    
C88   H57   S    
C19   H24   S    
C67   C89   A    
C65   O55   A    
Cr9   O53   S    
Cr2   O6    S    
C88   H55   S    
Cr1   O1    S    
C38   H3    S    
C26   H42   S    
Cr3   O3    S    
C67   H11   S    
Cr1   O9    S    
Cr9   O46   S    
Cr8   O44   S    
C35   C70   S    
C51   O51   S    
C67   C77   A    
C4    H17   S    
Cr10  O20   S    
C24   C27   D    
C33   H7    S    
C40   C72   S    
Cr5   O37   S    
C37   C46   D    
Cr9   O24   S    
C33   C69   S    
Cr11  O48   S    
C41   C71   S    
C1    O18   A    
C77   C79   A    
Cr12  O9    S    
Cr6   O42   S    
Cr5   O41   S    
C4    C56   A    
C70   O39   A    
C63   O2    A    
C31   C49   D    
C41   O28   A    
C68   O37   A    
C23   O20   A    
C22   C28   D    
Cr12  O56   S    
C6    H32   S    
C9    H27   S    
C39   H4    S    
C55   O33   A    
C66   O5    A    
Cr10  O54   S    
C36   H68   S    
C42   C74   S    
Cr7   O34   S    
C62   O45   A    
C78   H13   S    
C84   C85   S    
C60   O47   A    
C91   C92   S    
C7    H33   S    
C86   C87   S    
Cr4   O35   S    
C40   O22   A    
C5    C18   D    
C39   C58   S    
C57   O34   A    
C3    C45   A    
C17   C21   S    
C30   H39   S    
C87   H53   S    
C90   H60   S    
Cr11  O26   S    
Cr6   O11   S    
C2    C89   A    
C86   H51   S    
C85   H47   S    
C29   C30   S    
C2    C78   A    
C8    C57   S    
C22   C62   S    
C48   H67   S    
C66   O36   A    
C11   C16   D    
C92   H64   S    
Cr12  O5    S    
C22   H41   S    
C92   H65   S    
C16   C20   S    
C46   H56   S    
C43   O30   A    
C8    C21   D    
C31   H5    S    
C88   O51   S    
C42   O25   A    
C72   C76   A    
C25   H43   S    
C85   H49   S    
Cr4   O8    S    
C64   O3    A    
Cr8   O9    S    
C32   C50   D    
C38   C47   D    
C32   H6    S    
Cr10  O47   S    
Cr2   O2    S    
C34   O21   A    
Cr3   O7    S    
C17   H21   S    
C88   C90   S    
Cr8   O45   S    
C52   O52   S    
C24   C63   S    
C58   O40   A    
C74   C79   A    
C65   O4    A    
C9    C34   S    
Cr12  O27   S    
C54   O12   A    
Cr10  O25   S    
C1    C13   S    
C36   C61   S    
C21   H26   S    
Cr7   O13   S    
C47   H66   S    
Cr5   O12   S    
Cr7   O17   S    
C74   C82   A    
C25   C30   D    
C5    H31   S    
C12   O19   A    
Cr5   O15   S    
C35   C52   D    
C50   O50   S    
C73   C77   A    
Cr4   O4    S    
C49   O49   S    
C78   C79   A    
C26   C65   S    
Cr4   O13   S    
C91   H61   S    
C34   O17   A    
Cr8   O18   S    
Cr12  O31   S    
C80   C81   A    
Cr9   O19   S    
C59   O46   A    
C47   C51   S    
C2    H15   S    
C59   O41   A    
Cr4   O30   S    
C69   O38   A    
C40   O27   A    
Cr8   O22   S    
C10   C23   S    
C33   C51   D    
C61   O43   A    
C46   C50   S    
C44   H45   S    
C87   H54   S    
C13   C17   D    
C90   H59   S    
C45   C75   A    
Cr1   O36   S    
C86   H50   S    
C85   H48   S    
C37   H2    S    
C72   C80   A    
Cr3   O29   S    
Cr1   O14   S    
C32   C68   S    
C71   C75   A    
C12   O15   A    
C92   H63   S    
C70   O8    A    
Cr7   O43   S    
C24   H40   S    
C54   O32   A    
C29   H38   S    
C80   H1    S    
C81   H12   S    
C68   O6    A    
C73   C83   A    
Cr6   O23   S    
C43   O26   A    
Cr2   O28   S    
C84   H46   S    
C16   H20   S    
C10   H28   S    
C82   H23   S    
C69   O7    A    
C37   C60   S    
C36   C44   D    
C3    H16   S    
Cr9   O10   S    
C38   C59   S    
C45   H9    S    
C48   C52   S    
C27   H36   S    
Cr2   O32   S    
C89   H14   S    
C26   C29   D    
C7    C20   D    
C27   C28   S    
C56   H10   S    
C87   H52   S    
C42   O29   A    
C60   O42   A    
C28   H37   S    
C86   O50   S    
C82   C83   A    
C91   O52   S    
C57   O35   A    
Cr6   O16   S    
C25   C64   S    
C83   H34   S    
C18   H22   S    
C35   H8    S    
C3    C4    A    
C11   C12   S    
Cr11  O21   S    
C39   C48   D    
C71   C81   A    
C58   O44   A    
