data_mof_unit_16326.cif
_audit_creation_date              2012-10-26T21:20:09-0400
_audit_creation_method            fapswitch 2.2
_symmetry_space_group_name_H-M    P1
_symmetry_Int_Tables_number       1
_space_group_crystal_system       triclinic
_cell_length_a                    13.089372
_cell_length_b                    10.850387
_cell_length_c                    9.580154
_cell_angle_alpha                 90.251589
_cell_angle_beta                  95.9654
_cell_angle_gamma                 91.66669
_cell_volume                      1352.64089883

loop_
_atom_site_label
_atom_site_type_symbol
_atom_type_description
_atom_site_fract_x
_atom_site_fract_y
_atom_site_fract_z
_atom_type_partial_charge
C1    C     C_R   0.501910 0.262212 0.500655 0.587652
C2    C     C_R   0.698247 0.485936 0.525205 0.535245
C3    C     C_R   0.809511 0.457133 0.536466 -0.062203
C4    C     C_R   0.185678 0.501150 0.458486 -0.076671
C5    C     C_R   0.027752 0.458221 0.306639 0.112429
C6    C     C_R   0.971715 0.430611 0.678840 0.118647
C7    C     C_R   0.130847 0.497115 0.324366 -0.007761
C8    C     C_R   0.864103 0.432673 0.667285 -0.033110
C9    C     C_R   0.130413 0.491745 0.576981 -0.031506
C10   C     C_R   0.861307 0.443949 0.414194 -0.046329
C11   C     C_R   0.024439 0.459929 0.561132 0.004478
C12   C     C_R   0.499868 0.737197 0.500371 0.591550
C13   C     C_R   0.970398 0.451260 0.425122 -0.020208
C14   C     C_R   0.564389 0.065025 0.412837 0.085425
C15   C     C_R   0.442739 0.932859 0.591944 0.087849
C16   C     C_R   0.567230 0.935807 0.417397 0.098498
C17   C     C_R   0.450851 0.061467 0.601303 0.093224
C18   C     C_1   0.801255 0.417449 0.281476 0.222698
C19   C     C_1   0.177050 0.538455 0.711230 0.261680
C20   C     C_1   0.810345 0.392313 0.784383 0.214531
C21   C     C_1   0.174273 0.552422 0.206038 0.257733
C22   C     C_3   0.975303 0.284952 0.152489 -0.286789
C23   C     C_R   0.502826 0.870786 0.502470 0.014320
C24   C     C_3   0.046047 0.254813 0.796756 -0.317577
C25   C     C_3   0.590839 0.140969 0.179941 -0.279788
C26   C     C_3   0.396478 0.832751 0.807284 -0.247768
C27   C     C_3   0.728720 0.833035 0.414198 -0.302138
C28   C     C_3   0.480168 0.134181 0.839907 -0.286382
C29   C     C_3   0.266104 0.305391 0.048196 -0.330457
C30   C     C_3   0.745285 0.671681 0.955427 -0.330545
C31   C     C_R   0.505207 0.127667 0.503992 0.008409
C32   C     C_R   0.429555 0.428373 0.063224 0.248773
C33   C     C_R   0.572019 0.569566 0.936926 0.257202
C34   C     C_R   0.429145 0.431458 0.914112 0.016567
C35   C     C_R   0.569383 0.570953 0.085634 0.033903
C36   C     C_R   0.300197 0.504588 0.474030 0.541722
Cu1   Cu    Cu3+1 0.500000 0.500020 0.640660 0.982698
Cu2   Cu    Cu3+1 0.500000 0.499980 0.359340 1.001478
H1    H     H_    0.374040 0.376442 0.846971 0.146530
H2    H     H_    0.972338 0.200786 0.778949 0.140044
H3    H     H_    0.705546 0.114220 0.344863 0.248950
H4    H     H_    0.644840 0.096884 0.114216 0.114240
H5    H     H_    0.585480 0.239175 0.149728 0.198261
H6    H     H_    0.513671 0.095371 0.156865 0.122128
H7    H     H_    0.293865 0.896771 0.643471 0.238906
H8    H     H_    0.359167 0.893859 0.878925 0.120860
H9    H     H_    0.480912 0.838292 0.834423 0.131643
H10   H     H_    0.370411 0.736433 0.823805 0.202169
H11   H     H_    0.644950 0.907387 0.240434 0.251099
H12   H     H_    0.623302 0.628016 0.152293 0.137272
H13   H     H_    0.777338 0.915420 0.448769 0.124103
H14   H     H_    0.771555 0.774846 0.345952 0.135458
H15   H     H_    0.712810 0.778032 0.507450 0.156594
H16   H     H_    0.336976 0.092507 0.732555 0.242381
H17   H     H_    0.505926 0.042878 0.877350 0.120833
H18   H     H_    0.442229 0.177760 0.924384 0.111075
H19   H     H_    0.549501 0.190650 0.821865 0.193250
H20   H     H_    0.398692 0.272307 0.173922 0.256915
H21   H     H_    0.279763 0.235748 0.967631 0.101597
H22   H     H_    0.225676 0.384146 0.997318 0.215186
H23   H     H_    0.933221 0.471696 0.116800 0.258274
H24   H     H_    0.216364 0.261472 0.121451 0.143248
H25   H     H_    0.619618 0.714652 0.816653 0.254872
H26   H     H_    0.735880 0.746172 0.032576 0.105039
H27   H     H_    0.801273 0.704933 0.883583 0.145066
H28   H     H_    0.776872 0.589168 0.010097 0.182897
H29   H     H_    0.937637 0.262004 0.046248 0.158647
H30   H     H_    0.927700 0.244015 0.230684 0.152761
H31   H     H_    0.051230 0.241904 0.166350 0.133053
H32   H     H_    0.000004 0.413002 0.894896 0.273871
H33   H     H_    0.087105 0.224681 0.897066 0.127143
H34   H     H_    0.094318 0.235220 0.710931 0.156790
N1    N     N_R   0.500030 0.500030 0.852080 -0.241534
N2    N     N_2   0.367839 0.866214 0.662555 -0.503824
N3    N     N_2   0.633981 0.870266 0.336595 -0.505419
N4    N     N_2   0.409261 0.123478 0.713117 -0.492611
N5    N     N_2   0.361675 0.345603 0.126593 -0.471248
N6    N     N_2   0.648026 0.641559 0.874478 -0.468572
N7    N     N_R   0.499970 0.499970 0.147920 -0.233845
N8    N     N_1   0.751902 0.394705 0.176792 -0.305814
N9    N     N_1   0.214016 0.577082 0.817831 -0.296916
N10   N     N_1   0.766870 0.358435 0.876755 -0.297942
N11   N     N_1   0.209092 0.599843 0.113306 -0.271070
N12   N     N_2   0.987472 0.417672 0.170056 -0.523678
N13   N     N_2   0.026963 0.385354 0.803094 -0.509596
N14   N     N_2   0.628514 0.133013 0.327286 -0.492557
O1    O     O_R   0.499990 0.319660 0.618740 -0.487904
O2    O     O_R   0.500010 0.680340 0.381260 -0.480472
O3    O     O_R   0.499990 0.319630 0.381170 -0.495530
O4    O     O_R   0.500010 0.680370 0.618830 -0.509457
O5    O     O_R   0.349000 0.499990 0.599490 -0.501659
O6    O     O_R   0.651000 0.500010 0.400510 -0.499908
O7    O     O_R   0.348990 0.499960 0.361920 -0.463337
O8    O     O_R   0.651010 0.500040 0.638080 -0.465748

loop_
_geom_bond_atom_site_label_1
_geom_bond_atom_site_label_2
_ccdc_geom_bond_type
C1    O1    A    
C4    C36   S    
C30   H26   S    
C16   N3    S    
C14   C31   A    
C25   H5    S    
C28   H18   S    
C28   H19   S    
H3    N14   S    
C12   C23   S    
C8    C20   S    
C6    N13   S    
Cu1   O4    S    
C12   O4    A    
C20   N10   T    
C33   N6    S    
Cu2   N7    S    
Cu2   O6    S    
C1    C31   S    
C26   N2    S    
H20   N5    S    
C33   C35   A    
C32   N5    S    
C36   O7    A    
C9    C19   S    
C29   H21   S    
C17   N4    S    
H11   N3    S    
C24   N13   S    
C22   H31   S    
C5    C13   A    
C26   H10   S    
C15   C23   A    
C4    C7    A    
C27   N3    S    
C25   H6    S    
C28   H17   S    
C27   H13   S    
C12   O2    A    
C34   H1    S    
C21   N11   T    
C2    O8    A    
C14   N14   S    
C3    C8    A    
C6    C11   A    
C5    C7    A    
C5    N12   S    
Cu1   O5    S    
C6    C8    A    
C7    C21   S    
H23   N12   S    
Cu2   O2    S    
H7    N2    S    
C22   N12   S    
Cu1   Cu2   S    
Cu2   O3    S    
C29   H22   S    
C35   H12   S    
C2    O6    A    
C9    C11   A    
C22   H30   S    
C30   H28   S    
C26   H9    S    
H16   N4    S    
C36   O5    A    
C33   N1    A    
C16   C23   A    
C17   C31   A    
C14   C16   A    
C28   N4    S    
C27   H14   S    
C24   H34   S    
C15   C17   A    
Cu1   N1    S    
C29   H24   S    
C1    O3    A    
Cu1   O1    S    
C10   C13   A    
C25   H4    S    
C27   H15   S    
C2    C3    S    
C3    C10   A    
C32   N7    A    
C11   C13   A    
C10   C18   S    
Cu2   O7    S    
C35   N7    A    
C25   N14   S    
C24   H2    S    
Cu1   O8    S    
C22   H29   S    
C30   H27   S    
C26   H8    S    
C34   N1    A    
C30   N6    S    
C15   N2    S    
C29   N5    S    
C18   N8    T    
C4    C9    A    
C19   N9    T    
H32   N13   S    
C24   H33   S    
C32   C34   A    
H25   N6    S    
