data_mof_unit_56743.cif
_audit_creation_date              2012-12-11T17:36:17-0500
_audit_creation_method            fapswitch 2.2
_symmetry_space_group_name_H-M    P1
_symmetry_Int_Tables_number       1
_space_group_crystal_system       triclinic
_cell_length_a                    26.002206
_cell_length_b                    6.888915
_cell_length_c                    21.617123
_cell_angle_alpha                 90.000043
_cell_angle_beta                  96.236013
_cell_angle_gamma                 90.0
_cell_volume                      3849.29779729

loop_
_atom_site_label
_atom_site_type_symbol
_atom_type_description
_atom_site_fract_x
_atom_site_fract_y
_atom_site_fract_z
_atom_type_partial_charge
O1    O     O_R   0.208650 0.594520 0.175450 -0.536385
O2    O     O_R   0.791350 0.405480 0.824550 -0.536385
O3    O     O_R   0.291350 0.094520 0.324550 -0.536385
O4    O     O_R   0.708650 0.905480 0.675450 -0.536385
O5    O     O_R   0.192980 0.260780 0.300160 -0.511462
O6    O     O_R   0.807020 0.739220 0.699840 -0.511462
O7    O     O_R   0.307020 0.760780 0.199840 -0.511462
O8    O     O_R   0.692980 0.239220 0.800160 -0.511462
C1    C     C_R   0.178698 0.432858 0.318429 0.805193
C2    C     C_R   0.821302 0.567142 0.681571 0.805194
C3    C     C_R   0.321302 0.932858 0.181571 0.805194
C4    C     C_R   0.678698 0.067142 0.818429 0.805194
O9    O     O_R   0.202550 0.264660 0.174420 -0.535530
O10   O     O_R   0.797450 0.735340 0.825580 -0.535529
O11   O     O_R   0.297450 0.764660 0.325580 -0.535530
O12   O     O_R   0.702550 0.235340 0.674420 -0.535529
O13   O     O_R   0.300990 0.096480 0.197920 -0.515443
O14   O     O_R   0.699010 0.903520 0.802080 -0.515443
O15   O     O_R   0.199010 0.596480 0.302080 -0.515443
O16   O     O_R   0.800990 0.403520 0.697920 -0.515444
C5    C     C_R   0.191126 0.434574 0.150791 0.776629
C6    C     C_R   0.808874 0.565426 0.849209 0.776628
C7    C     C_R   0.308874 0.934574 0.349209 0.776629
C8    C     C_R   0.691126 0.065426 0.650791 0.776630
O17   O     O_3   0.282290 0.427760 0.257860 -0.361730
O18   O     O_3   0.717710 0.572240 0.742140 -0.361730
O19   O     O_3   0.217710 0.927760 0.242140 -0.361730
O20   O     O_3   0.782290 0.072240 0.757860 -0.361730
V1    V     V_3+5 0.244010 0.152080 0.248540 1.643633
V2    V     V_3+5 0.755990 0.847920 0.751460 1.643633
V3    V     V_3+5 0.255990 0.652080 0.251460 1.643633
V4    V     V_3+5 0.744010 0.347920 0.748540 1.643633
C9    C     C_R   0.658307 0.048072 0.590506 -0.132930
C10   C     C_R   0.341693 0.951928 0.409494 -0.132930
C11   C     C_R   0.841693 0.548073 0.909494 -0.132930
C12   C     C_R   0.158307 0.451927 0.090506 -0.132930
C13   C     C_R   0.648937 0.944280 0.482856 -0.122289
C14   C     C_R   0.351063 0.055720 0.517144 -0.122289
C15   C     C_R   0.851063 0.444281 0.017144 -0.122289
C16   C     C_R   0.148937 0.555719 0.982856 -0.122289
C17   C     C_R   0.680248 0.983413 0.537765 0.360029
C18   C     C_R   0.319752 0.016587 0.462235 0.360029
C19   C     C_R   0.819752 0.483413 0.962235 0.360029
C20   C     C_R   0.180248 0.516587 0.037765 0.360029
C21   C     C_R   0.604175 0.067483 0.587566 -0.247639
C22   C     C_R   0.395825 0.932517 0.412434 -0.247639
C23   C     C_R   0.895825 0.567484 0.912434 -0.247640
C24   C     C_R   0.104175 0.432516 0.087566 -0.247640
C25   C     C_R   0.570981 0.020019 0.532404 0.050633
C26   C     C_R   0.429019 0.979981 0.467596 0.050633
C27   C     C_R   0.929019 0.520019 0.967596 0.050633
C28   C     C_R   0.070981 0.479981 0.032404 0.050633
C29   C     C_R   0.594753 0.959545 0.479452 0.022194
C30   C     C_R   0.405247 0.040455 0.520548 0.022194
C31   C     C_R   0.905247 0.459545 0.020548 0.022194
C32   C     C_R   0.094753 0.540454 0.979452 0.022194
C33   C     C_R   0.515334 0.026380 0.528372 0.028524
C34   C     C_R   0.484666 0.973620 0.471628 0.028524
C35   C     C_R   0.984666 0.526380 0.971628 0.028524
C36   C     C_R   0.015334 0.473620 0.028372 0.028524
C37   C     C_R   0.510554 0.917597 0.420470 -0.237852
C38   C     C_R   0.489446 0.082403 0.579530 -0.237852
C39   C     C_R   0.989446 0.417598 0.079530 -0.237852
C40   C     C_R   0.010554 0.582402 0.920470 -0.237852
C41   C     C_R   0.564602 0.910498 0.423784 0.367327
C42   C     C_R   0.435398 0.089502 0.576216 0.367327
C43   C     C_R   0.935398 0.410499 0.076216 0.367326
C44   C     C_R   0.064602 0.589501 0.923784 0.367326
H1    H     H_    0.410492 0.887510 0.370020 0.134996
H2    H     H_    0.589507 0.112489 0.629980 0.134996
H3    H     H_    0.089508 0.387510 0.129980 0.134997
H4    H     H_    0.910492 0.612490 0.870020 0.134997
H5    H     H_    0.667479 0.895709 0.443085 0.212267
H6    H     H_    0.332521 0.104291 0.556915 0.212267
H7    H     H_    0.832521 0.395709 0.056915 0.212267
H8    H     H_    0.167479 0.604291 0.943085 0.212267
H9    H     H_    0.489745 0.877190 0.376703 0.132735
H10   H     H_    0.510255 0.122810 0.623297 0.132735
H11   H     H_    0.010255 0.377190 0.123297 0.132735
H12   H     H_    0.989745 0.622810 0.876703 0.132735
C45   C     C_R   0.442089 0.822901 0.099865 -0.206794
C46   C     C_R   0.557911 0.177099 0.900134 -0.206794
C47   C     C_R   0.057911 0.322901 0.400134 -0.206794
C48   C     C_R   0.942089 0.677099 0.599866 -0.206794
H13   H     H_    0.472553 0.714974 0.101726 0.196383
H14   H     H_    0.527446 0.285025 0.898274 0.196383
H15   H     H_    0.027446 0.214974 0.398274 0.196383
H16   H     H_    0.972553 0.785026 0.601726 0.196383
C49   C     C_R   0.403010 0.804582 0.139458 0.319093
C50   C     C_R   0.596990 0.195418 0.860543 0.319093
C51   C     C_R   0.096990 0.304582 0.360542 0.319093
C52   C     C_R   0.903010 0.695418 0.639458 0.319093
C53   C     C_R   0.363196 0.945719 0.138743 -0.181365
C54   C     C_R   0.636804 0.054281 0.861257 -0.181365
C55   C     C_R   0.136804 0.445719 0.361257 -0.181365
C56   C     C_R   0.863196 0.554281 0.638743 -0.181365
C57   C     C_R   0.364414 0.106019 0.097435 0.270127
C58   C     C_R   0.635586 0.893981 0.902565 0.270127
C59   C     C_R   0.135586 0.606020 0.402565 0.270127
C60   C     C_R   0.864414 0.393980 0.597435 0.270128
C61   C     C_R   0.403050 0.117609 0.055509 0.316634
C62   C     C_R   0.596950 0.882391 0.944491 0.316634
C63   C     C_R   0.096950 0.617609 0.444491 0.316634
C64   C     C_R   0.903050 0.382391 0.555509 0.316634
C65   C     C_R   0.442451 0.978031 0.058192 -0.031509
C66   C     C_R   0.557549 0.021969 0.941808 -0.031509
C67   C     C_R   0.057549 0.478031 0.441808 -0.031509
C68   C     C_R   0.942451 0.521968 0.558192 -0.031509
C69   C     C_1   0.483137 0.992842 0.017198 0.115197
C70   C     C_1   0.516863 0.007158 0.982802 0.115197
C71   C     C_1   0.016863 0.492842 0.482802 0.115197
C72   C     C_1   0.983137 0.507158 0.517198 0.115197
O21   O     O_3   0.588891 0.853869 0.372796 -0.628687
H17   H     H_    0.562599 0.824036 0.337345 0.314136
O22   O     O_3   0.411109 0.146131 0.627204 -0.628687
H18   H     H_    0.437401 0.175964 0.662655 0.314136
O23   O     O_3   0.911109 0.353869 0.127204 -0.628687
H19   H     H_    0.937401 0.324036 0.162655 0.314137
O24   O     O_3   0.088891 0.646131 0.872796 -0.628687
H20   H     H_    0.062599 0.675964 0.837345 0.314137
Cl1   Cl    Cl    0.252841 0.058293 0.460766 -0.629550
Cl2   Cl    Cl    0.747159 0.941707 0.539234 -0.629550
Cl3   Cl    Cl    0.247159 0.558292 0.039234 -0.629550
Cl4   Cl    Cl    0.752841 0.441707 0.960766 -0.629550
Cl5   Cl    Cl    0.408219 0.608099 0.192029 -0.647180
Cl6   Cl    Cl    0.591781 0.391901 0.807971 -0.647180
Cl7   Cl    Cl    0.091781 0.108099 0.307971 -0.647180
Cl8   Cl    Cl    0.908219 0.891901 0.692029 -0.647180
O25   O     O_3   0.327651 0.249770 0.098783 -0.596421
H21   H     H_    0.343906 0.375596 0.090221 0.352983
O26   O     O_3   0.672349 0.750230 0.901217 -0.596421
H22   H     H_    0.656094 0.624404 0.909779 0.352983
O27   O     O_3   0.172349 0.749770 0.401216 -0.596421
H23   H     H_    0.156094 0.875596 0.409780 0.352983
O28   O     O_3   0.827651 0.250229 0.598783 -0.596421
H24   H     H_    0.843906 0.124404 0.590220 0.352983
O29   O     O_3   0.402908 0.261702 0.010985 -0.628056
H25   H     H_    0.367020 0.308234 0.000290 0.332105
O30   O     O_3   0.597092 0.738298 0.989015 -0.628056
H26   H     H_    0.632980 0.691766 0.999710 0.332105
O31   O     O_3   0.097092 0.761702 0.489015 -0.628056
H27   H     H_    0.132980 0.808234 0.499710 0.332105
O32   O     O_3   0.902908 0.238298 0.510985 -0.628056
H28   H     H_    0.867020 0.191766 0.500290 0.332105

loop_
_geom_bond_atom_site_label_1
_geom_bond_atom_site_label_2
_ccdc_geom_bond_type
O17   V3    S    
C59   C63   A    
O1    C5    A    
O19   V1    S    
C9    C21   A    
O3    C7    A    
C71   C72   T    
C10   C18   A    
O1    V3    S    
O15   V3    S    
C25   C33   A    
O28   H24   S    
C5    C12   S    
C49   Cl5   S    
O7    C3    A    
C6    C11   S    
C35   C40   A    
C26   C30   A    
C51   Cl7   S    
C36   C39   A    
C40   C44   A    
O9    V1    S    
C14   C18   A    
C13   C17   A    
C44   O24   S    
C14   H6    S    
O4    C8    A    
C55   C59   A    
C54   C58   A    
O32   H28   S    
C52   Cl8   S    
C52   C56   A    
O13   V1    S    
C59   O27   S    
O2    V4    S    
O3    V1    S    
C22   H1    S    
C65   C69   S    
C28   C36   A    
O31   H27   S    
C1    O15   A    
C60   C64   A    
C15   C31   A    
C2    O16   A    
C16   C32   A    
C58   O26   S    
O2    C6    A    
C12   C24   A    
C10   C22   A    
C2    C56   S    
C11   C19   A    
C1    C55   S    
C16   C20   A    
C60   O28   S    
C13   C29   A    
C3    C53   S    
C34   C37   A    
O11   C7    A    
C11   C23   A    
C35   C36   A    
O12   C8    A    
C61   C65   A    
C40   H12   S    
C4    C54   S    
C67   C71   S    
O10   V2    S    
C63   O31   S    
O20   V4    S    
C50   C54   A    
O5    V1    S    
O17   V1    S    
C39   C43   A    
O7    V3    S    
C42   O22   S    
C38   C42   A    
O19   V3    S    
C26   C34   A    
C33   C38   A    
C37   H9    S    
C61   O29   S    
O18   V4    S    
C39   H11   S    
C32   C44   A    
C51   C55   A    
C68   C72   S    
O8    V4    S    
C17   Cl2   S    
O5    C1    A    
C31   C43   A    
C14   C30   A    
C21   C25   A    
O8    C4    A    
C7    C10   S    
C57   C61   A    
C50   Cl6   S    
C64   O32   S    
O9    C5    A    
O24   H20   S    
C43   O23   S    
O14   V2    S    
O6    V2    S    
O18   V2    S    
C15   H7    S    
O27   H23   S    
C12   C20   A    
C27   C35   A    
C24   H3    S    
O26   H22   S    
C53   C57   A    
C64   C68   A    
C29   C41   A    
O21   H17   S    
O16   V4    S    
C45   C65   A    
C13   H5    S    
C3    O13   A    
C21   H2    S    
C41   O21   S    
C38   H10   S    
C48   H16   S    
C47   H15   S    
O6    C2    A    
C23   C27   A    
O30   H26   S    
O11   V3    S    
C30   C42   A    
O12   V4    S    
C47   C51   A    
O29   H25   S    
C22   C26   A    
C20   Cl3   S    
C8    C9    S    
C46   C50   A    
C9    C17   A    
O10   C6    A    
O20   V2    S    
O25   H21   S    
C45   C49   A    
C58   C62   A    
O23   H19   S    
C46   H14   S    
C33   C34   A    
C25   C29   A    
C56   C60   A    
C48   C68   A    
C47   C67   A    
C62   C66   A    
C27   C31   A    
C62   O30   S    
C46   C66   A    
C49   C53   A    
O4    V2    S    
C23   H4    S    
C57   O25   S    
C37   C41   A    
C24   C28   A    
C15   C19   A    
C66   C70   S    
C16   H8    S    
C4    O14   A    
C63   C67   A    
C48   C52   A    
O22   H18   S    
C69   C70   T    
C19   Cl4   S    
C45   H13   S    
C28   C32   A    
C18   Cl1   S    
