data_mof_unit_17610.cif
_audit_creation_date              2012-12-10T19:00:01-0500
_audit_creation_method            fapswitch 2.2
_symmetry_space_group_name_H-M    P1
_symmetry_Int_Tables_number       1
_space_group_crystal_system       triclinic
_cell_length_a                    10.706771
_cell_length_b                    10.707283
_cell_length_c                    9.83275
_cell_angle_alpha                 89.786935
_cell_angle_beta                  89.601232
_cell_angle_gamma                 90.52813
_cell_volume                      1127.14740737

loop_
_atom_site_label
_atom_site_type_symbol
_atom_type_description
_atom_site_fract_x
_atom_site_fract_y
_atom_site_fract_z
_atom_type_partial_charge
C1    C     C_R   0.500073 0.259873 0.500116 0.856702
C2    C     C_R   0.470599 0.063222 0.620108 -0.210982
C3    C     C_R   0.499737 0.872542 0.499807 -0.005096
C4    C     C_R   0.500263 0.127458 0.500193 -0.005096
C5    C     C_R   0.578566 0.577795 0.070897 0.187901
C6    C     C_R   0.421434 0.422204 0.929102 0.187900
C7    C     C_R   0.578195 0.577526 0.926634 -0.157700
C8    C     C_R   0.421805 0.422474 0.073366 -0.157700
C9    C     C_R   0.260119 0.504102 0.500086 0.870399
C10   C     C_R   0.739881 0.495898 0.499914 0.870398
C11   C     C_R   0.257050 0.792271 0.185898 -0.120064
C12   C     C_R   0.499927 0.740127 0.499884 0.856702
C13   C     C_R   0.742950 0.207730 0.814102 -0.120065
C14   C     C_R   0.195700 0.733581 0.295087 -0.102791
C15   C     C_R   0.804299 0.266419 0.704913 -0.102789
C16   C     C_R   0.123735 0.625083 0.273537 0.143334
C17   C     C_R   0.876265 0.374916 0.726463 0.143334
C18   C     C_R   0.112473 0.577574 0.141081 -0.173536
C19   C     C_R   0.887528 0.422425 0.858919 -0.173538
C20   C     C_R   0.174050 0.636556 0.032258 -0.145112
C21   C     C_R   0.825951 0.363443 0.967742 -0.145112
C22   C     C_R   0.246694 0.743506 0.054738 -0.111157
C23   C     C_R   0.872406 0.492432 0.499953 -0.080680
C24   C     C_R   0.753307 0.256494 0.945262 -0.111158
C25   C     C_R   0.934211 0.549764 0.390635 -0.257760
C26   C     C_R   0.065789 0.450236 0.609365 -0.257759
C27   C     C_R   0.127594 0.507567 0.500047 -0.080680
C28   C     C_R   0.937733 0.440711 0.610407 -0.004650
C29   C     C_R   0.062267 0.559289 0.389593 -0.004650
C30   C     C_R   0.529660 0.064683 0.380025 -0.211386
C31   C     C_R   0.470339 0.935317 0.619975 -0.211385
C32   C     C_R   0.529401 0.936778 0.379892 -0.210982
H1    H     H_    0.294916 0.788594 0.970523 0.117782
H2    H     H_    0.942026 0.506284 0.877307 0.120728
H3    H     H_    0.166282 0.598817 0.930650 0.132337
H4    H     H_    0.833721 0.401181 0.069350 0.132337
H5    H     H_    0.882503 0.591477 0.307953 0.162756
H6    H     H_    0.117497 0.408522 0.692047 0.162756
H7    H     H_    0.553568 0.114030 0.286851 0.149755
H8    H     H_    0.446432 0.885970 0.713149 0.149755
H9    H     H_    0.552973 0.888612 0.286714 0.153064
H10   H     H_    0.447027 0.111388 0.713286 0.153064
H11   H     H_    0.642580 0.750753 0.111344 0.146635
H12   H     H_    0.705085 0.211405 0.029477 0.117782
H13   H     H_    0.752600 0.639228 0.110111 0.149375
H14   H     H_    0.357420 0.249246 0.888656 0.146636
H15   H     H_    0.247401 0.360770 0.889888 0.149375
H16   H     H_    0.640754 0.639071 0.870540 0.140138
H17   H     H_    0.359246 0.360928 0.129459 0.140138
H18   H     H_    0.312890 0.875391 0.202982 0.126818
H19   H     H_    0.687109 0.124610 0.797018 0.126818
H20   H     H_    0.205233 0.771702 0.396416 0.101637
H21   H     H_    0.794765 0.228298 0.603584 0.101636
H22   H     H_    0.057976 0.493715 0.122692 0.120728
N1    N     N_R   0.499970 0.499970 0.857200 -0.077674
N2    N     N_R   0.500030 0.500030 0.142800 -0.077674
N3    N     N_3   0.661618 0.659322 0.141862 -0.407754
N4    N     N_3   0.338382 0.340677 0.858137 -0.407754
O1    O     O_R   0.499990 0.316750 0.614620 -0.602525
O2    O     O_R   0.500010 0.683250 0.385380 -0.602524
O3    O     O_R   0.499990 0.316780 0.385290 -0.634568
O4    O     O_R   0.500010 0.683220 0.614710 -0.634568
O5    O     O_R   0.316760 0.500000 0.614660 -0.610556
O6    O     O_R   0.683240 0.500000 0.385340 -0.610555
O7    O     O_R   0.316760 0.500020 0.385330 -0.609066
O8    O     O_R   0.683240 0.499980 0.614670 -0.609066
Zn1   Zn    Zn3+2 0.500000 0.499980 0.653120 0.963697
Zn2   Zn    Zn3+2 0.500000 0.500020 0.346880 0.963697

loop_
_geom_bond_atom_site_label_1
_geom_bond_atom_site_label_2
_ccdc_geom_bond_type
C9    O5    A    
C2    C4    A    
C32   H9    S    
C5    C7    A    
O5    Zn1   S    
C7    N1    A    
C10   C23   S    
C27   C29   A    
C12   O4    A    
C6    N4    S    
C11   C22   A    
N1    Zn1   S    
C9    C27   S    
C5    N3    S    
C6    N1    A    
O7    Zn2   S    
H13   N3    S    
C7    H16   S    
C1    C4    S    
C10   O8    A    
O8    Zn1   S    
H11   N3    S    
C4    C30   A    
C21   H4    S    
C13   H19   S    
C23   C28   A    
H14   N4    S    
H15   N4    S    
C3    C31   A    
C20   H3    S    
O3    Zn2   S    
C8    N2    A    
C26   C27   A    
O4    Zn1   S    
C2    H10   S    
C15   H21   S    
C14   H20   S    
C17   C19   A    
C1    O1    A    
C20   C22   A    
C30   H7    S    
C9    O7    A    
C13   C15   A    
C25   C29   A    
C3    C32   A    
C24   H12   S    
C11   C14   A    
C14   C16   A    
C18   H22   S    
C30   C32   A    
O6    Zn2   S    
C23   C25   A    
O1    Zn1   S    
C31   H8    S    
O2    Zn2   S    
C18   C20   A    
C16   C18   A    
C21   C24   A    
C15   C17   A    
C22   H1    S    
C11   H18   S    
C26   H6    S    
C6    C8    A    
C3    C12   S    
C5    N2    A    
C25   H5    S    
C16   C29   S    
N2    Zn2   S    
C17   C28   S    
C26   C28   A    
C8    H17   S    
C10   O6    A    
C13   C24   A    
C1    O3    A    
C2    C31   A    
C19   C21   A    
C19   H2    S    
C12   O2    A    
