data_mof_unit_55045.cif
_audit_creation_date              2012-12-10T19:59:22-0500
_audit_creation_method            fapswitch 2.2
_symmetry_space_group_name_H-M    P1
_symmetry_Int_Tables_number       1
_space_group_crystal_system       triclinic
_cell_length_a                    15.059689
_cell_length_b                    14.145672
_cell_length_c                    10.745931
_cell_angle_alpha                 91.182061
_cell_angle_beta                  91.060928
_cell_angle_gamma                 88.898077
_cell_volume                      2287.91309364

loop_
_atom_site_label
_atom_site_type_symbol
_atom_type_description
_atom_site_fract_x
_atom_site_fract_y
_atom_site_fract_z
_atom_type_partial_charge
C1    C     C_R   0.327320 0.500813 0.503588 0.938238
C2    C     C_R   0.672282 0.498918 0.491072 0.885924
C3    C     C_R   0.184881 0.418347 0.526595 0.409714
C4    C     C_R   0.814067 0.409297 0.449753 0.415854
C5    C     C_R   0.093119 0.416954 0.508552 -0.299778
C6    C     C_R   0.905046 0.409541 0.430277 -0.288690
C7    C     C_R   0.048683 0.491328 0.448228 0.058359
C8    C     C_R   0.951693 0.493632 0.441145 0.049312
C9    C     C_R   0.456494 0.104633 0.405456 0.320321
C10   C     C_R   0.543141 0.106901 0.598812 0.325811
C11   C     C_R   0.456343 0.203954 0.408139 -0.105558
C12   C     C_R   0.544190 0.206329 0.592256 -0.141521
C13   C     C_R   0.500031 0.053627 0.502494 -0.099474
C14   C     C_R   0.575212 0.893414 0.542045 -0.238754
C15   C     C_R   0.425040 0.895574 0.462185 -0.244993
C16   C     C_R   0.572594 0.794372 0.544097 -0.012093
C17   C     C_R   0.427743 0.796437 0.456808 -0.043750
C18   C     C_R   0.500012 0.946571 0.502946 0.190599
C19   C     C_R   0.499292 0.498780 0.259722 0.932713
C20   C     C_R   0.504905 0.500797 0.739767 0.927567
C21   C     C_R   0.463721 0.572559 0.062920 0.074992
C22   C     C_R   0.467093 0.574572 0.936148 0.085936
C23   C     C_R   0.497404 0.494996 0.127234 -0.288954
C24   C     C_R   0.510137 0.501651 0.871714 -0.301724
C25   C     C_R   0.530967 0.414662 0.061993 0.374556
C26   C     C_R   0.545197 0.422059 0.934420 0.365010
C27   C     C_3   0.486277 0.678075 0.937801 -0.445145
C28   C     C_3   0.482421 0.675488 0.078429 -0.443664
C29   C     C_R   0.095822 0.570142 0.413174 -0.307031
C30   C     C_R   0.905210 0.579734 0.454220 -0.305389
C31   C     C_R   0.183296 0.580767 0.453082 0.418046
C32   C     C_R   0.813303 0.582066 0.456462 0.420282
C33   C     C_R   0.230631 0.501067 0.497432 -0.248485
C34   C     C_R   0.767625 0.496489 0.467406 -0.268305
H1    H     H_    0.636557 0.927219 0.569078 0.193451
H2    H     H_    0.364066 0.931477 0.435043 0.195639
H3    H     H_    0.629950 0.754875 0.577795 0.182369
H4    H     H_    0.371218 0.758405 0.420231 0.198254
H5    H     H_    0.553500 0.693433 0.902984 0.197842
H6    H     H_    0.424990 0.716087 0.117182 0.204958
H7    H     H_    0.056641 0.359149 0.545982 0.149585
H8    H     H_    0.939336 0.343019 0.410670 0.157230
N1    N     N_R   0.500000 0.252470 0.500000 -0.141814
N2    N     N_R   0.500000 0.747550 0.500000 -0.097052
O1    O     O_R   0.369060 0.579480 0.500010 -0.585478
O2    O     O_R   0.630940 0.579480 0.499990 -0.585367
O3    O     O_R   0.369050 0.420520 0.500010 -0.595428
O4    O     O_R   0.630950 0.420520 0.499990 -0.609120
O5    O     O_R   0.499990 0.579490 0.316780 -0.632625
O6    O     O_R   0.500010 0.579490 0.683220 -0.630512
O7    O     O_R   0.499980 0.420540 0.316780 -0.580655
O8    O     O_R   0.500020 0.420540 0.683220 -0.585198
Zn1   Zn    Zn3+2 0.500000 0.606140 0.500000 0.959174
Zn2   Zn    Zn3+2 0.500000 0.393860 0.500000 0.972139
O9    O     O_3   0.542061 0.328716 0.121479 -0.592844
C35   C     C_3   0.632120 0.299484 0.126138 0.137950
H9    H     H_    0.678267 0.360143 0.135647 0.127975
H10   H     H_    0.647304 0.255523 0.042465 0.204559
C36   C     C_3   0.647804 0.236050 0.236618 -0.797414
H11   H     H_    0.608329 0.171115 0.225642 0.203255
H12   H     H_    0.719136 0.215107 0.242553 0.237160
H13   H     H_    0.628266 0.273940 0.323354 0.318727
O10   O     O_3   0.596885 0.353973 0.873808 -0.621125
C37   C     C_3   0.679257 0.393607 0.841711 0.067343
H14   H     H_    0.697407 0.457771 0.898415 0.115490
H15   H     H_    0.675949 0.413971 0.742652 0.161573
C38   C     C_3   0.754526 0.321006 0.858100 -0.934345
H16   H     H_    0.733733 0.250187 0.823291 0.270173
H17   H     H_    0.813399 0.343202 0.806126 0.216558
H18   H     H_    0.774697 0.316216 0.957539 0.238030
H19   H     H_    0.431182 0.720450 0.895128 0.207741
H20   H     H_    0.547575 0.689161 0.125100 0.204552
H21   H     H_    0.063302 0.627958 0.364933 0.149600
H22   H     H_    0.938982 0.646356 0.463199 0.148423
O11   O     O_3   0.220339 0.669834 0.455882 -0.601355
C39   C     C_3   0.173701 0.727068 0.544163 0.124594
H23   H     H_    0.168765 0.690946 0.635094 0.140182
H24   H     H_    0.105686 0.745106 0.508806 0.134960
C40   C     C_3   0.221018 0.819550 0.568359 -0.871292
H25   H     H_    0.180968 0.865700 0.631586 0.212395
H26   H     H_    0.286541 0.805773 0.613950 0.258583
H27   H     H_    0.229135 0.856584 0.479404 0.252437
O12   O     O_3   0.768580 0.668269 0.447866 -0.597311
C41   C     C_3   0.774280 0.699406 0.323833 0.124151
H28   H     H_    0.755964 0.642509 0.255032 0.123754
H29   H     H_    0.842731 0.723123 0.305220 0.133982
C42   C     C_3   0.710739 0.782642 0.303260 -0.846217
H30   H     H_    0.719266 0.810413 0.208402 0.201157
H31   H     H_    0.641152 0.759486 0.311361 0.262691
H32   H     H_    0.724529 0.840004 0.372612 0.254144
O13   O     O_3   0.227416 0.346802 0.592482 -0.587296
C43   C     C_3   0.226113 0.261465 0.521750 0.150601
H33   H     H_    0.262285 0.269317 0.433214 0.147114
H34   H     H_    0.157174 0.238638 0.499976 0.115848
C44   C     C_3   0.271857 0.183774 0.596597 -0.803262
H35   H     H_    0.233696 0.170571 0.681756 0.244543
H36   H     H_    0.275778 0.117417 0.539724 0.210981
H37   H     H_    0.340038 0.205052 0.624547 0.262956
O14   O     O_3   0.770071 0.324770 0.435348 -0.606929
C45   C     C_3   0.786217 0.267884 0.540247 0.100856
H38   H     H_    0.735093 0.285279 0.609935 0.178902
H39   H     H_    0.853319 0.277010 0.584161 0.121970
C46   C     C_3   0.777574 0.164128 0.502761 -0.842705
H40   H     H_    0.709916 0.150439 0.464873 0.260261
H41   H     H_    0.827186 0.144592 0.431047 0.245727
H42   H     H_    0.789330 0.119390 0.585392 0.228600
O15   O     O_3   0.408576 0.058897 0.312183 -0.621893
C47   C     C_3   0.464004 0.039846 0.210021 0.100208
H43   H     H_    0.530495 0.010966 0.239291 0.134850
H44   H     H_    0.472194 0.105554 0.156679 0.166801
C48   C     C_3   0.420287 0.966389 0.124814 -0.834697
H45   H     H_    0.354868 0.993647 0.090465 0.258972
H46   H     H_    0.463015 0.950023 0.043841 0.211113
H47   H     H_    0.410416 0.900246 0.176308 0.254598
O16   O     O_3   0.591104 0.061978 0.692297 -0.624665
C49   C     C_3   0.553014 0.082310 0.809177 0.117615
H48   H     H_    0.486480 0.049741 0.814097 0.145448
H49   H     H_    0.546363 0.159612 0.828828 0.177451
C50   C     C_3   0.613250 0.041045 0.910262 -0.847836
H50   H     H_    0.681188 0.069423 0.903027 0.258022
H51   H     H_    0.587393 0.060810 0.003327 0.200519
H52   H     H_    0.616501 0.962746 0.900332 0.253397
H53   H     H_    0.421459 0.242590 0.335790 0.180011
H54   H     H_    0.580881 0.247186 0.661078 0.194361

loop_
_geom_bond_atom_site_label_1
_geom_bond_atom_site_label_2
_ccdc_geom_bond_type
C15   C18   A    
O9    C35   S    
C7    C29   A    
C44   H35   S    
C47   H43   S    
C14   C18   A    
C48   H45   S    
C39   C40   S    
C26   O10   S    
C44   H37   S    
C1    C33   S    
C7    C8    S    
C48   H46   S    
C49   H48   S    
O4    Zn2   S    
C13   C18   S    
C39   H24   S    
C12   N1    A    
C30   H22   S    
C29   H21   S    
C3    C33   A    
O16   C49   S    
C35   H9    S    
C3    O13   S    
C35   C36   S    
C9    C13   A    
C45   H38   S    
C20   O6    A    
N2    Zn1   S    
O12   C41   S    
C27   H5    S    
O15   C47   S    
C41   C42   S    
C11   N1    A    
C48   H47   S    
C16   N2    A    
C16   H3    S    
C2    C34   S    
C23   C25   A    
O1    Zn1   S    
C36   H11   S    
C21   C22   A    
C28   H20   S    
C43   H34   S    
O8    Zn2   S    
C50   H51   S    
C4    C34   A    
C36   H12   S    
O6    Zn1   S    
C31   C33   A    
C38   H16   S    
C37   C38   S    
C20   C24   S    
C39   H23   S    
C4    C6    A    
O13   C43   S    
C5    C7    A    
C1    O3    A    
C6    C8    A    
C2    O4    A    
C25   C26   A    
C43   C44   S    
C2    O2    A    
O10   C37   S    
C38   H17   S    
C37   H15   S    
C19   C23   S    
O11   C39   S    
C19   O5    A    
N1    Zn2   S    
C31   O11   S    
O14   C45   S    
C12   H54   S    
C45   H39   S    
C46   H41   S    
C47   C48   S    
C41   H28   S    
C9    C11   A    
C10   C12   A    
C49   H49   S    
O3    Zn2   S    
C21   C28   S    
C22   C27   S    
C42   H31   S    
C14   C16   A    
C42   H32   S    
C15   H2    S    
C14   H1    S    
C27   H19   S    
C40   H26   S    
C50   H52   S    
C15   C17   A    
C32   O12   S    
C5    H7    S    
C36   H13   S    
C11   H53   S    
C25   O9    S    
C24   C26   A    
C3    C5    A    
C10   C13   A    
C40   H27   S    
C50   H50   S    
C44   H36   S    
C9    O15   S    
C49   C50   S    
C38   H18   S    
C8    C30   A    
C37   H14   S    
O7    Zn2   S    
C21   C23   A    
C17   N2    A    
C20   O8    A    
C30   C32   A    
C1    O1    A    
C47   H44   S    
O5    Zn1   S    
O2    Zn1   S    
C43   H33   S    
C35   H10   S    
C46   H42   S    
C22   C24   A    
C17   H4    S    
C45   C46   S    
C40   H25   S    
C19   O7    A    
C42   H30   S    
C29   C31   A    
C6    H8    S    
C4    O14   S    
C46   H40   S    
C28   H6    S    
C41   H29   S    
C10   O16   S    
C32   C34   A    
C27   C28   S    
