data_mof_unit_30232.cif
_audit_creation_date              2012-12-10T18:32:56-0500
_audit_creation_method            fapswitch 2.2
_symmetry_space_group_name_H-M    P1
_symmetry_Int_Tables_number       1
_space_group_crystal_system       triclinic
_cell_length_a                    14.993222
_cell_length_b                    15.45535
_cell_length_c                    15.746029
_cell_angle_alpha                 90.214873
_cell_angle_beta                  104.782549
_cell_angle_gamma                 81.685081
_cell_volume                      3488.80517976

loop_
_atom_site_label
_atom_site_type_symbol
_atom_type_description
_atom_site_fract_x
_atom_site_fract_y
_atom_site_fract_z
_atom_type_partial_charge
C1    C     C_R   0.441276 0.662196 0.484872 0.874772
C2    C     C_R   0.592269 0.244543 0.504433 -0.061295
C3    C     C_R   0.285666 0.881449 0.457153 -0.241228
C4    C     C_R   0.501151 0.500348 0.661687 0.906781
C5    C     C_R   0.317311 0.792931 0.477807 -0.048835
C6    C     C_R   0.456955 0.807593 0.430389 0.126067
C7    C     C_R   0.437239 0.899075 0.435033 0.030849
C8    C     C_R   0.345480 0.935943 0.437499 0.091315
C9    C     C_R   0.506761 0.954382 0.443228 0.070407
C10   C     C_R   0.479440 0.045903 0.441234 0.013619
C11   C     C_R   0.383373 0.079669 0.418807 -0.239293
C12   C     C_3   0.389646 0.513586 0.019415 0.240583
C13   C     C_R   0.316701 0.026456 0.421566 0.210053
C14   C     C_R   0.603261 0.921315 0.463177 -0.211385
C15   C     C_R   0.670397 0.976952 0.476228 -0.250685
C16   C     C_R   0.558417 0.337575 0.510508 0.859242
C17   C     C_R   0.644236 0.066916 0.478902 0.180006
C18   C     C_R   0.548812 0.101095 0.465359 0.110858
C19   C     C_R   0.712281 0.122864 0.500293 -0.205629
C20   C     C_R   0.686135 0.211944 0.511370 -0.197311
C21   C     C_R   0.525657 0.188364 0.484082 -0.271865
C22   C     C_R   0.842233 0.636993 0.632100 -0.320465
C23   C     C_3   0.492348 0.501634 0.080764 0.309552
C24   C     C_R   0.751705 0.618008 0.605320 0.013016
C25   C     C_R   0.797436 0.503720 0.517438 -0.063499
C26   C     C_R   0.891263 0.518608 0.543335 0.012182
C27   C     C_R   0.912412 0.587644 0.600970 0.179327
C28   C     C_R   0.498702 0.499873 0.338316 0.899599
C29   C     C_R   0.963295 0.469630 0.511738 0.028244
C30   C     C_R   0.053822 0.495253 0.532049 0.085450
C31   C     C_R   0.072585 0.562210 0.592543 -0.203898
C32   C     C_R   0.003110 0.607064 0.626623 -0.210728
C33   C     C_R   0.947091 0.396058 0.460339 -0.238521
C34   C     C_3   0.547884 0.414266 0.060925 -0.452022
C35   C     C_R   0.012196 0.355495 0.418457 0.217148
C36   C     C_R   0.097449 0.387817 0.428911 0.111011
C37   C     C_R   0.121156 0.454815 0.488979 -0.052711
C38   C     C_R   0.158778 0.355367 0.378910 -0.300372
C39   C     C_R   0.242232 0.387887 0.387820 0.324807
C40   C     C_3   0.395279 0.512038 0.921536 -0.415606
C41   C     C_R   0.210619 0.480372 0.500802 -0.070627
C42   C     C_3   0.543719 0.578950 0.963653 -0.401163
C43   C     C_3   0.544335 0.576334 0.061703 -0.407718
C44   C     C_1   0.495501 0.500119 0.248651 -0.185500
C45   C     C_3   0.550990 0.414619 0.963776 -0.404918
C46   C     C_3   0.498263 0.501965 0.916867 0.306847
C47   C     C_3   0.330524 0.599972 0.035306 -0.942362
C48   C     C_1   0.340670 0.441279 0.036651 0.159559
C49   C     C_3   0.216332 0.067906 0.408536 -0.941134
C50   C     C_1   0.258491 0.743423 0.511501 0.194276
C51   C     C_3   0.516208 0.767513 0.370898 -0.883583
C52   C     C_3   0.299091 0.358490 0.323970 -0.821847
C53   C     C_3   0.988004 0.278572 0.361871 -0.944367
C54   C     C_1   0.493559 0.500731 0.172866 -0.102286
C55   C     C_1   0.502018 0.502019 0.826271 -0.103004
C56   C     C_1   0.503074 0.501520 0.751153 -0.184183
C57   C     C_R   0.404178 0.755124 0.464808 -0.125589
H1    H     H_    0.362107 0.457488 0.886241 0.157289
H2    H     H_    0.785478 0.097572 0.509317 0.137694
H3    H     H_    0.020131 0.658779 0.671973 0.145341
H4    H     H_    0.236427 0.526435 0.548762 0.152799
H5    H     H_    0.857261 0.689614 0.676759 0.144616
H6    H     H_    0.697159 0.654719 0.630108 0.137403
H7    H     H_    0.773696 0.454761 0.471918 0.127661
H8    H     H_    0.616538 0.575069 0.957528 0.176271
H9    H     H_    0.140433 0.581797 0.615100 0.153217
H10   H     H_    0.883597 0.368387 0.451615 0.138442
H11   H     H_    0.140996 0.306755 0.330347 0.161790
H12   H     H_    0.620457 0.405392 0.103753 0.183802
H13   H     H_    0.504331 0.642325 0.932313 0.171826
H14   H     H_    0.512813 0.640808 0.080322 0.176963
H15   H     H_    0.617906 0.565149 0.102260 0.177912
H16   H     H_    0.518836 0.358647 0.930820 0.177007
H17   H     H_    0.624903 0.405593 0.960025 0.181015
H18   H     H_    0.515909 0.357291 0.075485 0.181661
H19   H     H_    0.257456 0.603782 0.994652 0.243236
H20   H     H_    0.328685 0.604489 0.105288 0.248286
H21   H     H_    0.357920 0.658016 0.016610 0.239630
H22   H     H_    0.206043 0.138888 0.391179 0.240020
H23   H     H_    0.455395 0.213295 0.486045 0.166566
H24   H     H_    0.170833 0.036079 0.354319 0.245973
H25   H     H_    0.194317 0.060786 0.470004 0.241708
H26   H     H_    0.530245 0.818176 0.328195 0.238185
H27   H     H_    0.583703 0.731154 0.409080 0.256866
H28   H     H_    0.478106 0.721541 0.326224 0.231705
H29   H     H_    0.371044 0.329919 0.357718 0.257472
H30   H     H_    0.269480 0.306894 0.281083 0.197215
H31   H     H_    0.298054 0.414288 0.279575 0.255180
H32   H     H_    0.042148 0.220728 0.384914 0.246765
H33   H     H_    0.919968 0.259845 0.364598 0.241099
H34   H     H_    0.738928 0.254672 0.526261 0.154620
H35   H     H_    0.983225 0.295254 0.292177 0.242925
H36   H     H_    0.743433 0.949028 0.490154 0.148095
H37   H     H_    0.216622 0.908201 0.462771 0.163041
H38   H     H_    0.356266 0.573028 0.884472 0.173650
H39   H     H_    0.359008 0.148220 0.402173 0.152781
H40   H     H_    0.629073 0.852474 0.473372 0.170463
N1    N     N_R   0.731690 0.552720 0.548990 -0.101323
N2    N     N_R   0.268300 0.447240 0.450950 -0.099277
N3    N     N_1   0.302511 0.384911 0.050198 -0.220025
N4    N     N_1   0.210835 0.704456 0.538595 -0.241030
O1    O     O_R   0.383120 0.605620 0.475300 -0.603225
O2    O     O_R   0.531890 0.639510 0.506740 -0.615903
O3    O     O_R   0.425580 0.483050 0.607130 -0.613318
O4    O     O_R   0.574360 0.516930 0.638570 -0.611084
O5    O     O_R   0.468110 0.360490 0.493260 -0.624614
O6    O     O_R   0.616880 0.394380 0.524700 -0.616365
O7    O     O_R   0.425640 0.483070 0.361430 -0.616045
O8    O     O_R   0.574420 0.516950 0.392870 -0.612147
Zn1   Zn    Zn3+2 0.400660 0.477370 0.479010 0.946835
Zn2   Zn    Zn3+2 0.599340 0.522630 0.520990 0.937391

loop_
_geom_bond_atom_site_label_1
_geom_bond_atom_site_label_2
_ccdc_geom_bond_type
C11   H39   S    
C31   H9    S    
C55   C56   T    
C43   H15   S    
C35   C53   S    
C18   C21   A    
C19   C20   A    
C41   H4    S    
C12   C48   S    
C51   H28   S    
C7    C8    A    
C45   C46   S    
C40   C46   S    
C12   C23   S    
C26   C27   A    
C8    C13   A    
C23   C54   S    
C24   N1    A    
C45   H16   S    
C36   C37   A    
C10   C18   A    
C47   H19   S    
O8    Zn2   S    
C30   C31   A    
C29   C33   A    
C42   H13   S    
C23   C43   S    
O2    Zn2   S    
C42   C46   S    
C49   H24   S    
C16   O6    A    
C17   C19   A    
C35   C36   A    
C46   C55   S    
C42   H8    S    
C41   N2    A    
C6    C51   S    
C2    C16   S    
C9    C10   A    
C1    O2    A    
C16   O5    A    
C34   H18   S    
C39   C52   S    
O4    Zn2   S    
C4    C56   S    
C6    C57   A    
C2    C21   A    
C12   C47   S    
C48   N3    T    
C20   H34   S    
C40   H1    S    
C2    C20   A    
C52   H31   S    
C3    C8    A    
C19   H2    S    
C25   C26   A    
N2    Zn1   S    
C28   C44   S    
C49   H22   S    
C30   C37   A    
C45   H17   S    
C25   H7    S    
C49   H25   S    
C12   C40   S    
C9    C14   A    
C29   C30   A    
C1    C57   S    
C22   H5    S    
C39   N2    A    
C31   C32   A    
C23   C34   S    
C53   H35   S    
C17   C18   A    
C34   C45   S    
C34   H12   S    
C50   N4    T    
C13   C49   S    
C38   H11   S    
C24   H6    S    
C22   C27   A    
C53   H32   S    
C22   C24   A    
C5    C50   S    
O1    Zn1   S    
C42   C43   S    
C47   H20   S    
C40   H38   S    
C51   H26   S    
C33   H10   S    
C14   H40   S    
O5    Zn1   S    
C7    C9    A    
C43   H14   S    
N1    Zn2   S    
C27   C32   A    
O6    Zn2   S    
C52   H30   S    
C3    C5    A    
C15   H36   S    
C15   C17   A    
C6    C7    A    
C28   O8    A    
C4    O4    A    
C5    C57   A    
C52   H29   S    
O3    Zn1   S    
C11   C13   A    
C38   C39   A    
C28   O7    A    
C4    O3    A    
C21   H23   S    
C36   C38   A    
C33   C35   A    
O7    Zn1   S    
C3    H37   S    
C37   C41   A    
C1    O1    A    
C10   C11   A    
C44   C54   T    
C25   N1    A    
C26   C29   A    
C53   H33   S    
C32   H3    S    
C14   C15   A    
C47   H21   S    
C51   H27   S    
