data_mof_unit_36472.cif
_audit_creation_date              2012-12-11T14:01:13-0500
_audit_creation_method            fapswitch 2.2
_symmetry_space_group_name_H-M    P1
_symmetry_Int_Tables_number       1
_space_group_crystal_system       triclinic
_cell_length_a                    18.991223
_cell_length_b                    11.001158
_cell_length_c                    18.801184
_cell_angle_alpha                 89.804055
_cell_angle_beta                  90.18858
_cell_angle_gamma                 90.038474
_cell_volume                      3928.00062807

loop_
_atom_site_label
_atom_site_type_symbol
_atom_type_description
_atom_site_fract_x
_atom_site_fract_y
_atom_site_fract_z
_atom_type_partial_charge
C1    C     C_R   0.272036 0.044103 0.852843 0.546865
C2    C     C_R   0.727933 0.044209 0.147112 0.543995
C3    C     C_R   0.772035 0.544105 0.852842 0.543982
C4    C     C_R   0.227936 0.544217 0.147117 0.544533
C5    C     C_R   0.487250 0.054848 0.072069 -0.103706
C6    C     C_R   0.513615 0.054358 0.926744 -0.104004
C7    C     C_R   0.987228 0.554842 0.072093 -0.103720
C8    C     C_R   0.013570 0.554385 0.926764 -0.103716
C9    C     C_R   0.992019 0.666190 0.035785 0.069549
C10   C     C_R   0.008851 0.665964 0.962388 0.068570
C11   C     C_R   0.492038 0.166188 0.035750 0.069539
C12   C     C_R   0.508891 0.165945 0.962356 0.068822
C13   C     C_2   0.250733 0.581180 0.921131 -0.048514
C14   C     C_2   0.749339 0.581734 0.078950 -0.048083
C15   C     C_2   0.750726 0.081154 0.921121 -0.047742
C16   C     C_2   0.249339 0.081731 0.078951 -0.048173
C17   C     C_2   0.253788 0.600330 0.081421 0.039129
C18   C     C_2   0.746178 0.600179 0.918362 0.039454
C19   C     C_2   0.753781 0.100308 0.081410 0.039124
C20   C     C_2   0.246180 0.100178 0.918363 0.039242
C21   C     C_2   0.296930 0.534816 0.039545 -0.132925
C22   C     C_2   0.703233 0.534521 0.960665 -0.132162
C23   C     C_2   0.796920 0.034786 0.039536 -0.133136
C24   C     C_2   0.203233 0.034523 0.960665 -0.132418
C25   C     C_2   0.306528 0.562124 0.963940 -0.104120
C26   C     C_2   0.693600 0.562071 0.036186 -0.103097
C27   C     C_2   0.806520 0.062090 0.963931 -0.103086
C28   C     C_2   0.193599 0.062076 0.036186 -0.103119
C29   C     C_2   0.511606 0.841128 0.584289 -0.105946
C30   C     C_2   0.513991 0.829080 0.428281 -0.096096
C31   C     C_2   0.011572 0.340388 0.584257 -0.102131
C32   C     C_2   0.013929 0.328912 0.428296 -0.096380
C33   C     C_2   0.549650 0.754834 0.472703 -0.154051
C34   C     C_2   0.533615 0.745121 0.547914 -0.171515
C35   C     C_2   0.047999 0.252078 0.472509 -0.156552
C36   C     C_2   0.032647 0.243671 0.547865 -0.170756
C37   C     C_2   0.266976 0.653458 0.565417 -0.112047
C38   C     C_2   0.750036 0.581944 0.422760 -0.128062
C39   C     C_2   0.751728 0.087460 0.576439 -0.125563
C40   C     C_2   0.247664 0.088000 0.424340 -0.124683
C41   C     C_2   0.256386 0.614241 0.412565 -0.113029
C42   C     C_2   0.752700 0.594818 0.578792 -0.097535
C43   C     C_2   0.746486 0.095014 0.420946 -0.099044
C44   C     C_2   0.251137 0.098599 0.580402 -0.100713
C45   C     C_R   0.471475 0.822066 0.853173 0.537581
C46   C     C_R   0.528498 0.822241 0.146823 0.538021
C47   C     C_R   0.971470 0.322068 0.853177 0.537300
C48   C     C_R   0.028495 0.322241 0.146826 0.538337
C49   C     C_2   0.220465 0.700969 0.448940 -0.021032
C50   C     C_2   0.802173 0.647780 0.536724 -0.013960
C51   C     C_2   0.696712 0.147043 0.463230 -0.013273
C52   C     C_2   0.299733 0.152814 0.537914 -0.013869
C53   C     C_2   0.249393 0.738081 0.517803 -0.147561
C54   C     C_2   0.805621 0.618692 0.460616 -0.136788
C55   C     C_2   0.694502 0.117597 0.539426 -0.134969
C56   C     C_2   0.303879 0.120863 0.462224 -0.143260
C57   C     C_R   0.261165 0.636327 0.851528 0.568758
C58   C     C_R   0.738815 0.636590 0.148450 0.559452
C59   C     C_R   0.761163 0.136321 0.851527 0.558710
C60   C     C_R   0.238816 0.136587 0.148451 0.559757
C61   C     C_R   0.271729 0.048959 0.649057 0.531938
C62   C     C_R   0.727806 0.048006 0.351371 0.541719
C63   C     C_R   0.772016 0.548104 0.648554 0.540390
C64   C     C_R   0.228195 0.548157 0.351340 0.541800
C65   C     C_R   0.471941 0.824820 0.649165 0.543786
C66   C     C_R   0.532024 0.823215 0.353731 0.546538
C67   C     C_R   0.972004 0.324735 0.649222 0.553508
C68   C     C_R   0.032129 0.323159 0.353786 0.546976
C69   C     C_R   0.274793 0.688756 0.638349 0.564276
C70   C     C_R   0.740012 0.634662 0.353071 0.547225
C71   C     C_R   0.760123 0.135339 0.646929 0.549888
C72   C     C_R   0.239764 0.135389 0.353365 0.549006
C73   C     C_R   0.500402 0.830587 0.074392 0.012691
C74   C     C_R   0.499392 0.830179 0.925644 0.013067
C75   C     C_R   0.000388 0.330587 0.074400 0.012607
C76   C     C_R   0.999374 0.330190 0.925653 0.013964
C77   C     C_R   0.497106 0.942948 0.037071 -0.000944
C78   C     C_R   0.503325 0.942708 0.962365 -0.000467
C79   C     C_R   0.997081 0.442949 0.037085 -0.001066
C80   C     C_R   0.003295 0.442721 0.962378 -0.000483
C81   C     C_R   0.500180 0.720980 0.963976 -0.127784
C82   C     C_R   0.498646 0.721199 0.036658 -0.127759
C83   C     C_R   0.000167 0.220988 0.963983 -0.127576
C84   C     C_R   0.998634 0.221201 0.036664 -0.127869
Cr1   Cr    Cr6+3 0.230530 0.836340 0.748870 1.036784
Cr2   Cr    Cr6+3 0.769470 0.836340 0.251130 1.039318
Cr3   Cr    Cr6+3 0.730530 0.336340 0.748870 1.039949
Cr4   Cr    Cr6+3 0.269470 0.336340 0.251130 1.039100
Cr5   Cr    Cr6+3 0.387420 0.989430 0.750820 1.058085
Cr6   Cr    Cr6+3 0.612580 0.989430 0.249180 1.063538
Cr7   Cr    Cr6+3 0.887420 0.489430 0.750820 1.066415
Cr8   Cr    Cr6+3 0.112580 0.489430 0.249180 1.063226
Cr9   Cr    Cr6+3 0.385640 0.677860 0.749230 1.022026
Cr10  Cr    Cr6+3 0.614360 0.677860 0.250770 1.024720
Cr11  Cr    Cr6+3 0.885640 0.177860 0.749230 1.025430
Cr12  Cr    Cr6+3 0.114360 0.177860 0.250770 1.021829
H1    H     H_    0.498239 0.633320 0.937902 0.176976
H2    H     H_    0.499859 0.633624 0.063220 0.175879
H3    H     H_    0.998232 0.133329 0.937907 0.176934
H4    H     H_    0.999852 0.133624 0.063224 0.175886
H5    H     H_    0.248729 0.833009 0.533194 0.122707
H6    H     H_    0.852310 0.648592 0.432434 0.148252
H7    H     H_    0.646849 0.139870 0.568205 0.147118
H8    H     H_    0.351872 0.145157 0.434353 0.145668
H9    H     H_    0.307653 0.584659 0.431896 0.090853
H10   H     H_    0.706078 0.552802 0.557020 0.074447
H11   H     H_    0.793665 0.054328 0.442215 0.077123
H12   H     H_    0.204832 0.055534 0.558922 0.066952
H13   H     H_    0.265952 0.557462 0.552747 0.105725
H14   H     H_    0.703330 0.544970 0.446906 0.088695
H15   H     H_    0.800238 0.062951 0.551265 0.100123
H16   H     H_    0.198922 0.062194 0.448822 0.088151
H17   H     H_    0.472256 0.055987 0.127531 0.163054
H18   H     H_    0.528670 0.055097 0.871291 0.162920
H19   H     H_    0.972241 0.555971 0.127557 0.163031
H20   H     H_    0.028617 0.555144 0.871310 0.164337
H21   H     H_    0.320252 0.450840 0.058783 0.198296
H22   H     H_    0.680041 0.450367 0.941818 0.198967
H23   H     H_    0.820241 0.950811 0.058777 0.198317
H24   H     H_    0.180037 0.950371 0.941819 0.198817
H25   H     H_    0.360074 0.568095 0.944103 0.161570
H26   H     H_    0.640044 0.567536 0.056021 0.161852
H27   H     H_    0.860067 0.068063 0.944096 0.161795
H28   H     H_    0.140044 0.067547 0.056021 0.161934
H29   H     H_    0.197449 0.574128 0.941763 0.127268
H30   H     H_    0.802637 0.575131 0.058350 0.127192
H31   H     H_    0.697442 0.074101 0.941750 0.127289
H32   H     H_    0.302637 0.075123 0.058353 0.127081
H33   H     H_    0.588358 0.691279 0.452298 0.149470
H34   H     H_    0.534975 0.655135 0.571873 0.145654
H35   H     H_    0.084939 0.185619 0.451963 0.149176
H36   H     H_    0.033636 0.153746 0.571946 0.146045
H37   H     H_    0.475582 0.894811 0.446689 0.084935
H38   H     H_    0.514520 0.931969 0.561477 0.101036
H39   H     H_    0.977230 0.397304 0.446916 0.087145
H40   H     H_    0.014863 0.431113 0.561386 0.104119
O1    O     O_R   0.215090 0.709860 0.828130 -0.493932
O2    O     O_R   0.784910 0.709860 0.171870 -0.499283
O3    O     O_R   0.715090 0.209860 0.828130 -0.498794
O4    O     O_R   0.284910 0.209860 0.171870 -0.499126
O5    O     O_R   0.445660 0.919250 0.676780 -0.506212
O6    O     O_R   0.554340 0.919250 0.323220 -0.500701
O7    O     O_R   0.945660 0.419250 0.676780 -0.502379
O8    O     O_R   0.054340 0.419250 0.323220 -0.500312
O9    O     O_R   0.456260 0.718170 0.670000 -0.524824
O10   O     O_R   0.543740 0.718170 0.330000 -0.518789
O11   O     O_R   0.956260 0.218170 0.670000 -0.518675
O12   O     O_R   0.043740 0.218170 0.330000 -0.521594
O13   O     O_R   0.320940 0.626760 0.674370 -0.511574
O14   O     O_R   0.679060 0.626760 0.325630 -0.513547
O15   O     O_R   0.820940 0.126760 0.674370 -0.509490
O16   O     O_R   0.179060 0.126760 0.325630 -0.514309
O17   O     O_3   0.334530 0.834540 0.749640 -0.271684
O18   O     O_3   0.665470 0.834540 0.250360 -0.252246
O19   O     O_3   0.834530 0.334540 0.749640 -0.251289
O20   O     O_3   0.165470 0.334540 0.250360 -0.252308
O21   O     O_R   0.236990 0.958390 0.823710 -0.510802
O22   O     O_R   0.763010 0.958390 0.176290 -0.512525
O23   O     O_R   0.736990 0.458390 0.823710 -0.512070
O24   O     O_R   0.263010 0.458390 0.176290 -0.512301
O25   O     O_R   0.332380 0.074750 0.830850 -0.443444
O26   O     O_R   0.667620 0.074750 0.169150 -0.445215
O27   O     O_R   0.832380 0.574750 0.830850 -0.445661
O28   O     O_R   0.167620 0.574750 0.169150 -0.444902
O29   O     O_R   0.445800 0.917770 0.825070 -0.495120
O30   O     O_R   0.554200 0.917770 0.174930 -0.496340
O31   O     O_R   0.945800 0.417770 0.825070 -0.496817
O32   O     O_R   0.054200 0.417770 0.174930 -0.496079
O33   O     O_R   0.456410 0.716580 0.829970 -0.523080
O34   O     O_R   0.543590 0.716580 0.170030 -0.522930
O35   O     O_R   0.956410 0.216580 0.829970 -0.523971
O36   O     O_R   0.043590 0.216580 0.170030 -0.522932
O37   O     O_R   0.321080 0.625290 0.822650 -0.491294
O38   O     O_R   0.678920 0.625290 0.177350 -0.496281
O39   O     O_R   0.821080 0.125290 0.822650 -0.497183
O40   O     O_R   0.178920 0.125290 0.177350 -0.496413
O41   O     O_R   0.214930 0.711450 0.668160 -0.501406
O42   O     O_R   0.785070 0.711450 0.331840 -0.514702
O43   O     O_R   0.714930 0.211450 0.668160 -0.514752
O44   O     O_R   0.285070 0.211450 0.331840 -0.514359
O45   O     O_R   0.236850 0.959870 0.675420 -0.521949
O46   O     O_R   0.763150 0.959870 0.324580 -0.500668
O47   O     O_R   0.736850 0.459870 0.675420 -0.501750
O48   O     O_R   0.263150 0.459870 0.324580 -0.500752
O49   O     O_R   0.332230 0.076350 0.670880 -0.522128
O50   O     O_R   0.667770 0.076350 0.329120 -0.527337
O51   O     O_R   0.832230 0.576350 0.670880 -0.526144
O52   O     O_R   0.167770 0.576350 0.329120 -0.529426
C85   C     C_3   0.149779 0.752900 0.423858 -0.208954
C86   C     C_3   0.112397 0.842159 0.473703 -0.323232
C87   C     C_3   0.056515 0.913889 0.432850 -0.457279
H41   H     H_    0.080657 0.964129 0.387764 0.180480
H42   H     H_    0.015349 0.851821 0.411909 0.152609
H43   H     H_    0.032142 0.981523 0.468414 0.142976
H44   H     H_    0.087201 0.791360 0.518086 0.167943
H45   H     H_    0.149107 0.907514 0.497358 0.152157
H46   H     H_    0.158693 0.797331 0.371397 0.170607
H47   H     H_    0.111388 0.677475 0.417804 0.180920
C88   C     C_3   0.860644 0.728994 0.566628 -0.221087
C89   C     C_3   0.876976 0.840111 0.520224 -0.327207
C90   C     C_3   0.921537 0.932409 0.561103 -0.454360
H48   H     H_    0.896142 0.957101 0.612070 0.181471
H49   H     H_    0.974304 0.893868 0.573034 0.151911
H50   H     H_    0.927511 0.016419 0.528841 0.147720
H51   H     H_    0.906605 0.813044 0.472139 0.157914
H52   H     H_    0.826818 0.882093 0.502889 0.171780
H53   H     H_    0.843810 0.765659 0.618907 0.181401
H54   H     H_    0.909557 0.674640 0.573612 0.162253
C91   C     C_3   0.636308 0.224466 0.433421 -0.218234
C92   C     C_3   0.611853 0.327019 0.482729 -0.329837
C93   C     C_3   0.565118 0.417132 0.442644 -0.457690
H55   H     H_    0.594086 0.459300 0.397713 0.176019
H56   H     H_    0.517575 0.370503 0.421623 0.156826
H57   H     H_    0.548297 0.489843 0.479378 0.138683
H58   H     H_    0.580494 0.289365 0.527400 0.153903
H59   H     H_    0.658192 0.375063 0.505053 0.171720
H60   H     H_    0.654242 0.268709 0.383337 0.178202
H61   H     H_    0.590336 0.164911 0.421907 0.168600
C94   C     C_3   0.356822 0.237598 0.566649 -0.219138
C95   C     C_3   0.369007 0.349373 0.518936 -0.321619
C96   C     C_3   0.415202 0.443274 0.556220 -0.455027
H62   H     H_    0.390719 0.472223 0.606730 0.193312
H63   H     H_    0.467697 0.403946 0.568390 0.148752
H64   H     H_    0.421832 0.524213 0.521421 0.151147
H65   H     H_    0.395839 0.322904 0.469018 0.160391
H66   H     H_    0.317656 0.390838 0.504635 0.169654
H67   H     H_    0.341033 0.272316 0.619733 0.182175
H68   H     H_    0.407073 0.186467 0.571972 0.155696
C97   C     C_2   0.977515 0.779042 0.076506 0.605040
O53   O     O_2   0.950369 0.866900 0.047468 -0.541048
O54   O     O_R   0.992777 0.783184 0.149294 -0.693955
H69   H     H_    0.980012 0.864115 0.171432 0.328622
C98   C     C_2   0.023326 0.778585 0.920953 0.605907
O55   O     O_2   0.050172 0.866907 0.949496 -0.540558
O56   O     O_R   0.008345 0.782016 0.848080 -0.692844
H70   H     H_    0.021065 0.862852 0.825438 0.329074
C99   C     C_2   0.477501 0.279048 0.076450 0.604959
O57   O     O_2   0.450365 0.366892 0.047388 -0.541008
O58   O     O_R   0.492714 0.283212 0.149247 -0.693699
H71   H     H_    0.479922 0.364144 0.171369 0.328872
C100  C     C_2   0.523384 0.278552 0.920915 0.605920
O59   O     O_2   0.550201 0.366896 0.949465 -0.540535
O60   O     O_R   0.508459 0.281944 0.848029 -0.693716
H72   H     H_    0.521196 0.362769 0.825383 0.328846
C101  C     C_2   0.225803 0.721482 0.059546 0.550900
O61   O     O_2   0.262679 0.791499 0.025373 -0.545550
O62   O     O_R   0.157534 0.755435 0.078664 -0.657233
H73   H     H_    0.143522 0.837890 0.059514 0.350232
C102  C     C_2   0.774045 0.721585 0.939618 0.551169
O63   O     O_2   0.737189 0.791381 0.973634 -0.544961
O64   O     O_R   0.842175 0.756056 0.920075 -0.657166
H74   H     H_    0.856059 0.838727 0.938717 0.350773
C103  C     C_2   0.725796 0.221456 0.059528 0.551051
O65   O     O_2   0.762676 0.291474 0.025360 -0.545193
O66   O     O_R   0.657522 0.255404 0.078633 -0.657159
H75   H     H_    0.643513 0.337861 0.059483 0.350237
C104  C     C_2   0.274047 0.221585 0.939618 0.552264
O67   O     O_2   0.237193 0.291379 0.973637 -0.544414
O68   O     O_R   0.342175 0.256061 0.920068 -0.656396
H76   H     H_    0.356052 0.338744 0.938697 0.350991

loop_
_geom_bond_atom_site_label_1
_geom_bond_atom_site_label_2
_ccdc_geom_bond_type
C85   H47   S    
C16   C28   D    
Cr3   O23   S    
C38   C70   S    
C101  O62   S    
Cr10  O10   S    
C89   H51   S    
Cr5   O25   S    
C37   C69   S    
C90   H49   S    
C90   H48   S    
Cr9   O13   S    
C35   C36   S    
C70   O14   A    
C67   O7    A    
C2    O26   A    
C81   C82   A    
O64   H74   S    
C40   H16   S    
Cr12  O20   S    
C77   C78   A    
C31   C67   S    
Cr9   O33   S    
C102  O63   D    
C50   C54   S    
C75   C79   A    
C41   H9    S    
Cr6   O26   S    
Cr2   O46   S    
C91   H61   S    
Cr4   O20   S    
Cr7   O31   S    
O58   H71   S    
C47   C76   S    
C5    C11   A    
C96   H64   S    
C59   O39   A    
C36   H36   S    
C92   C93   S    
C23   H23   S    
C103  O65   D    
C49   C53   S    
C75   C84   A    
Cr4   O48   S    
C49   C85   S    
C18   C102  S    
C33   H33   S    
O60   H72   S    
Cr12  O16   S    
C11   C12   A    
C55   H7    S    
Cr2   O42   S    
C65   O5    A    
C3    C18   S    
C9    C97   S    
C100  O59   D    
C16   C60   S    
C71   O43   A    
Cr11  O39   S    
C6    H18   S    
C21   C25   S    
C69   O41   A    
C48   O36   A    
C52   C56   S    
Cr5   O17   S    
C19   C103  S    
C39   C55   D    
C28   H28   S    
C20   C24   D    
C53   H5    S    
C89   C90   S    
C72   O16   A    
C48   O32   A    
C89   H52   S    
O56   H70   S    
C4    O28   A    
Cr9   O9    S    
C23   C27   S    
C94   H68   S    
C38   H14   S    
Cr12  O40   S    
C98   O55   D    
C37   H13   S    
C68   O12   A    
C3    O27   A    
C20   C104  S    
C62   O50   A    
C37   C53   D    
Cr8   O28   S    
C39   H15   S    
C29   H38   S    
C1    O25   A    
C88   C89   S    
C15   H31   S    
C99   O57   D    
Cr6   O30   S    
C3    O23   A    
C82   H2    S    
C48   C75   S    
Cr7   O27   S    
C58   O38   A    
Cr1   O21   S    
Cr12  O12   S    
C76   C83   A    
C41   C49   D    
C95   C96   S    
Cr9   O37   S    
Cr4   O44   S    
Cr7   O7    S    
C44   H12   S    
C14   C58   S    
C71   O15   A    
C102  O64   S    
C63   O47   A    
C17   C101  S    
C24   H24   S    
C95   H66   S    
C87   H41   S    
C84   H4    S    
C32   C35   D    
C76   C80   A    
Cr11  O11   S    
C79   C80   A    
C56   H8    S    
C88   H53   S    
Cr12  O36   S    
C94   C95   S    
C103  O66   S    
C101  O61   D    
C27   H27   S    
C7    H19   S    
C70   O42   A    
Cr1   O17   S    
Cr6   O50   S    
C51   C55   S    
C40   C56   D    
C29   C34   D    
C92   H59   S    
C17   C21   D    
C46   O34   A    
C45   C74   S    
C10   C98   S    
C64   O48   A    
Cr2   O2    S    
C19   C23   D    
C87   H42   S    
C86   C87   S    
Cr7   O19   S    
C97   O53   D    
C62   O46   A    
C96   H62   S    
C47   O31   A    
C51   C91   S    
C15   C27   D    
C83   C84   A    
C38   C54   D    
C59   O3    A    
C50   C88   S    
C30   H37   S    
C64   O52   A    
C61   O49   A    
C91   C92   S    
C57   O1    A    
Cr8   O20   S    
C43   H11   S    
C14   C26   D    
C16   H32   S    
Cr5   O29   S    
C30   C66   S    
C86   H44   S    
Cr10  O38   S    
C57   O37   A    
C4    C17   S    
C8    C10   A    
C93   H56   S    
C42   C50   D    
C94   H67   S    
Cr2   O22   S    
C63   O51   A    
C99   O58   S    
C74   C78   A    
C60   O40   A    
C90   H50   S    
C29   C65   S    
Cr11  O15   S    
C60   O4    A    
C72   O44   A    
C74   C81   A    
C5    C77   A    
O68   H76   S    
C6    C12   A    
C35   H35   S    
C73   C82   A    
C104  O67   D    
C7    C79   A    
C9    C10   A    
Cr1   O1    S    
C85   H46   S    
C22   H22   S    
Cr4   O4    S    
Cr7   O51   S    
C52   C94   S    
Cr1   O45   S    
C46   O30   A    
C30   C33   D    
C5    H17   S    
C2    C19   S    
C18   C22   D    
Cr5   O49   S    
C54   H6    S    
C24   C28   S    
Cr3   O3    S    
C31   H40   S    
C1    C20   S    
C45   O33   A    
C44   C52   D    
C32   H39   S    
C47   O35   A    
O62   H73   S    
Cr8   O52   S    
C11   C99   S    
C66   O6    A    
Cr3   O19   S    
C86   H45   S    
C44   C61   S    
Cr6   O6    S    
C92   H58   S    
C25   H25   S    
C61   O45   A    
C14   H30   S    
C32   C68   S    
C96   H63   S    
C69   O13   A    
C1    O21   A    
Cr2   O18   S    
C87   H43   S    
C13   H29   S    
C97   O54   S    
Cr10  O34   S    
Cr3   O47   S    
Cr10  O18   S    
C58   O2    A    
Cr6   O18   S    
C4    O24   A    
C45   O29   A    
C13   C25   D    
C43   C51   D    
Cr5   O5    S    
C65   O9    A    
Cr9   O17   S    
C88   H54   S    
C81   H1    S    
C33   C34   S    
C95   H65   S    
C68   O8    A    
Cr11  O19   S    
Cr4   O24   S    
C85   C86   S    
Cr8   O8    S    
C15   C59   S    
Cr8   O32   S    
C66   O10   A    
C21   H21   S    
C6    C78   A    
C8    H20   S    
Cr3   O43   S    
C93   H55   S    
C42   H10   S    
C7    C9    A    
Cr10  O14   S    
C40   C72   S    
C13   C57   S    
C2    O22   A    
C34   H34   S    
C73   C77   A    
Cr1   O41   S    
C12   C100  S    
C22   C26   S    
C67   O11   A    
C98   O56   S    
O54   H69   S    
C8    C80   A    
C39   C71   S    
C31   C36   D    
C83   H3    S    
C26   H26   S    
C41   C64   S    
C100  O60   S    
C93   H57   S    
C104  O68   S    
Cr11  O35   S    
C42   C63   S    
C46   C73   S    
O66   H75   S    
C43   C62   S    
C91   H60   S    
