data_mof_unit_41751.cif
_audit_creation_date              2012-12-11T14:49:37-0500
_audit_creation_method            fapswitch 2.2
_symmetry_space_group_name_H-M    P1
_symmetry_Int_Tables_number       1
_space_group_crystal_system       triclinic
_cell_length_a                    16.940407
_cell_length_b                    7.020956
_cell_length_c                    16.819191
_cell_angle_alpha                 89.969885
_cell_angle_beta                  100.847004
_cell_angle_gamma                 90.004204
_cell_volume                      1964.69674163

loop_
_atom_site_label
_atom_site_type_symbol
_atom_type_description
_atom_site_fract_x
_atom_site_fract_y
_atom_site_fract_z
_atom_type_partial_charge
O1    O     O_R   0.579510 0.506290 0.439030 -0.535116
O2    O     O_R   0.420490 0.006290 0.560970 -0.535259
O3    O     O_R   0.412540 0.170090 0.405290 -0.540296
O4    O     O_R   0.587460 0.670090 0.594710 -0.540098
C1    C     C_R   0.385232 0.345998 0.381645 0.677732
C2    C     C_R   0.614645 0.845926 0.618545 0.677371
O5    O     O_R   0.578390 0.176230 0.429330 -0.540471
O6    O     O_R   0.421610 0.676230 0.570670 -0.539940
O7    O     O_R   0.587530 0.011250 0.585190 -0.543562
O8    O     O_R   0.412470 0.511250 0.414810 -0.543547
C3    C     C_R   0.602309 0.344921 0.410931 0.706555
C4    C     C_R   0.397392 0.844892 0.588701 0.705483
O9    O     O_3   0.502800 0.340940 0.551110 -0.367915
O10   O     O_3   0.497200 0.840940 0.448890 -0.368220
V1    V     V_3+5 0.499480 0.064020 0.490520 1.393096
V2    V     V_3+5 0.500520 0.564020 0.509480 1.394207
C5    C     C_R   0.171211 0.923150 0.866664 -0.107579
C6    C     C_R   0.828797 0.423481 0.133129 -0.065333
C7    C     C_R   0.337888 0.848521 0.643741 -0.058663
C8    C     C_R   0.661384 0.347761 0.355315 -0.065079
C9    C     C_R   0.218156 0.703372 0.679387 -0.174196
C10   C     C_R   0.777671 0.193503 0.316346 -0.179489
C11   C     C_R   0.274145 0.717301 0.628531 -0.218456
C12   C     C_R   0.722721 0.209957 0.368112 -0.220473
C13   C     C_R   0.345740 0.967937 0.713300 0.102972
C14   C     C_R   0.655172 0.471968 0.287281 0.102661
C15   C     C_R   0.287734 0.953908 0.764868 0.078958
C16   C     C_R   0.713023 0.457390 0.235515 0.113160
C17   C     C_R   0.224103 0.820035 0.747625 0.122597
C18   C     C_R   0.773705 0.315558 0.250034 0.125177
C19   C     C_R   0.166828 0.804907 0.798567 -0.263506
C20   C     C_R   0.830330 0.298280 0.198550 -0.300840
C21   C     C_R   0.235938 0.053595 0.884834 0.193324
C22   C     C_R   0.767921 0.563322 0.117976 0.197115
C23   C     C_R   0.292391 0.068340 0.834380 -0.154829
C24   C     C_R   0.711354 0.579598 0.168669 -0.236780
H1    H     H_    0.117452 0.704894 0.783926 0.123334
H2    H     H_    0.877364 0.191696 0.211063 0.127822
H3    H     H_    0.169991 0.600156 0.665268 0.119970
H4    H     H_    0.823698 0.084561 0.328449 0.122547
H5    H     H_    0.339726 0.172335 0.850772 0.149681
H6    H     H_    0.666860 0.691159 0.154971 0.135685
H7    H     H_    0.267622 0.623816 0.576443 0.123874
H8    H     H_    0.728006 0.112599 0.418870 0.127279
C25   C     C_3   0.738982 0.816843 0.843201 -0.324175
C26   C     C_3   0.260810 0.316514 0.157577 -0.331404
H9    H     H_    0.757474 0.672266 0.866776 0.163580
H10   H     H_    0.242106 0.171006 0.135898 0.147891
H11   H     H_    0.725640 0.894372 0.896627 0.114910
H12   H     H_    0.273887 0.391533 0.103390 0.125912
C27   C     C_3   0.661890 0.804148 0.774455 0.369957
C28   C     C_3   0.338091 0.305176 0.226019 0.375013
H13   H     H_    0.851715 0.632814 0.771819 0.162770
H14   H     H_    0.147428 0.133878 0.228916 0.162536
H15   H     H_    0.744443 0.593895 0.667268 0.158943
H16   H     H_    0.255466 0.093651 0.332558 0.159232
C29   C     C_3   0.832313 0.774594 0.745810 -0.381876
C30   C     C_3   0.167349 0.275441 0.254788 -0.378585
C31   C     C_3   0.786356 0.105227 0.771165 0.074198
C32   C     C_3   0.213485 0.605631 0.229052 0.078839
C33   C     C_3   0.811612 0.909331 0.812682 0.028839
C34   C     C_3   0.188174 0.409642 0.187732 0.034613
H17   H     H_    0.838430 0.159654 0.745854 0.104425
H18   H     H_    0.161381 0.660524 0.254162 0.103952
C35   C     C_3   0.685163 0.864922 0.690839 0.082103
C36   C     C_3   0.314669 0.365257 0.309531 0.080208
C37   C     C_3   0.758969 0.747479 0.675628 -0.394778
C38   C     C_3   0.240918 0.247340 0.324701 -0.395801
C39   C     C_3   0.715562 0.077064 0.698834 -0.298626
C40   C     C_3   0.284126 0.577362 0.301576 -0.299768
H19   H     H_    0.665623 0.176113 0.703730 0.178195
H20   H     H_    0.334016 0.676742 0.296854 0.178619
H21   H     H_    0.735951 0.119898 0.642172 0.104019
H22   H     H_    0.263538 0.619669 0.358179 0.103588
H23   H     H_    0.883751 0.834031 0.721294 0.129138
H24   H     H_    0.116236 0.335840 0.279520 0.129054
H25   H     H_    0.775982 0.794843 0.617967 0.135020
H26   H     H_    0.224118 0.293634 0.382582 0.135113
O11   O     O_R   0.087500 0.266000 0.085220 -0.544996
O12   O     O_R   0.912500 0.766000 0.914780 -0.535161
O13   O     O_R   0.921600 0.589950 0.070670 -0.518526
O14   O     O_R   0.078400 0.089950 0.929330 -0.542439
C41   C     C_R   0.894155 0.422785 0.085055 0.743409
C42   C     C_R   0.105896 0.922867 0.914933 0.696960
O15   O     O_R   0.087460 0.596020 0.094710 -0.542453
O16   O     O_R   0.912540 0.096020 0.905290 -0.541730
O17   O     O_R   0.079520 0.760970 0.939020 -0.536230
O18   O     O_R   0.920480 0.260970 0.060980 -0.542620
C43   C     C_R   0.116098 0.426349 0.117899 0.657468
C44   C     C_R   0.883802 0.926346 0.882262 0.682975
O19   O     O_3   0.997180 0.425140 0.948910 -0.373462
O20   O     O_3   0.002820 0.925140 0.051090 -0.369343
V3    V     V_3+5 0.000520 0.702080 0.009480 1.399079
V4    V     V_3+5 0.999480 0.202080 0.990520 1.370813
C45   C     C_3   0.627398 0.599121 0.771632 -0.735789
H27   H     H_    0.621404 0.551853 0.833308 0.193742
H28   H     H_    0.566342 0.592982 0.733584 0.220009
H29   H     H_    0.666225 0.495689 0.748181 0.216974
C46   C     C_3   0.373192 0.100653 0.228817 -0.733940
H30   H     H_    0.434387 0.095429 0.266613 0.218516
H31   H     H_    0.334782 0.996384 0.252458 0.215487
H32   H     H_    0.379055 0.053717 0.167080 0.198975
N1    N     N_3   0.764971 0.250459 0.826677 -0.700267
H33   H     H_    0.758352 0.193522 0.882315 0.232044
H34   H     H_    0.811013 0.351411 0.838868 0.235469
N2    N     N_3   0.235117 0.750432 0.173431 -0.703212
H35   H     H_    0.242147 0.692816 0.118053 0.229867
H36   H     H_    0.188991 0.851091 0.160722 0.232198
N3    N     N_3   0.248087 0.168750 0.956346 -0.688567
H37   H     H_    0.245835 0.080171 0.005765 0.212167
H38   H     H_    0.202502 0.270597 0.951322 0.244256
N4    N     N_3   0.762677 0.689049 0.050011 -0.677331
H39   H     H_    0.766887 0.829119 0.071517 0.227870
H40   H     H_    0.705976 0.671843 0.013426 0.210989
C47   C     C_3   0.416422 0.102917 0.735530 -0.772117
H41   H     H_    0.463218 0.086352 0.698439 0.240403
H42   H     H_    0.394754 0.252472 0.729929 0.206722
H43   H     H_    0.447324 0.075794 0.798738 0.205575
C48   C     C_3   0.586001 0.611671 0.266439 -0.767279
H44   H     H_    0.538146 0.592491 0.302097 0.238863
H45   H     H_    0.609027 0.759732 0.275257 0.206925
H46   H     H_    0.555824 0.591961 0.202449 0.204501
N5    N     N_3   0.598982 0.931984 0.793675 -0.700902
H47   H     H_    0.622501 0.065934 0.811617 0.241434
H48   H     H_    0.577603 0.879102 0.843855 0.228287
N6    N     N_3   0.400599 0.434268 0.206655 -0.699603
H49   H     H_    0.376588 0.567530 0.188266 0.242340
H50   H     H_    0.422469 0.381493 0.156767 0.235045

loop_
_geom_bond_atom_site_label_1
_geom_bond_atom_site_label_2
_ccdc_geom_bond_type
C30   C34   S    
C36   C38   S    
N6    H49   S    
O14   V4    S    
C15   C17   A    
C27   N5    S    
C24   H6    S    
C45   H27   S    
O1    C3    A    
C42   O17   A    
O2    C4    A    
C2    O7    A    
N4    H40   S    
C45   H29   S    
C30   H24   S    
N5    H47   S    
O5    C3    A    
N2    H36   S    
C26   C34   S    
O15   C43   A    
C13   C47   S    
C35   C39   S    
N5    H48   S    
C35   C37   S    
N2    H35   S    
C25   C27   S    
C47   H41   S    
C34   C43   S    
C26   C28   S    
C22   N4    S    
C32   C34   S    
C27   C35   S    
C25   H9    S    
C25   C33   S    
C39   H19   S    
O16   V4    S    
O15   V3    S    
C2    C35   S    
C8    C12   A    
C47   H42   S    
C37   H25   S    
C40   H22   S    
C39   H21   S    
C20   H2    S    
O5    V1    S    
C41   O18   A    
O6    V2    S    
C32   C40   S    
C5    C21   A    
C29   C37   S    
C23   H5    S    
N4    H39   S    
O13   C41   A    
O18   V4    S    
C48   H45   S    
C38   H26   S    
C26   H10   S    
C3    C8    S    
C31   C33   S    
C14   C48   S    
O11   V4    S    
O4    C2    A    
O16   C44   A    
C28   N6    S    
C15   C23   A    
H16   C38   S    
C9    C17   A    
C19   H1    S    
O4    V2    S    
C7    C11   A    
O19   V3    S    
O13   V3    S    
C46   H30   S    
C9    H3    S    
C25   H11   S    
O6    C4    A    
C47   H43   S    
C10   H4    S    
O20   V4    S    
C6    C41   S    
N1    H34   S    
O1    V2    S    
O2    V1    S    
C6    C22   A    
C31   C39   S    
C30   C38   S    
C46   H31   S    
O14   C42   A    
C9    C11   A    
C5    C19   A    
C10   C12   A    
C21   N3    S    
C28   C36   S    
C33   C44   S    
H14   C30   S    
C48   H46   S    
N6    H50   S    
C10   C18   A    
C11   H7    S    
C14   C16   A    
C1    C36   S    
O3    C1    A    
H13   C29   S    
H15   C37   S    
C48   H44   S    
C45   H28   S    
C29   C33   S    
C32   N2    S    
C13   C15   A    
C26   H12   S    
C28   C46   S    
C31   H17   S    
C32   H18   S    
C5    C42   S    
C31   N1    S    
C29   H23   S    
N3    H38   S    
O7    V1    S    
C1    O8    A    
C17   C19   A    
O8    V2    S    
N3    H37   S    
O19   V4    S    
C18   C20   A    
C36   C40   S    
C8    C14   A    
C12   H8    S    
O17   V3    S    
C4    C7    S    
C16   C18   A    
O20   V3    S    
C21   C23   A    
C22   C24   A    
O12   C44   A    
C7    C13   A    
O11   C43   A    
C46   H32   S    
C6    C20   A    
C16   C24   A    
O9    V2    S    
N1    H33   S    
O10   V1    S    
O3    V1    S    
C40   H20   S    
O12   V3    S    
C27   C45   S    
