data_mof_unit_29492.cif
_audit_creation_date              2012-12-10T17:00:47-0500
_audit_creation_method            fapswitch 2.2
_symmetry_space_group_name_H-M    P1
_symmetry_Int_Tables_number       1
_space_group_crystal_system       triclinic
_cell_length_a                    10.77149
_cell_length_b                    10.708883
_cell_length_c                    10.176501
_cell_angle_alpha                 89.981025
_cell_angle_beta                  105.047198
_cell_angle_gamma                 92.162837
_cell_volume                      1132.75450875

loop_
_atom_site_label
_atom_site_type_symbol
_atom_type_description
_atom_site_fract_x
_atom_site_fract_y
_atom_site_fract_z
_atom_type_partial_charge
C1    C     C_R   0.491817 0.263116 0.497510 0.862202
C2    C     C_2   0.517494 0.869611 0.503665 -0.163907
C3    C     C_2   0.501562 0.066781 0.395920 -0.260630
C4    C     C_2   0.457783 0.132776 0.485470 0.260835
C5    C     C_2   0.577166 0.574277 0.947446 0.395846
C6    C     C_2   0.581721 0.568034 0.099322 0.199626
C7    C     C_R   0.259330 0.503301 0.441514 0.969233
C8    C     C_R   0.503594 0.737113 0.500815 0.962726
C9    C     C_R   0.740412 0.495073 0.558469 0.984258
C10   C     C_2   0.120797 0.498415 0.405068 -0.321083
C11   C     C_2   0.059282 0.532573 0.497004 0.318151
C12   C     C_2   0.878698 0.497840 0.595405 -0.337167
C13   C     C_2   0.940240 0.462496 0.503949 0.325099
C14   C     C_2   0.488461 0.933168 0.388234 -0.107339
H1    H     H_    0.415201 0.476112 0.081248 0.171854
H2    H     H_    0.925060 0.554662 0.683758 0.215584
H3    H     H_    0.074382 0.441669 0.316652 0.206124
H4    H     H_    0.461704 0.887987 0.288737 0.203531
H5    H     H_    0.553130 0.916042 0.601784 0.207916
H6    H     H_    0.559325 0.110570 0.334205 0.218075
N1    N     N_2   0.501330 0.501330 0.852460 -0.114262
N2    N     N_2   0.501370 0.501360 0.148130 -0.220148
O1    O     O_R   0.499980 0.319060 0.613030 -0.563928
O2    O     O_R   0.500020 0.319100 0.386910 -0.608983
O3    O     O_R   0.317800 0.500000 0.570840 -0.539825
O4    O     O_R   0.317840 0.500040 0.344720 -0.622067
O5    O     O_R   0.499980 0.680900 0.613090 -0.530706
O6    O     O_R   0.500020 0.680940 0.386970 -0.636430
O7    O     O_R   0.682160 0.499960 0.655280 -0.572859
O8    O     O_R   0.682200 0.500000 0.429160 -0.551782
Zn1   Zn    Zn3+2 0.499970 0.499970 0.650990 1.152942
Zn2   Zn    Zn3+2 0.500030 0.500030 0.349010 1.054281
S1    S     S_3+6 0.881610 0.327562 0.398174 0.034909
O9    O     O_2   0.785375 0.252238 0.452185 -0.321965
O10   O     O_2   0.819160 0.368952 0.255983 -0.270763
O11   O     O_3   0.004053 0.235910 0.394434 -0.528752
H7    H     H_    0.964595 0.166170 0.331733 0.410333
I1    I     I_    0.460227 0.316322 0.900587 -0.099627
I2    I     I_    0.713914 0.693437 0.240279 -0.069529
S2    S     S_3+6 0.116458 0.667656 0.602971 0.057305
O12   O     O_2   0.171829 0.626633 0.746919 -0.293942
O13   O     O_2   0.217912 0.740503 0.554864 -0.241805
O14   O     O_3   0.993438 0.761355 0.598152 -0.537610
H8    H     H_    0.030629 0.830285 0.662964 0.408546
S3    S     S_3+6 0.334675 0.077907 0.561613 0.075871
O15   O     O_2   0.245111 0.986071 0.467995 -0.224949
O16   O     O_2   0.392858 0.016851 0.695308 -0.253710
O17   O     O_3   0.250248 0.199422 0.589870 -0.517078
H9    H     H_    0.189978 0.164006 0.640176 0.407317
S4    S     S_3+6 0.690624 0.690345 0.911483 0.083846
O18   O     O_2   0.707120 0.701753 0.771175 -0.279388
O19   O     O_2   0.654435 0.816248 0.951850 -0.270278
O20   O     O_3   0.837628 0.658088 0.008869 -0.523562
H10   H     H_    0.891341 0.735177 0.008372 0.397666

loop_
_geom_bond_atom_site_label_1
_geom_bond_atom_site_label_2
_ccdc_geom_bond_type
O3    Zn1   S    
C7    C10   S    
S4    O19   D    
O14   H8    S    
O2    Zn2   S    
O4    Zn2   S    
C11   C13   S    
C14   H4    S    
C7    O3    A    
C9    O7    A    
C1    C4    S    
S2    O14   S    
C7    O4    A    
S2    O13   D    
S4    O18   D    
C3    H6    S    
O7    Zn1   S    
O20   H10   S    
O8    Zn2   S    
N1    Zn1   S    
C5    C6    S    
C3    C14   S    
N2    Zn2   S    
C9    O8    A    
C2    C14   D    
O17   H9    S    
S1    O10   D    
S1    O9    D    
C1    O1    A    
C4    S3    S    
S3    O16   D    
C11   S2    S    
C8    O6    A    
C9    C12   S    
C5    S4    S    
S4    O20   S    
C10   C11   D    
C10   H3    S    
O5    Zn1   S    
C3    C4    D    
C6    N2    D    
O6    Zn2   S    
S1    O11   S    
C5    N1    D    
C12   C13   D    
C1    O2    A    
C13   S1    S    
S3    O17   S    
C8    O5    A    
C6    I2    S    
O11   H7    S    
S2    O12   D    
C2    H5    S    
S3    O15   D    
H1    N2    S    
C2    C8    S    
N1    I1    S    
C12   H2    S    
O1    Zn1   S    
