data_mof_unit_60966.cif
_audit_creation_date              2012-12-10T17:53:53-0500
_audit_creation_method            fapswitch 2.2
_symmetry_space_group_name_H-M    P1
_symmetry_Int_Tables_number       1
_space_group_crystal_system       triclinic
_cell_length_a                    21.699106
_cell_length_b                    30.473383
_cell_length_c                    30.640328
_cell_angle_alpha                 90.0
_cell_angle_beta                  90.000044
_cell_angle_gamma                 89.999799
_cell_volume                      20260.7688326

loop_
_atom_site_label
_atom_site_type_symbol
_atom_type_description
_atom_site_fract_x
_atom_site_fract_y
_atom_site_fract_z
_atom_type_partial_charge
C1    C     C_R   0.249445 0.060124 0.940048 0.911425
C2    C     C_R   0.250555 0.939876 0.440048 0.911425
C3    C     C_R   0.563653 0.500000 1.000000 -0.350619
C4    C     C_R   0.436347 0.000000 0.500000 -0.350620
C5    C     C_R   0.563653 1.000000 0.500000 -0.350619
C6    C     C_R   0.936347 0.500000 0.500000 -0.350620
C7    C     C_R   0.063653 0.500000 0.500000 -0.350619
C8    C     C_R   0.250101 0.810193 0.310180 0.886457
C9    C     C_R   0.749899 0.189807 0.310180 0.886457
C10   C     C_R   0.250101 0.189807 0.689820 0.886467
C11   C     C_R   0.749899 0.810193 0.689820 0.886467
C12   C     C_R   0.750101 0.310193 0.310180 0.886457
C13   C     C_R   0.749446 0.939876 0.559952 0.911431
C14   C     C_R   0.249899 0.689807 0.310180 0.886457
C15   C     C_R   0.750101 0.689807 0.689820 0.886467
C16   C     C_R   0.249899 0.310193 0.689820 0.886467
C17   C     C_R   0.750101 0.810193 0.810180 0.886457
C18   C     C_R   0.249899 0.189807 0.810180 0.886457
C19   C     C_R   0.750101 0.189807 0.189820 0.886467
C20   C     C_R   0.249899 0.810193 0.189820 0.886467
C21   C     C_R   0.250101 0.310193 0.810180 0.886457
C22   C     C_R   0.749899 0.689807 0.810180 0.886457
C23   C     C_R   0.250101 0.689807 0.189820 0.886467
C24   C     C_R   0.250554 0.060124 0.559952 0.911431
C25   C     C_R   0.749899 0.310193 0.189820 0.886467
C26   C     C_R   0.370003 1.000000 0.000000 0.838281
C27   C     C_R   0.629997 0.000000 0.000000 0.838281
C28   C     C_R   0.870003 0.500000 0.000000 0.838281
C29   C     C_R   0.129997 0.500000 0.000000 0.838281
C30   C     C_R   0.870003 1.000000 0.500000 0.838282
C31   C     C_R   0.129997 0.000000 0.500000 0.838281
C32   C     C_R   0.370003 0.500000 0.500000 0.838281
C33   C     C_R   0.629997 0.500000 0.500000 0.838281
C34   C     C_R   0.129833 1.000000 0.000000 1.073134
C35   C     C_R   0.249445 0.560124 0.440048 0.911425
C36   C     C_R   0.870167 0.000000 0.000000 1.073136
C37   C     C_R   0.629833 0.500000 0.000000 1.073134
C38   C     C_R   0.370167 0.500000 0.000000 1.073136
C39   C     C_R   0.629833 1.000000 0.500000 1.073134
C40   C     C_R   0.370167 0.000000 0.500000 1.073136
C41   C     C_R   0.129833 0.500000 0.500000 1.073134
C42   C     C_R   0.870167 0.500000 0.500000 1.073136
C43   C     C_R   0.436947 0.918744 0.007415 -0.143792
C44   C     C_R   0.563053 0.081256 0.007415 -0.143793
C45   C     C_R   0.436945 0.081255 0.992581 -0.143780
C46   C     C_R   0.750555 0.439876 0.440048 0.911425
C47   C     C_R   0.563055 0.918745 0.992581 -0.143780
C48   C     C_R   0.936947 0.418744 0.007415 -0.143792
C49   C     C_R   0.063053 0.581256 0.007415 -0.143793
C50   C     C_R   0.936945 0.581255 0.992581 -0.143780
C51   C     C_R   0.063055 0.418745 0.992581 -0.143780
C52   C     C_R   0.936946 0.918744 0.507415 -0.143792
C53   C     C_R   0.063053 0.081256 0.507415 -0.143793
C54   C     C_R   0.936945 0.081255 0.492581 -0.143780
C55   C     C_R   0.063055 0.918745 0.492581 -0.143780
C56   C     C_R   0.436946 0.418744 0.507415 -0.143792
C57   C     C_R   0.249446 0.439876 0.559952 0.911431
C58   C     C_R   0.563053 0.581256 0.507415 -0.143793
C59   C     C_R   0.436945 0.581255 0.492581 -0.143780
C60   C     C_R   0.563055 0.418745 0.492581 -0.143780
C61   C     C_R   0.468623 0.879136 0.004301 -0.127003
C62   C     C_R   0.531377 0.120864 0.004300 -0.127004
C63   C     C_R   0.468620 0.120864 0.995694 -0.127008
C64   C     C_R   0.531380 0.879136 0.995695 -0.127008
C65   C     C_R   0.968623 0.379136 0.004301 -0.127003
C66   C     C_R   0.031377 0.620864 0.004300 -0.127004
C67   C     C_R   0.968620 0.620864 0.995694 -0.127008
C68   C     C_R   0.750554 0.560124 0.559952 0.911431
C69   C     C_R   0.031380 0.379136 0.995695 -0.127008
C70   C     C_R   0.968623 0.879136 0.504301 -0.127003
C71   C     C_R   0.031377 0.120864 0.504300 -0.127004
C72   C     C_R   0.968620 0.120864 0.495694 -0.127008
C73   C     C_R   0.031380 0.879136 0.495695 -0.127008
C74   C     C_R   0.468623 0.379136 0.504301 -0.127003
C75   C     C_R   0.531377 0.620864 0.504300 -0.127004
C76   C     C_R   0.468620 0.620864 0.495694 -0.127008
C77   C     C_R   0.531380 0.379136 0.495695 -0.127008
C78   C     C_R   0.532169 0.959461 0.998073 0.078023
C79   C     C_R   0.249514 0.156639 0.843353 -0.095058
C80   C     C_R   0.467831 0.040540 0.998073 0.078023
C81   C     C_R   0.532168 0.040540 0.001925 0.078020
C82   C     C_R   0.467831 0.959460 0.001925 0.078020
C83   C     C_R   0.032169 0.459460 0.998073 0.078023
C84   C     C_R   0.967831 0.540539 0.998073 0.078023
C85   C     C_R   0.032169 0.540540 0.001925 0.078020
C86   C     C_R   0.967831 0.459460 0.001925 0.078020
C87   C     C_R   0.032169 0.959461 0.498073 0.078023
C88   C     C_R   0.967831 0.040539 0.498073 0.078023
C89   C     C_R   0.032169 0.040540 0.501925 0.078020
C90   C     C_R   0.750486 0.843361 0.843354 -0.095059
C91   C     C_R   0.967831 0.959460 0.501925 0.078020
C92   C     C_R   0.532169 0.459460 0.498073 0.078023
C93   C     C_R   0.467831 0.540539 0.498073 0.078023
C94   C     C_R   0.532169 0.540540 0.501925 0.078020
C95   C     C_R   0.467831 0.459460 0.501925 0.078020
C96   C     C_R   0.563845 0.000000 0.999999 -0.185986
C97   C     C_R   0.436155 1.000000 1.000000 -0.185986
C98   C     C_R   0.063845 0.500000 0.999999 -0.185986
C99   C     C_R   0.936155 0.500000 1.000000 -0.185986
C100  C     C_R   0.063845 0.000000 0.499999 -0.185986
C101  C     C_R   0.249513 0.843361 0.156646 -0.095081
C102  C     C_R   0.936155 1.000000 0.500000 -0.185986
C103  C     C_R   0.563845 0.500000 0.499999 -0.185986
C104  C     C_R   0.436155 0.500000 0.500000 -0.185986
C105  C     C_R   0.199926 0.094667 0.876935 0.404770
C106  C     C_R   0.800075 0.905333 0.876935 0.404769
C107  C     C_R   0.199913 0.905322 0.123052 0.404768
C108  C     C_R   0.800088 0.094679 0.123051 0.404767
C109  C     C_R   0.699926 0.594667 0.876935 0.404770
C110  C     C_R   0.300074 0.405333 0.876935 0.404769
C111  C     C_R   0.699913 0.405321 0.123052 0.404768
C112  C     C_R   0.750555 0.939876 0.940048 0.911425
C113  C     C_R   0.750486 0.156639 0.156646 -0.095082
C114  C     C_R   0.300088 0.594679 0.123051 0.404767
C115  C     C_R   0.699926 0.094667 0.376935 0.404770
C116  C     C_R   0.300075 0.905333 0.376935 0.404769
C117  C     C_R   0.699913 0.905322 0.623052 0.404768
C118  C     C_R   0.300088 0.094679 0.623051 0.404767
C119  C     C_R   0.199926 0.594667 0.376935 0.404770
C120  C     C_R   0.800075 0.405333 0.376935 0.404769
C121  C     C_R   0.199913 0.405321 0.623052 0.404768
C122  C     C_R   0.800088 0.594679 0.623051 0.404767
C123  C     C_R   0.200559 0.126814 0.845105 -0.201736
C124  C     C_R   0.749514 0.656639 0.843353 -0.095058
C125  C     C_R   0.799442 0.873185 0.845105 -0.201736
C126  C     C_R   0.200544 0.873174 0.154882 -0.201732
C127  C     C_R   0.799456 0.126827 0.154881 -0.201732
C128  C     C_R   0.700559 0.626814 0.845105 -0.201736
C129  C     C_R   0.299442 0.373185 0.845105 -0.201736
C130  C     C_R   0.700545 0.373174 0.154882 -0.201732
C131  C     C_R   0.299456 0.626827 0.154881 -0.201732
C132  C     C_R   0.700559 0.126814 0.345105 -0.201736
C133  C     C_R   0.299442 0.873185 0.345105 -0.201736
C134  C     C_R   0.700545 0.873174 0.654882 -0.201732
C135  C     C_R   0.250486 0.343361 0.843354 -0.095059
C136  C     C_R   0.299456 0.126827 0.654881 -0.201732
C137  C     C_R   0.200559 0.626814 0.345105 -0.201736
C138  C     C_R   0.799442 0.373185 0.345105 -0.201736
C139  C     C_R   0.200544 0.373174 0.654882 -0.201732
C140  C     C_R   0.799456 0.626827 0.654881 -0.201732
C141  C     C_R   0.749514 0.343361 0.156646 -0.095081
C142  C     C_R   0.250486 0.656639 0.156646 -0.095082
C143  C     C_R   0.749514 0.156639 0.343353 -0.095058
C144  C     C_R   0.250486 0.843361 0.343354 -0.095059
C145  C     C_R   0.749513 0.843361 0.656646 -0.095081
C146  C     C_R   0.250486 0.156639 0.656646 -0.095082
C147  C     C_R   0.249514 0.656639 0.343353 -0.095058
C148  C     C_R   0.249446 0.939876 0.059952 0.911431
C149  C     C_R   0.750486 0.343361 0.343354 -0.095059
C150  C     C_R   0.249513 0.343361 0.656646 -0.095081
C151  C     C_R   0.750486 0.656639 0.656646 -0.095082
C152  C     C_R   0.297543 0.155006 0.873672 -0.150159
C153  C     C_R   0.702456 0.844995 0.873672 -0.150157
C154  C     C_R   0.297558 0.845007 0.126340 -0.150142
C155  C     C_R   0.702441 0.154992 0.126340 -0.150141
C156  C     C_R   0.797543 0.655006 0.873672 -0.150159
C157  C     C_R   0.202456 0.344995 0.873672 -0.150157
C158  C     C_R   0.797558 0.345007 0.126340 -0.150142
C159  C     C_R   0.750554 0.060124 0.059952 0.911431
C160  C     C_R   0.202441 0.654992 0.126340 -0.150141
C161  C     C_R   0.797543 0.155006 0.373672 -0.150159
C162  C     C_R   0.202456 0.844995 0.373671 -0.150157
C163  C     C_R   0.797558 0.845007 0.626340 -0.150142
C164  C     C_R   0.202441 0.154992 0.626340 -0.150141
C165  C     C_R   0.297543 0.655006 0.373672 -0.150159
C166  C     C_R   0.702456 0.344995 0.373671 -0.150157
C167  C     C_R   0.297558 0.345007 0.626340 -0.150142
C168  C     C_R   0.702441 0.654992 0.626340 -0.150141
C169  C     C_R   0.296503 0.123508 0.906010 -0.235493
C170  C     C_R   0.749445 0.560124 0.940048 0.911425
C171  C     C_R   0.703496 0.876493 0.906010 -0.235492
C172  C     C_R   0.296519 0.876505 0.094002 -0.235516
C173  C     C_R   0.703480 0.123494 0.094003 -0.235517
C174  C     C_R   0.796503 0.623508 0.906010 -0.235493
C175  C     C_R   0.203496 0.376493 0.906010 -0.235492
C176  C     C_R   0.796519 0.376505 0.094002 -0.235516
C177  C     C_R   0.203480 0.623494 0.094003 -0.235517
C178  C     C_R   0.796503 0.123508 0.406010 -0.235493
C179  C     C_R   0.203496 0.876493 0.406010 -0.235492
C180  C     C_R   0.796519 0.876505 0.594002 -0.235516
C181  C     C_R   0.250555 0.439876 0.940048 0.911425
C182  C     C_R   0.203480 0.123494 0.594003 -0.235517
C183  C     C_R   0.296503 0.623508 0.406010 -0.235493
C184  C     C_R   0.703496 0.376492 0.406010 -0.235492
C185  C     C_R   0.296519 0.376505 0.594002 -0.235516
C186  C     C_R   0.703480 0.623494 0.594003 -0.235517
C187  C     C_R   0.248274 0.093238 0.907245 -0.086917
C188  C     C_R   0.751726 0.906762 0.907245 -0.086918
C189  C     C_R   0.248276 0.906762 0.092755 -0.086901
C190  C     C_R   0.751724 0.093238 0.092755 -0.086901
C191  C     C_R   0.748274 0.593238 0.907245 -0.086917
C192  C     C_R   0.749446 0.439876 0.059952 0.911431
C193  C     C_R   0.251726 0.406762 0.907245 -0.086918
C194  C     C_R   0.748276 0.406762 0.092755 -0.086901
C195  C     C_R   0.251724 0.593238 0.092755 -0.086901
C196  C     C_R   0.748274 0.093238 0.407245 -0.086917
C197  C     C_R   0.251726 0.906762 0.407245 -0.086918
C198  C     C_R   0.748276 0.906762 0.592755 -0.086901
C199  C     C_R   0.251724 0.093238 0.592755 -0.086901
C200  C     C_R   0.248274 0.593238 0.407245 -0.086917
C201  C     C_R   0.751726 0.406762 0.407245 -0.086918
C202  C     C_R   0.248276 0.406762 0.592755 -0.086901
C203  C     C_R   0.250554 0.560124 0.059952 0.911431
C204  C     C_R   0.751724 0.593238 0.592755 -0.086901
C205  C     C_R   0.031975 0.959746 0.000631 0.336437
C206  C     C_R   0.968024 0.040253 0.000631 0.336439
C207  C     C_R   0.031975 0.040253 0.999369 0.336402
C208  C     C_R   0.968025 0.959746 0.999369 0.336403
C209  C     C_R   0.531976 0.459746 0.000631 0.336437
C210  C     C_R   0.468024 0.540254 0.000631 0.336439
C211  C     C_R   0.531975 0.540253 0.999369 0.336402
C212  C     C_R   0.468024 0.459747 0.999369 0.336403
C213  C     C_R   0.531976 0.959746 0.500631 0.336437
C214  C     C_R   0.749445 0.060124 0.440048 0.911425
C215  C     C_R   0.468024 0.040253 0.500631 0.336439
C216  C     C_R   0.531975 0.040253 0.499369 0.336402
C217  C     C_R   0.468025 0.959746 0.499369 0.336403
C218  C     C_R   0.031975 0.459746 0.500631 0.336437
C219  C     C_R   0.968024 0.540254 0.500631 0.336439
C220  C     C_R   0.031975 0.540253 0.499369 0.336402
C221  C     C_R   0.968025 0.459747 0.499369 0.336403
C222  C     C_R   0.936347 0.000000 0.000000 -0.350620
C223  C     C_R   0.063653 1.000000 1.000000 -0.350619
C224  C     C_R   0.436347 0.500000 0.000000 -0.350620
Cl1   Cl    Cl    0.137241 0.057889 0.878910 -0.535306
Cl2   Cl    Cl    0.362761 0.942109 0.378911 -0.535305
Cl3   Cl    Cl    0.637212 0.942085 0.621061 -0.535308
Cl4   Cl    Cl    0.362789 0.057916 0.621060 -0.535306
Cl5   Cl    Cl    0.137241 0.557889 0.378910 -0.535306
Cl6   Cl    Cl    0.862761 0.442109 0.378911 -0.535305
Cl7   Cl    Cl    0.137212 0.442085 0.621061 -0.535308
Cl8   Cl    Cl    0.862789 0.557916 0.621060 -0.535306
Cl9   Cl    Cl    0.071702 0.909063 0.004799 -0.452859
Cl10  Cl    Cl    0.928298 0.090937 0.004799 -0.452858
Cl11  Cl    Cl    0.071702 0.090937 0.995198 -0.452890
Cl12  Cl    Cl    0.862761 0.942109 0.878911 -0.535305
Cl13  Cl    Cl    0.928298 0.909063 0.995198 -0.452888
Cl14  Cl    Cl    0.571702 0.409063 0.004799 -0.452859
Cl15  Cl    Cl    0.428297 0.590937 0.004799 -0.452858
Cl16  Cl    Cl    0.571702 0.590937 0.995198 -0.452890
Cl17  Cl    Cl    0.428298 0.409063 0.995198 -0.452888
Cl18  Cl    Cl    0.571702 0.909063 0.504799 -0.452859
Cl19  Cl    Cl    0.428297 0.090937 0.504799 -0.452858
Cl20  Cl    Cl    0.571702 0.090936 0.495198 -0.452890
Cl21  Cl    Cl    0.428298 0.909063 0.495198 -0.452888
Cl22  Cl    Cl    0.071702 0.409063 0.504799 -0.452859
Cl23  Cl    Cl    0.137212 0.942085 0.121061 -0.535308
Cl24  Cl    Cl    0.928297 0.590937 0.504799 -0.452858
Cl25  Cl    Cl    0.071702 0.590937 0.495198 -0.452890
Cl26  Cl    Cl    0.928298 0.409063 0.495198 -0.452888
Cl27  Cl    Cl    0.862789 0.057916 0.121060 -0.535306
Cl28  Cl    Cl    0.637241 0.557889 0.878910 -0.535306
Cl29  Cl    Cl    0.362761 0.442109 0.878911 -0.535305
Cl30  Cl    Cl    0.637212 0.442085 0.121061 -0.535308
Cl31  Cl    Cl    0.362789 0.557916 0.121060 -0.535306
Cl32  Cl    Cl    0.637241 0.057889 0.378910 -0.535306
H1    H     H_    0.444184 0.151618 0.992032 0.150530
H2    H     H_    0.055816 0.848382 0.492033 0.150530
H3    H     H_    0.944188 0.848381 0.507961 0.150536
H4    H     H_    0.055812 0.151619 0.507960 0.150536
H5    H     H_    0.444184 0.651618 0.492032 0.150530
H6    H     H_    0.555816 0.348382 0.492033 0.150530
H7    H     H_    0.444188 0.348381 0.507961 0.150536
H8    H     H_    0.555812 0.651619 0.507960 0.150536
H9    H     H_    0.388298 0.916817 0.014405 0.141415
H10   H     H_    0.611702 0.083183 0.014404 0.141416
H11   H     H_    0.388296 0.083182 0.985591 0.141410
H12   H     H_    0.555815 0.848382 0.992033 0.150530
H13   H     H_    0.611703 0.916818 0.985591 0.141411
H14   H     H_    0.888298 0.416817 0.014405 0.141415
H15   H     H_    0.111702 0.583183 0.014404 0.141416
H16   H     H_    0.888296 0.583182 0.985591 0.141410
H17   H     H_    0.111703 0.416818 0.985591 0.141411
H18   H     H_    0.888298 0.916817 0.514405 0.141415
H19   H     H_    0.111702 0.083183 0.514404 0.141416
H20   H     H_    0.888296 0.083182 0.485591 0.141410
H21   H     H_    0.111703 0.916818 0.485591 0.141411
H22   H     H_    0.388298 0.416817 0.514405 0.141415
H23   H     H_    0.444188 0.848381 0.007961 0.150536
H24   H     H_    0.611702 0.583183 0.514404 0.141416
H25   H     H_    0.388296 0.583182 0.485591 0.141410
H26   H     H_    0.611703 0.416818 0.485591 0.141411
H27   H     H_    0.163330 0.128253 0.821563 0.190499
H28   H     H_    0.836671 0.871746 0.821564 0.190499
H29   H     H_    0.163305 0.871727 0.178413 0.190513
H30   H     H_    0.836697 0.128274 0.178412 0.190514
H31   H     H_    0.663331 0.628253 0.821563 0.190499
H32   H     H_    0.336671 0.371746 0.821564 0.190499
H33   H     H_    0.663305 0.371727 0.178413 0.190513
H34   H     H_    0.555812 0.151619 0.007960 0.150536
H35   H     H_    0.336697 0.628274 0.178412 0.190514
H36   H     H_    0.663331 0.128253 0.321563 0.190499
H37   H     H_    0.336671 0.871746 0.321564 0.190499
H38   H     H_    0.663305 0.871727 0.678413 0.190513
H39   H     H_    0.336697 0.128274 0.678412 0.190514
H40   H     H_    0.163330 0.628253 0.321563 0.190499
H41   H     H_    0.836671 0.371746 0.321564 0.190499
H42   H     H_    0.163305 0.371727 0.678413 0.190513
H43   H     H_    0.836696 0.628274 0.678412 0.190514
H44   H     H_    0.335185 0.178350 0.872663 0.169544
H45   H     H_    0.944184 0.651618 0.992032 0.150530
H46   H     H_    0.664814 0.821651 0.872662 0.169544
H47   H     H_    0.335211 0.821673 0.127359 0.169557
H48   H     H_    0.664787 0.178326 0.127359 0.169558
H49   H     H_    0.835185 0.678350 0.872663 0.169544
H50   H     H_    0.164814 0.321651 0.872662 0.169544
H51   H     H_    0.835212 0.321673 0.127359 0.169557
H52   H     H_    0.164787 0.678326 0.127359 0.169558
H53   H     H_    0.835185 0.178350 0.372663 0.169544
H54   H     H_    0.164814 0.821651 0.372662 0.169544
H55   H     H_    0.835211 0.821673 0.627359 0.169557
H56   H     H_    0.055816 0.348382 0.992033 0.150530
H57   H     H_    0.164787 0.178326 0.627359 0.169558
H58   H     H_    0.335185 0.678350 0.372663 0.169544
H59   H     H_    0.664814 0.321651 0.372662 0.169544
H60   H     H_    0.335211 0.321673 0.627359 0.169557
H61   H     H_    0.664787 0.678326 0.627359 0.169558
H62   H     H_    0.333608 0.122324 0.929598 0.144167
H63   H     H_    0.666390 0.877676 0.929597 0.144166
H64   H     H_    0.333637 0.877699 0.070425 0.144153
H65   H     H_    0.666362 0.122300 0.070425 0.144153
H66   H     H_    0.833608 0.622324 0.929598 0.144167
H67   H     H_    0.944188 0.348381 0.007961 0.150536
H68   H     H_    0.166390 0.377676 0.929597 0.144166
H69   H     H_    0.833637 0.377699 0.070425 0.144153
H70   H     H_    0.166362 0.622300 0.070425 0.144153
H71   H     H_    0.833608 0.122324 0.429598 0.144167
H72   H     H_    0.166390 0.877676 0.429597 0.144166
H73   H     H_    0.833637 0.877699 0.570425 0.144153
H74   H     H_    0.166362 0.122300 0.570425 0.144153
H75   H     H_    0.333608 0.622324 0.429598 0.144167
H76   H     H_    0.666390 0.377676 0.429597 0.144166
H77   H     H_    0.333637 0.377699 0.570425 0.144153
H78   H     H_    0.055812 0.651619 0.007960 0.150536
H79   H     H_    0.666362 0.622300 0.570425 0.144153
H80   H     H_    0.944184 0.151618 0.492032 0.150530
O1    O     O_R   0.250000 0.071660 0.980070 -0.616073
O2    O     O_R   0.250000 0.928340 0.480070 -0.616072
O3    O     O_R   0.750000 0.928340 0.519930 -0.616065
O4    O     O_R   0.250000 0.071660 0.519930 -0.616064
O5    O     O_R   0.250000 0.571660 0.480070 -0.616073
O6    O     O_R   0.750000 0.428340 0.480070 -0.616072
O7    O     O_R   0.250000 0.428340 0.519930 -0.616065
O8    O     O_R   0.750000 0.571660 0.519930 -0.616064
O9    O     O_R   0.250010 0.019960 0.928320 -0.593238
O10   O     O_R   0.749990 0.980040 0.928320 -0.593239
O11   O     O_R   0.250010 0.980040 0.071680 -0.593256
O12   O     O_R   0.750000 0.928340 0.980070 -0.616072
O13   O     O_R   0.749990 0.019960 0.071680 -0.593257
O14   O     O_R   0.750010 0.519960 0.928320 -0.593238
O15   O     O_R   0.249990 0.480040 0.928320 -0.593239
O16   O     O_R   0.750010 0.480040 0.071680 -0.593256
O17   O     O_R   0.249990 0.519960 0.071680 -0.593257
O18   O     O_R   0.750010 0.019960 0.428320 -0.593238
O19   O     O_R   0.249990 0.980040 0.428320 -0.593239
O20   O     O_R   0.750010 0.980040 0.571680 -0.593256
O21   O     O_R   0.249990 0.019960 0.571680 -0.593257
O22   O     O_R   0.250010 0.519960 0.428320 -0.593238
O23   O     O_R   0.250000 0.928340 0.019930 -0.616065
O24   O     O_R   0.749990 0.480040 0.428320 -0.593239
O25   O     O_R   0.250010 0.480040 0.571680 -0.593256
O26   O     O_R   0.749990 0.519960 0.571680 -0.593257
O27   O     O_R   0.341630 0.025860 0.025880 -0.630473
O28   O     O_R   0.658370 0.974140 0.025880 -0.630473
O29   O     O_R   0.341630 0.974140 0.974120 -0.630474
O30   O     O_R   0.658370 0.025860 0.974120 -0.630474
O31   O     O_R   0.841630 0.525860 0.025880 -0.630473
O32   O     O_R   0.158370 0.474140 0.025880 -0.630473
O33   O     O_R   0.841630 0.474140 0.974120 -0.630474
O34   O     O_R   0.750000 0.071660 0.019930 -0.616064
O35   O     O_R   0.158370 0.525860 0.974120 -0.630474
O36   O     O_R   0.841630 0.025860 0.525880 -0.630473
O37   O     O_R   0.158370 0.974140 0.525880 -0.630473
O38   O     O_R   0.841630 0.974140 0.474120 -0.630474
O39   O     O_R   0.158370 0.025860 0.474120 -0.630474
O40   O     O_R   0.341630 0.525860 0.525880 -0.630473
O41   O     O_R   0.658370 0.474140 0.525880 -0.630473
O42   O     O_R   0.341630 0.474140 0.474120 -0.630474
O43   O     O_R   0.658370 0.525860 0.474120 -0.630474
O44   O     O_R   0.158400 0.025850 0.025870 -0.568166
O45   O     O_R   0.750000 0.571660 0.980070 -0.616073
O46   O     O_R   0.841600 0.974150 0.025870 -0.568167
O47   O     O_R   0.158400 0.974150 0.974130 -0.568164
O48   O     O_R   0.841600 0.025850 0.974130 -0.568163
O49   O     O_R   0.658400 0.525850 0.025870 -0.568165
O50   O     O_R   0.341600 0.474150 0.025870 -0.568167
O51   O     O_R   0.658400 0.474150 0.974130 -0.568164
O52   O     O_R   0.341600 0.525850 0.974130 -0.568163
O53   O     O_R   0.658400 0.025850 0.525870 -0.568165
O54   O     O_R   0.341600 0.974150 0.525870 -0.568167
O55   O     O_R   0.658400 0.974150 0.474130 -0.568164
O56   O     O_R   0.250000 0.428340 0.980070 -0.616072
O57   O     O_R   0.341600 0.025850 0.474130 -0.568163
O58   O     O_R   0.158400 0.525850 0.525870 -0.568165
O59   O     O_R   0.841600 0.474150 0.525870 -0.568167
O60   O     O_R   0.158400 0.474150 0.474130 -0.568164
O61   O     O_R   0.841600 0.525850 0.474130 -0.568163
O62   O     O_R   0.198320 0.795840 0.295890 -0.620291
O63   O     O_R   0.801680 0.204160 0.295890 -0.620291
O64   O     O_R   0.198320 0.204160 0.704110 -0.620299
O65   O     O_R   0.801680 0.795840 0.704110 -0.620299
O66   O     O_R   0.698320 0.295840 0.295890 -0.620291
O67   O     O_R   0.750000 0.428340 0.019930 -0.616065
O68   O     O_R   0.301680 0.704160 0.295890 -0.620291
O69   O     O_R   0.698320 0.704160 0.704110 -0.620299
O70   O     O_R   0.301680 0.295840 0.704110 -0.620299
O71   O     O_R   0.698320 0.795840 0.795890 -0.620291
O72   O     O_R   0.301680 0.204160 0.795890 -0.620291
O73   O     O_R   0.698320 0.204160 0.204110 -0.620299
O74   O     O_R   0.301680 0.795840 0.204110 -0.620299
O75   O     O_R   0.198320 0.295840 0.795890 -0.620291
O76   O     O_R   0.801680 0.704160 0.795890 -0.620291
O77   O     O_R   0.198320 0.704160 0.204110 -0.620299
O78   O     O_R   0.250000 0.571660 0.019930 -0.616064
O79   O     O_R   0.801680 0.295840 0.204110 -0.620299
O80   O     O_R   0.301770 0.795830 0.295870 -0.617906
O81   O     O_R   0.698230 0.204170 0.295870 -0.617905
O82   O     O_R   0.301770 0.204170 0.704130 -0.617912
O83   O     O_R   0.698230 0.795830 0.704130 -0.617912
O84   O     O_R   0.801770 0.295830 0.295870 -0.617906
O85   O     O_R   0.198230 0.704170 0.295870 -0.617905
O86   O     O_R   0.801770 0.704170 0.704130 -0.617912
O87   O     O_R   0.198230 0.295830 0.704130 -0.617912
O88   O     O_R   0.801770 0.795830 0.795870 -0.617906
O89   O     O_R   0.750000 0.071660 0.480070 -0.616073
O90   O     O_R   0.198230 0.204170 0.795870 -0.617905
O91   O     O_R   0.801770 0.204170 0.204130 -0.617912
O92   O     O_R   0.198230 0.795830 0.204130 -0.617912
O93   O     O_R   0.301770 0.295830 0.795870 -0.617906
O94   O     O_R   0.698230 0.704170 0.795870 -0.617905
O95   O     O_R   0.301770 0.704170 0.204130 -0.617912
O96   O     O_R   0.698230 0.295830 0.204130 -0.617912
Zn1   Zn    Zn3+2 0.250010 0.034530 0.034550 1.070607
Zn2   Zn    Zn3+2 0.249990 0.965470 0.534550 1.070606
Zn3   Zn    Zn3+2 0.750010 0.965470 0.465450 1.070625
Zn4   Zn    Zn3+2 0.249990 0.034530 0.465450 1.070624
Zn5   Zn    Zn3+2 0.250010 0.534530 0.534550 1.070607
Zn6   Zn    Zn3+2 0.749990 0.465470 0.534550 1.070606
Zn7   Zn    Zn3+2 0.250010 0.465470 0.465450 1.070625
Zn8   Zn    Zn3+2 0.749990 0.534530 0.465450 1.070624
Zn9   Zn    Zn3+2 0.180950 0.750000 0.250000 1.006428
Zn10  Zn    Zn3+2 0.819050 0.250000 0.250000 1.006429
Zn11  Zn    Zn3+2 0.180950 0.250000 0.750000 1.006428
Zn12  Zn    Zn3+2 0.749990 0.965470 0.034550 1.070606
Zn13  Zn    Zn3+2 0.819050 0.750000 0.750000 1.006429
Zn14  Zn    Zn3+2 0.680950 0.250000 0.250000 1.006428
Zn15  Zn    Zn3+2 0.319050 0.750000 0.250000 1.006429
Zn16  Zn    Zn3+2 0.680950 0.750000 0.750000 1.006428
Zn17  Zn    Zn3+2 0.319050 0.250000 0.750000 1.006429
Zn18  Zn    Zn3+2 0.250010 0.965470 0.965450 1.070625
Zn19  Zn    Zn3+2 0.749990 0.034530 0.965450 1.070624
Zn20  Zn    Zn3+2 0.750010 0.534530 0.034550 1.070607
Zn21  Zn    Zn3+2 0.249990 0.465470 0.034550 1.070606
Zn22  Zn    Zn3+2 0.750010 0.465470 0.965450 1.070625
Zn23  Zn    Zn3+2 0.249990 0.534530 0.965450 1.070624
Zn24  Zn    Zn3+2 0.750010 0.034530 0.534550 1.070607

loop_
_geom_bond_atom_site_label_1
_geom_bond_atom_site_label_2
_ccdc_geom_bond_type
C216  Cl20  S    
C87   C91   A    
C159  C190  S    
O48   Zn19  S    
C15   C151  S    
C21   O75   A    
O72   Zn17  S    
O22   Zn7   S    
C217  Cl21  S    
C180  H73   S    
O95   Zn15  S    
O36   Zn24  S    
C2    O2    A    
C195  C203  S    
C19   C113  S    
C167  C185  A    
C105  C123  A    
C134  C145  A    
C130  C141  A    
C112  O10   A    
O26   Zn6   S    
C153  H46   S    
C78   C96   A    
C57   C202  S    
C58   C75   A    
C32   C104  S    
C48   C65   A    
O50   Zn21  S    
C174  C191  A    
C74   H7    S    
C1    C187  S    
C171  H63   S    
C72   H80   S    
C113  C155  A    
C23   O77   A    
C203  O78   A    
O73   Zn14  S    
C9    C143  S    
C210  C224  A    
C119  C200  A    
C165  C183  A    
C32   O40   A    
O51   Zn22  S    
C166  C184  A    
C169  C187  A    
C44   C81   A    
C13   C198  S    
C120  Cl6   S    
C47   C64   A    
C206  C207  A    
C160  H52   S    
C8    O62   A    
C116  C133  A    
C118  Cl4   S    
C205  C223  A    
C185  C202  A    
C75   C76   A    
C117  Cl3   S    
C78   C82   A    
C159  O34   A    
C125  H28   S    
O87   Zn11  S    
C30   C102  S    
O78   Zn23  S    
C30   O36   A    
C31   C100  S    
C90   C153  A    
C86   C99   A    
O59   Zn6   S    
C38   O50   A    
C70   H3    S    
C19   O91   A    
C55   H21   S    
C5    C39   S    
C53   C89   A    
C23   O95   A    
O39   Zn4   S    
C69   H56   S    
C53   C71   A    
C51   C83   A    
C118  C136  A    
O37   Zn2   S    
C43   C61   A    
C164  H57   S    
C177  C195  A    
C182  C199  A    
C65   H67   S    
C208  Cl13  S    
C88   C102  A    
C156  H49   S    
C139  C150  A    
C131  H35   S    
C112  O12   A    
O55   Zn3   S    
C54   C88   A    
C116  C197  A    
C146  C164  A    
C154  H47   S    
C214  O18   A    
O11   Zn1   S    
C45   C63   A    
C162  H54   S    
C45   C80   A    
C173  H65   S    
C66   H78   S    
C180  C198  A    
C119  Cl5   S    
C111  C194  A    
C32   O42   A    
C45   H11   S    
C83   C86   A    
C120  C138  A    
C88   C89   A    
C3    C37   S    
C54   H20   S    
C6    C42   S    
O6    Zn6   S    
C219  Cl24  S    
O66   Zn14  S    
C52   C91   A    
C51   C69   A    
C46   O24   A    
C175  C193  A    
C136  C146  A    
C8    O80   A    
C56   C95   A    
C33   O41   A    
O74   Zn15  S    
C207  C223  A    
C135  C157  A    
C80   C97   A    
C12   O84   A    
C40   O57   A    
C207  Cl11  S    
C106  C125  A    
C31   O39   A    
C181  O56   A    
C106  Cl12  S    
C67   H45   S    
C167  H60   S    
C186  H79   S    
O79   Zn10  S    
C213  Cl18  S    
C68   O8    A    
C208  C222  A    
C110  C129  A    
C39   O53   A    
O58   Zn5   S    
C1    O9    A    
C147  C165  A    
C42   O59   A    
C129  C135  A    
C46   C201  S    
O10   Zn19  S    
C4    C40   S    
C74   C77   A    
O90   Zn11  S    
C105  Cl1   S    
C50   C67   A    
C13   O3    A    
O38   Zn3   S    
O56   Zn21  S    
C66   C67   A    
C24   O4    A    
C48   H14   S    
C148  O23   A    
C25   O96   A    
C108  C190  A    
C174  H66   S    
C115  C132  A    
C60   C92   A    
C138  C149  A    
C3    C211  A    
C168  C186  A    
C49   C66   A    
C154  C172  A    
C139  H42   S    
O47   Zn18  S    
C33   O43   A    
C52   H18   S    
C20   C101  S    
C145  C163  A    
O45   Zn20  S    
C178  C196  A    
C14   C147  S    
O52   Zn23  S    
O85   Zn9   S    
C132  C143  A    
O14   Zn22  S    
C192  C194  S    
C57   O25   A    
C134  H38   S    
C212  Cl17  S    
C196  C214  S    
C29   O32   A    
O2    Zn2   S    
C110  C193  A    
C9    O63   A    
O29   Zn18  S    
C22   O76   A    
C221  Cl26  S    
C20   O74   A    
C10   C146  S    
O89   Zn24  S    
C7    C220  A    
C28   C99   S    
O53   Zn24  S    
C148  O11   A    
C48   C86   A    
C14   O68   A    
C34   C223  S    
C192  O16   A    
C218  C221  A    
C87   C100  A    
C212  C224  A    
C12   O66   A    
C31   O37   A    
O69   Zn16  S    
C184  C201  A    
O28   Zn12  S    
C11   O65   A    
C168  H61   S    
O80   Zn15  S    
C34   O47   A    
C25   O79   A    
C16   O70   A    
C214  O89   A    
C183  C200  A    
C206  Cl10  S    
O61   Zn8   S    
O25   Zn5   S    
C210  Cl15  S    
C121  C139  A    
C122  C140  A    
O19   Zn4   S    
C10   O82   A    
C13   O20   A    
C17   O71   A    
C101  C154  A    
C206  C222  A    
C18   O72   A    
C130  H33   S    
C22   O94   A    
C29   C98   S    
C7    C41   S    
C28   O31   A    
C55   C87   A    
C5    C213  A    
C26   C97   S    
C55   C73   A    
C175  H68   S    
O15   Zn23  S    
C211  Cl16  S    
C16   C150  S    
C16   O87   A    
C47   C78   A    
C59   C76   A    
C117  C198  A    
O41   Zn6   S    
C3    C209  A    
C121  Cl7   S    
C36   C222  S    
C2    C197  S    
C114  C131  A    
C115  C196  A    
C50   C84   A    
C95   C104  A    
C14   O85   A    
C114  Cl31  S    
C156  C174  A    
C62   H34   S    
C171  C188  A    
C43   H9    S    
O84   Zn10  S    
C63   H1    S    
O7    Zn7   S    
C19   O73   A    
C143  C161  A    
O8    Zn8   S    
C68   C204  S    
C173  C190  A    
C209  C212  A    
C38   C224  S    
O4    Zn4   S    
C34   O44   A    
C7    C218  A    
C36   O46   A    
C115  Cl32  S    
C18   C79   S    
C133  C144  A    
O83   Zn16  S    
C181  C193  S    
O31   Zn20  S    
C124  C128  A    
C144  C162  A    
O68   Zn15  S    
C59   H25   S    
C220  Cl25  S    
O27   Zn1   S    
C61   H23   S    
C27   C96   S    
C27   O28   A    
C117  C134  A    
C140  H43   S    
C122  C204  A    
C192  O67   A    
O60   Zn7   S    
C56   C74   A    
C77   H6    S    
C51   H17   S    
C89   C100  A    
O17   Zn21  S    
C203  O17   A    
C84   C85   A    
C27   O30   A    
C114  C195  A    
C219  C220  A    
C81   C96   A    
C73   H2    S    
C44   H10   S    
O35   Zn23  S    
C46   O6    A    
C61   C64   A    
C62   C63   A    
C47   H13   S    
C109  C128  A    
C165  H58   S    
C35   O22   A    
C107  C189  A    
C70   C73   A    
C140  C151  A    
O44   Zn1   S    
C169  H62   S    
O42   Zn7   S    
C58   H24   S    
C94   C103  A    
C157  H50   S    
C64   H12   S    
C82   C97   A    
C60   H26   S    
C163  H55   S    
C185  H77   S    
C24   O21   A    
O62   Zn9   S    
C75   H8    S    
C33   C103  S    
C84   C99   A    
C12   C149  S    
C137  C147  A    
C137  H40   S    
C25   C141  S    
C17   C90   S    
C128  H31   S    
O81   Zn14  S    
C2    O19   A    
C178  H71   S    
C15   O86   A    
C21   C135  S    
C172  C189  A    
C122  Cl8   S    
C215  Cl19  S    
O3    Zn3   S    
O1    Zn1   S    
O75   Zn11  S    
C152  C169  A    
C36   O48   A    
C65   C69   A    
C150  C167  A    
O82   Zn17  S    
O46   Zn12  S    
C90   C125  A    
C177  H70   S    
C58   C94   A    
C152  H44   S    
C160  C177  A    
C68   O26   A    
C164  C182  A    
C179  H72   S    
C141  C158  A    
C71   C72   A    
O30   Zn19  S    
O67   Zn22  S    
C176  C194  A    
C161  C178  A    
C170  O14   A    
C170  C191  S    
C166  H59   S    
O64   Zn11  S    
C76   H5    S    
C109  Cl28  S    
C93   C94   A    
C215  C216  A    
C42   O61   A    
C11   O83   A    
C10   O64   A    
C9    O81   A    
C26   O29   A    
C41   O58   A    
C218  Cl22  S    
C107  Cl23  S    
C20   O92   A    
O77   Zn9   S    
C121  C202  A    
C21   O93   A    
C110  Cl29  S    
C151  C168  A    
C15   O69   A    
O21   Zn2   S    
C111  C130  A    
C92   C103  A    
C24   C199  S    
C17   O88   A    
C155  H48   S    
C158  H51   S    
C132  H36   S    
C23   C142  S    
C85   C98   A    
O23   Zn18  S    
C133  H37   S    
C181  O15   A    
C176  H69   S    
C6    C221  A    
O76   Zn13  S    
C155  C173  A    
C111  Cl30  S    
C18   O90   A    
C183  H75   S    
C4    C215  A    
C172  H64   S    
C120  C201  A    
C35   O5    A    
C127  H30   S    
C118  C199  A    
C93   C104  A    
C37   O49   A    
C35   C200  S    
C60   C77   A    
O34   Zn19  S    
C108  Cl27  S    
C56   H22   S    
C119  C137  A    
C49   C85   A    
C209  Cl14  S    
C213  C217  A    
C11   C145  S    
C39   O55   A    
C179  C197  A    
C170  O45   A    
C44   C62   A    
C71   H4    S    
C182  H74   S    
C5    C216  A    
C79   C123  A    
C83   C98   A    
C92   C95   A    
O88   Zn13  S    
C116  Cl2   S    
C26   O27   A    
O70   Zn17  S    
O43   Zn8   S    
C136  H39   S    
O96   Zn14  S    
C53   H19   S    
O92   Zn9   S    
O33   Zn22  S    
C153  C171  A    
C101  C126  A    
C186  C204  A    
C8    C144  S    
O54   Zn2   S    
C138  H41   S    
C162  C179  A    
C131  C142  A    
C157  C175  A    
C184  H76   S    
O20   Zn24  S    
C158  C176  A    
O24   Zn8   S    
C50   H16   S    
C210  C211  A    
C124  C156  A    
C161  H53   S    
O63   Zn10  S    
C91   C102  A    
C1    O1    A    
C49   H15   S    
O32   Zn21  S    
O49   Zn20  S    
C28   O33   A    
O40   Zn5   S    
C205  C208  A    
C148  C189  S    
O71   Zn16  S    
C41   O60   A    
O5    Zn5   S    
O91   Zn10  S    
O65   Zn13  S    
C159  O13   A    
C129  H32   S    
C149  C166  A    
C107  C126  A    
C142  C160  A    
C80   C81   A    
C112  C188  S    
O12   Zn12  S    
C22   C124  S    
C113  C127  A    
C30   O38   A    
O86   Zn13  S    
C105  C187  A    
C205  Cl9   S    
C29   O35   A    
C106  C188  A    
C123  H27   S    
O93   Zn17  S    
O57   Zn4   S    
C109  C191  A    
O9    Zn18  S    
C108  C127  A    
C52   C70   A    
C6    C219  A    
O13   Zn12  S    
C57   O7    A    
O16   Zn20  S    
C54   C72   A    
C4    C217  A    
C126  H29   S    
C163  C180  A    
C43   C82   A    
C79   C152  A    
C59   C93   A    
O18   Zn3   S    
C40   O54   A    
C37   O51   A    
O94   Zn16  S    
C38   O52   A    
