data_mof_unit_35367.cif
_audit_creation_date              2012-12-10T18:11:05-0500
_audit_creation_method            fapswitch 2.2
_symmetry_space_group_name_H-M    P1
_symmetry_Int_Tables_number       1
_space_group_crystal_system       triclinic
_cell_length_a                    10.754236
_cell_length_b                    9.481253
_cell_length_c                    10.63427
_cell_angle_alpha                 89.22015
_cell_angle_beta                  88.537285
_cell_angle_gamma                 88.999053
_cell_volume                      1083.69605944

loop_
_atom_site_label
_atom_site_type_symbol
_atom_type_description
_atom_site_fract_x
_atom_site_fract_y
_atom_site_fract_z
_atom_type_partial_charge
C1    C     C_R   0.259841 0.500425 0.497133 0.786699
C2    C     C_3   0.501163 0.503127 0.122579 0.044845
C3    C     C_3   0.067650 0.508190 0.632482 -0.394067
C4    C     C_3   0.076538 0.360083 0.434692 -0.435905
C5    C     C_3   0.922512 0.506955 0.633395 0.091503
C6    C     C_3   0.933320 0.352745 0.443765 0.100758
C7    C     C_3   0.071239 0.622736 0.413791 -0.407278
C8    C     C_3   0.121601 0.498819 0.495235 0.091515
C9    C     C_3   0.877095 0.496461 0.495038 0.105165
C10   C     C_3   0.928551 0.624636 0.417310 -0.365032
C11   C     C_3   0.625129 0.081755 0.468676 -0.284108
C12   C     C_3   0.626543 0.914615 0.475106 -0.308965
C13   C     C_3   0.466797 0.083156 0.630113 0.264219
C14   C     C_3   0.459145 0.915223 0.627566 0.293515
C15   C     C_3   0.413596 0.085680 0.409580 -0.231624
C16   C     C_3   0.420525 0.919308 0.403518 -0.196177
C17   C     C_R   0.500751 0.500929 0.259498 0.768590
C18   C     C_R   0.739522 0.498775 0.495706 0.798820
C19   C     C_R   0.499468 0.499750 0.740690 0.788202
C20   C     C_3   0.408685 0.588318 0.043438 -0.179611
C21   C     C_3   0.482684 0.371012 0.044448 -0.144545
C22   C     C_3   0.390046 0.456313 0.963078 -0.175464
C23   C     C_3   0.499661 0.501132 0.877804 0.028859
C24   C     C_3   0.518000 0.633973 0.955839 -0.148590
C25   C     C_3   0.592394 0.416799 0.957200 -0.178784
C26   C     C_3   0.610613 0.549328 0.037463 -0.175365
Cu1   Cu    Cu3+1 0.499860 0.642410 0.500060 0.917632
Cu2   Cu    Cu3+1 0.499860 0.357590 0.500060 0.915690
H1    H     H_    0.298119 0.422829 0.930789 0.121029
H2    H     H_    0.894146 0.725231 0.458338 0.179779
H3    H     H_    0.894201 0.629144 0.320386 0.147687
H4    H     H_    0.696360 0.120650 0.533097 0.146952
H5    H     H_    0.692347 0.878875 0.548530 0.161495
H6    H     H_    0.654256 0.117824 0.372508 0.184858
H7    H     H_    0.664567 0.872248 0.384646 0.165125
H8    H     H_    0.545446 0.107321 0.692561 0.076917
H9    H     H_    0.530149 0.878984 0.696128 0.040139
H10   H     H_    0.316852 0.121866 0.429589 0.128831
H11   H     H_    0.327071 0.872560 0.406526 0.158749
H12   H     H_    0.436621 0.128751 0.314317 0.153845
H13   H     H_    0.458719 0.889515 0.309099 0.139576
H14   H     H_    0.532668 0.742029 0.917366 0.115471
H15   H     H_    0.667463 0.346402 0.919171 0.110785
H16   H     H_    0.105094 0.599417 0.680871 0.177148
H17   H     H_    0.110676 0.354461 0.335230 0.175088
H18   H     H_    0.101839 0.414787 0.686996 0.124337
H19   H     H_    0.115815 0.265864 0.484193 0.137559
H20   H     H_    0.104434 0.725756 0.445607 0.167655
H21   H     H_    0.105912 0.611363 0.314833 0.149219
N1    N     N_3   0.500250 0.143650 0.502780 -0.149600
N2    N     N_3   0.500250 0.856350 0.502780 -0.132600
O1    O     O_R   0.317570 0.620260 0.500070 -0.564166
O2    O     O_R   0.317570 0.379740 0.500070 -0.594101
O3    O     O_R   0.499850 0.620240 0.316900 -0.599566
O4    O     O_R   0.499850 0.379760 0.316900 -0.588436
O5    O     O_R   0.682190 0.620260 0.500030 -0.583909
O6    O     O_R   0.682190 0.379740 0.500030 -0.589658
O7    O     O_R   0.499910 0.620280 0.683200 -0.588780
O8    O     O_R   0.499910 0.379720 0.683200 -0.557901
N3    N     N_2   0.357692 0.153142 0.686164 -0.360232
H22   H     H_    0.278119 0.165258 0.635516 0.259426
C27   C     C_3   0.341694 0.142807 0.821641 -0.762681
H23   H     H_    0.329597 0.032327 0.853637 0.217904
H24   H     H_    0.258003 0.204561 0.852004 0.214484
H25   H     H_    0.424704 0.183632 0.867306 0.240309
N4    N     N_2   0.342733 0.853179 0.674795 -0.367848
H26   H     H_    0.345740 0.806475 0.762907 0.233458
C28   C     C_3   0.219268 0.900481 0.640542 -0.728672
H27   H     H_    0.163721 0.807554 0.624625 0.227522
H28   H     H_    0.217345 0.966007 0.554674 0.199988
H29   H     H_    0.173090 0.958697 0.719034 0.217848
H30   H     H_    0.333734 0.658722 0.081714 0.112265
H31   H     H_    0.468220 0.263205 0.083615 0.119068
H32   H     H_    0.700469 0.590565 0.068593 0.112656
H33   H     H_    0.895745 0.407153 0.683063 0.058720
H34   H     H_    0.912296 0.270876 0.517169 0.086304
N5    N     N_2   0.858451 0.620041 0.703914 -0.406591
H35   H     H_    0.799184 0.586129 0.775543 0.239685
C29   C     C_3   0.913676 0.755095 0.726610 -0.719002
H36   H     H_    0.839798 0.830566 0.758743 0.208558
H37   H     H_    0.956599 0.799494 0.639839 0.226856
H38   H     H_    0.983002 0.744772 0.801912 0.218205
N6    N     N_2   0.879801 0.297629 0.329680 -0.417609
H39   H     H_    0.908228 0.195324 0.311044 0.234919
C30   C     C_3   0.869509 0.384370 0.217586 -0.693651
H40   H     H_    0.845459 0.317568 0.137000 0.208129
H41   H     H_    0.958492 0.437209 0.193925 0.218606
H42   H     H_    0.792115 0.461555 0.230592 0.217351

loop_
_geom_bond_atom_site_label_1
_geom_bond_atom_site_label_2
_ccdc_geom_bond_type
C7    C10   S    
N4    C28   S    
C22   H1    S    
C1    C8    S    
C24   H14   S    
C16   N2    S    
C4    C8    S    
C25   H15   S    
C6    C9    S    
Cu1   O3    S    
C7    C8    S    
C13   N3    S    
N5    H35   S    
C24   C26   S    
Cu2   O8    S    
C15   C16   S    
C21   H31   S    
N3    C27   S    
C15   N1    S    
C1    O2    A    
C27   H24   S    
Cu2   N1    S    
C10   H3    S    
N6    H39   S    
C28   H27   S    
C23   C24   S    
C9    C10   S    
C17   O4    A    
C18   O5    A    
C30   H41   S    
N4    H26   S    
Cu2   O6    S    
C13   C14   S    
C2    C17   S    
Cu2   O4    S    
Cu1   N2    S    
C4    H17   S    
N5    C29   S    
C19   O7    A    
C3    H16   S    
C2    C20   S    
C20   C24   S    
C7    H21   S    
C13   H8    S    
C4    C6    S    
C3    C8    S    
C29   H37   S    
Cu1   O5    S    
C19   O8    A    
C25   C26   S    
C30   H40   S    
C13   N1    S    
N3    H22   S    
C5    H33   S    
C19   C23   S    
C15   H10   S    
C5    C9    S    
C27   H23   S    
C10   H2    S    
C18   O6    A    
C14   N2    S    
C11   C12   S    
C2    C21   S    
C14   N4    S    
C2    C26   S    
C12   H7    S    
N6    C30   S    
C20   C22   S    
C11   H4    S    
C5    N5    S    
C12   N2    S    
Cu1   O1    S    
C30   H42   S    
C21   C25   S    
C6    N6    S    
C27   H25   S    
C11   H6    S    
C3    C5    S    
Cu1   O7    S    
C29   H38   S    
Cu2   O2    S    
C6    H34   S    
C3    H18   S    
C7    H20   S    
C11   N1    S    
C14   H9    S    
C28   H29   S    
C17   O3    A    
C26   H32   S    
C23   C25   S    
C1    O1    A    
C15   H12   S    
C16   H11   S    
C29   H36   S    
C9    C18   S    
C28   H28   S    
Cu1   Cu2   S    
C22   C23   S    
C20   H30   S    
C12   H5    S    
C21   C22   S    
C16   H13   S    
C4    H19   S    
