data_mof_unit_52428.cif
_audit_creation_date              2012-12-10T18:59:12-0500
_audit_creation_method            fapswitch 2.2
_symmetry_space_group_name_H-M    P1
_symmetry_Int_Tables_number       1
_space_group_crystal_system       triclinic
_cell_length_a                    9.807053
_cell_length_b                    10.782133
_cell_length_c                    16.710582
_cell_angle_alpha                 88.519421
_cell_angle_beta                  94.359695
_cell_angle_gamma                 88.368766
_cell_volume                      1760.47076991

loop_
_atom_site_label
_atom_site_type_symbol
_atom_type_description
_atom_site_fract_x
_atom_site_fract_y
_atom_site_fract_z
_atom_type_partial_charge
C1    C     C_R   0.502321 0.259923 0.497304 0.901154
C2    C     C_R   0.498901 0.740030 0.500275 0.958628
C3    C     C_R   0.394591 0.940466 0.451893 -0.098183
C4    C     C_R   0.623455 0.058183 0.525260 -0.118583
C5    C     C_R   0.498842 0.872828 0.498706 -0.150367
C6    C     C_R   0.508653 0.127468 0.489941 -0.159435
C7    C     C_R   0.063727 0.584943 0.454195 -0.276985
C8    C     C_R   0.936219 0.416426 0.546531 -0.215726
C9    C     C_R   0.918702 0.585297 0.453748 0.539992
C10   C     C_R   0.081090 0.417117 0.547889 0.554529
C11   C     C_R   0.516928 0.499748 0.653685 0.918625
C12   C     C_R   0.482508 0.496166 0.346075 0.957474
C13   C     C_R   0.520235 0.509687 0.740703 -0.223440
C14   C     C_R   0.475564 0.496829 0.258000 -0.220032
C15   C     C_R   0.436682 0.603889 0.771924 -0.124201
C16   C     C_R   0.590023 0.449122 0.220218 -0.161776
C17   C     C_R   0.413074 0.600234 0.853671 -0.156282
C18   C     C_R   0.610801 0.490831 0.141729 -0.187525
C19   C     C_R   0.469479 0.500823 0.902697 0.111517
C20   C     C_R   0.515442 0.576072 0.101831 0.094457
C21   C     C_R   0.543337 0.403052 0.870866 0.417302
C22   C     C_R   0.399747 0.618536 0.138521 0.406458
C23   C     C_R   0.576074 0.410361 0.790800 -0.183184
C24   C     C_R   0.372455 0.568992 0.213500 -0.152250
C25   C     C_R   0.396873 0.069370 0.450165 -0.076401
C26   C     C_R   0.612770 0.931372 0.536569 -0.080996
H1    H     H_    0.113239 0.653323 0.419125 0.191847
H2    H     H_    0.886728 0.349911 0.582824 0.202818
N1    N     N_2   0.461104 0.499507 0.986106 -0.120700
N2    N     N_2   0.515093 0.590727 0.018224 -0.113987
N3    N     N_R   0.857210 0.499970 0.500020 -0.138553
N4    N     N_R   0.142790 0.500030 0.499980 -0.135178
O1    O     O_R   0.614620 0.316750 0.500010 -0.605840
O2    O     O_R   0.385380 0.683250 0.499990 -0.612414
O3    O     O_R   0.385290 0.316780 0.500000 -0.566839
O4    O     O_R   0.614710 0.683220 0.500000 -0.579005
O5    O     O_R   0.627460 0.498830 0.616130 -0.559842
O6    O     O_R   0.372540 0.501170 0.383870 -0.576399
O7    O     O_R   0.398130 0.498850 0.616130 -0.627718
O8    O     O_R   0.601870 0.501150 0.383870 -0.623031
Zn1   Zn    Zn3+2 0.653130 0.499980 0.500000 1.058785
Zn2   Zn    Zn3+2 0.346870 0.500020 0.500000 1.046243
C27   C     C_2   0.683890 0.352791 0.262410 1.011294
O9    O     O_2   0.636641 0.269500 0.301926 -0.581106
O10   O     O_R   0.825446 0.357900 0.257929 -0.821273
H3    H     H_    0.877337 0.288041 0.289895 0.358663
C28   C     C_2   0.365958 0.701914 0.718305 1.009095
O11   O     O_2   0.431602 0.766601 0.675262 -0.593684
O12   O     O_R   0.224037 0.719723 0.717363 -0.809836
H4    H     H_    0.187791 0.788506 0.678257 0.351708
C29   C     C_2   0.725875 0.440978 0.097719 1.061967
O13   O     O_2   0.792429 0.511682 0.058862 -0.576325
O14   O     O_R   0.755401 0.313315 0.098636 -0.773934
H5    H     H_    0.834556 0.291132 0.065513 0.364422
C30   C     C_2   0.328222 0.699019 0.887833 1.014761
O15   O     O_2   0.236268 0.671031 0.929690 -0.548732
O16   O     O_R   0.352695 0.823829 0.871054 -0.794253
H6    H     H_    0.286659 0.882574 0.896020 0.331698
O17   O     O_3   0.596930 0.306020 0.920745 -0.571822
C31   C     C_3   0.491778 0.222597 0.934306 0.133169
H7    H     H_    0.437548 0.194745 0.876865 0.163992
H8    H     H_    0.416093 0.264317 0.972834 0.145670
C32   C     C_3   0.553693 0.105556 0.976914 -0.695091
H9    H     H_    0.602039 0.128007 0.036762 0.270946
H10   H     H_    0.472339 0.037911 0.985019 0.187389
H11   H     H_    0.631878 0.062721 0.940697 0.284393
O18   O     O_3   0.303750 0.696707 0.096592 -0.534428
C33   C     C_3   0.350843 0.819297 0.099960 0.138931
H12   H     H_    0.427804 0.833199 0.055251 0.142562
H13   H     H_    0.397298 0.841568 0.160848 0.149526
C34   C     C_3   0.230751 0.910138 0.080111 -0.696395
H14   H     H_    0.156105 0.902235 0.126602 0.283711
H15   H     H_    0.267663 0.006524 0.078545 0.191390
H16   H     H_    0.178605 0.890043 0.020815 0.261622
C35   C     C_2   0.662392 0.309519 0.760187 0.977353
O19   O     O_2   0.758795 0.334663 0.721167 -0.626149
O20   O     O_R   0.636362 0.185694 0.778793 -0.785410
H17   H     H_    0.706396 0.125301 0.759087 0.387624
C36   C     C_2   0.232030 0.583413 0.240442 1.059850
O21   O     O_2   0.168643 0.682633 0.231020 -0.614557
O22   O     O_R   0.169130 0.480199 0.272063 -0.757420
H18   H     H_    0.072143 0.499572 0.285821 0.326647
C37   C     C_2   0.291334 0.142946 0.399042 0.987384
O23   O     O_2   0.322676 0.195451 0.337662 -0.590175
O24   O     O_R   0.158223 0.155400 0.422926 -0.694760
H19   H     H_    0.096737 0.209962 0.384279 0.351751
C38   C     C_2   0.724580 0.860594 0.585415 1.018666
O25   O     O_2   0.700043 0.805398 0.647216 -0.564874
O26   O     O_R   0.857005 0.856376 0.559662 -0.741799
H20   H     H_    0.923332 0.804435 0.597127 0.344648
C39   C     C_2   0.292744 0.877878 0.397551 0.915097
O27   O     O_2   0.332151 0.806064 0.348216 -0.662411
O28   O     O_R   0.152975 0.903469 0.401497 -0.730339
H21   H     H_    0.094888 0.861794 0.357911 0.351582
C40   C     C_2   0.757922 0.113763 0.546810 0.999719
O29   O     O_2   0.824559 0.154608 0.493606 -0.554970
O30   O     O_R   0.812804 0.109568 0.626463 -0.814972
H22   H     H_    0.909413 0.140823 0.632599 0.355573
O31   O     O_3   0.838965 0.679613 0.414755 -0.557231
C41   C     C_3   0.845832 0.673015 0.330989 0.085392
H23   H     H_    0.827230 0.577668 0.309985 0.166881
H24   H     H_    0.946815 0.702658 0.313179 0.160151
C42   C     C_3   0.736197 0.759874 0.289158 -0.728768
H25   H     H_    0.754727 0.857068 0.306510 0.274126
H26   H     H_    0.738470 0.753569 0.223034 0.208922
H27   H     H_    0.633421 0.733924 0.306393 0.249716
O32   O     O_3   0.160920 0.329215 0.592994 -0.564399
C43   C     C_3   0.148753 0.348230 0.675505 0.079736
H28   H     H_    0.044030 0.328435 0.692585 0.169481
H29   H     H_    0.173707 0.445151 0.691547 0.173874
C44   C     C_3   0.248241 0.260045 0.724431 -0.742372
H30   H     H_    0.354057 0.273891 0.707455 0.250979
H31   H     H_    0.243612 0.278012 0.789292 0.189829
H32   H     H_    0.220856 0.162410 0.713293 0.270635

loop_
_geom_bond_atom_site_label_1
_geom_bond_atom_site_label_2
_ccdc_geom_bond_type
C38   O25   D    
C32   H10   S    
O28   H21   S    
C5    C26   A    
C40   O29   D    
C44   H30   S    
O2    Zn2   S    
C15   C28   S    
C27   O9    D    
O30   H22   S    
C10   O32   S    
C1    O1    A    
C28   O12   S    
C20   N2    S    
O10   H3    S    
C31   C32   S    
C3    C39   S    
C19   C21   A    
O6    Zn2   S    
O24   H19   S    
C6    C25   A    
C7    H1    S    
C43   H28   S    
C13   C23   A    
C31   H8    S    
C14   C24   A    
C11   O5    A    
O3    Zn2   S    
C44   H31   S    
C37   O23   D    
C33   H12   S    
O32   C43   S    
C42   H27   S    
C17   C30   S    
C18   C20   A    
O20   H17   S    
C33   H13   S    
C2    O2    A    
C32   H11   S    
O17   C31   S    
C9    O31   S    
C21   O17   S    
C12   O6    A    
O4    Zn1   S    
C18   C29   S    
O22   H18   S    
O7    Zn2   S    
C29   O13   D    
C28   O11   D    
C3    C25   A    
C4    C6    A    
C23   C35   S    
C39   O27   D    
C36   O22   S    
C26   C38   S    
O14   H5    S    
C41   C42   S    
O18   C33   S    
C31   H7    S    
C29   O14   S    
C12   O8    A    
C35   O19   D    
N1    N2    D    
C39   O28   S    
C4    C40   S    
C27   O10   S    
C24   C36   S    
O31   C41   S    
C13   C15   A    
C30   O15   D    
C41   H24   S    
C42   H26   S    
C11   O7    A    
C35   O20   S    
C16   C27   S    
C8    C10   A    
O8    Zn1   S    
C37   O24   S    
C12   C14   S    
C30   O16   S    
C8    H2    S    
C14   C16   A    
C2    C5    S    
C19   N1    S    
C42   H25   S    
C1    O3    A    
C34   H15   S    
C2    O4    A    
C7    C9    A    
C7    N4    A    
N3    Zn1   S    
C8    N3    A    
C20   C22   A    
C32   H9    S    
C3    C5    A    
C34   H16   S    
C4    C26   A    
C40   O30   S    
C15   C17   A    
C43   C44   S    
O1    Zn1   S    
C21   C23   A    
C34   H14   S    
C11   C13   S    
O16   H6    S    
C33   C34   S    
C41   H23   S    
C17   C19   A    
C43   H29   S    
C44   H32   S    
C22   C24   A    
O5    Zn1   S    
C22   O18   S    
C9    N3    A    
C36   O21   D    
C10   N4    A    
C16   C18   A    
O12   H4    S    
C1    C6    S    
C25   C37   S    
C38   O26   S    
N4    Zn2   S    
O26   H20   S    
