data_mof_unit_63806.cif
_audit_creation_date              2012-12-10T16:58:29-0500
_audit_creation_method            fapswitch 2.2
_symmetry_space_group_name_H-M    P1
_symmetry_Int_Tables_number       1
_space_group_crystal_system       triclinic
_cell_length_a                    30.828912
_cell_length_b                    30.665133
_cell_length_c                    24.719332
_cell_angle_alpha                 89.988006
_cell_angle_beta                  128.402952
_cell_angle_gamma                 89.999534
_cell_volume                      18313.3691704

loop_
_atom_site_label
_atom_site_type_symbol
_atom_type_description
_atom_site_fract_x
_atom_site_fract_y
_atom_site_fract_z
_atom_type_partial_charge
C1    C     C_R   0.807968 0.809696 0.497169 0.988227
C2    C     C_R   0.192034 0.809695 0.502836 0.988426
C3    C     C_R   0.307968 0.309696 0.497168 0.988229
C4    C     C_R   0.692033 0.309695 0.502835 0.988427
C5    C     C_R   0.644122 0.748452 0.289709 -0.335498
C6    C     C_R   0.355261 0.749387 0.710354 -0.344605
C7    C     C_R   0.144710 0.249393 0.289646 -0.344643
C8    C     C_R   0.855847 0.248451 0.710292 -0.335455
C9    C     C_R   0.466395 0.749485 0.929908 0.338902
C10   C     C_R   0.535847 0.747748 0.069242 0.350474
C11   C     C_R   0.964080 0.247757 0.930759 0.350510
C12   C     C_R   0.033528 0.249498 0.070091 0.338924
C13   C     C_2   0.886340 0.873030 0.452160 0.602316
C14   C     C_2   0.113697 0.873026 0.547889 0.602470
C15   C     C_2   0.386339 0.373030 0.452158 0.602455
C16   C     C_2   0.613700 0.373028 0.547891 0.602340
C17   C     C_2   0.913658 0.902790 0.502617 -0.548458
C18   C     C_2   0.086366 0.902795 0.497420 -0.548520
C19   C     C_2   0.413658 0.402789 0.502616 -0.548589
C20   C     C_2   0.586364 0.402793 0.497419 -0.548393
C21   C     C_2   0.858564 0.836968 0.458151 0.605818
C22   C     C_2   0.141472 0.836963 0.541898 0.605779
C23   C     C_2   0.358562 0.336968 0.458148 0.605800
C24   C     C_2   0.641474 0.336965 0.541900 0.605796
C25   C     C_2   0.835776 0.843653 0.489189 -0.551667
C26   C     C_2   0.164240 0.843652 0.510834 -0.551576
C27   C     C_2   0.335773 0.343653 0.489186 -0.551792
C28   C     C_2   0.664237 0.343652 0.510829 -0.551442
C29   C     C_R   0.836284 0.747866 0.746270 0.620487
C30   C     C_R   0.164191 0.748271 0.253973 0.621914
C31   C     C_R   0.336285 0.247864 0.746271 0.620531
C32   C     C_R   0.664193 0.248252 0.253975 0.621849
C33   C     C_R   0.872266 0.747575 0.817835 -0.312775
C34   C     C_R   0.128428 0.748156 0.182407 -0.314078
C35   C     C_R   0.372268 0.247572 0.817836 -0.312858
C36   C     C_R   0.628430 0.248136 0.182408 -0.314015
C37   C     C_R   0.929525 0.751607 0.854255 -0.170445
C38   C     C_R   0.071161 0.751795 0.145852 -0.170366
C39   C     C_R   0.429527 0.251605 0.854256 -0.170453
C40   C     C_R   0.571165 0.251791 0.145853 -0.170357
C41   C     C_R   0.950407 0.756323 0.817523 0.645076
C42   C     C_R   0.049931 0.756184 0.182150 0.645824
C43   C     C_R   0.450408 0.256323 0.817523 0.645079
C44   C     C_R   0.549936 0.256198 0.182150 0.645828
C45   C     C_R   0.682472 0.749757 0.365207 0.992028
C46   C     C_R   0.317400 0.749912 0.634812 0.986197
C47   C     C_R   0.182593 0.249916 0.365188 0.986242
C48   C     C_R   0.817520 0.249753 0.634793 0.991998
C49   C     C_R   0.914431 0.756878 0.745128 -0.064175
C50   C     C_R   0.085650 0.756602 0.254546 -0.064399
C51   C     C_R   0.414431 0.256879 0.745128 -0.064236
C52   C     C_R   0.585655 0.256617 0.254546 -0.064332
C53   C     C_R   0.856892 0.752042 0.709567 -0.272526
C54   C     C_R   0.143280 0.752000 0.290409 -0.273345
C55   C     C_R   0.356892 0.252042 0.709567 -0.272729
C56   C     C_R   0.643282 0.251998 0.290409 -0.273134
C57   C     C_R   0.034273 0.751485 0.070042 0.363755
C58   C     C_R   0.966637 0.751255 0.930257 0.361704
C59   C     C_R   0.534277 0.251482 0.070044 0.363804
C60   C     C_R   0.466640 0.251253 0.930258 0.361681
C61   C     C_2   0.610005 0.630633 0.546879 0.109207
C62   C     C_2   0.389948 0.630633 0.453057 0.109520
C63   C     C_2   0.110008 0.130631 0.546882 0.109585
C64   C     C_2   0.889899 0.130614 0.453011 0.109196
C65   C     C_2   0.584040 0.599520 0.497674 -0.336240
C66   C     C_2   0.415938 0.599519 0.502287 -0.336774
C67   C     C_2   0.084040 0.099520 0.497675 -0.336732
C68   C     C_2   0.915951 0.099531 0.502286 -0.336318
C69   C     C_2   0.635023 0.666207 0.534862 0.502397
C70   C     C_2   0.364930 0.666209 0.465068 0.503226
C71   C     C_2   0.135026 0.166206 0.534866 0.503179
C72   C     C_2   0.864893 0.166196 0.465028 0.502410
C73   C     C_2   0.667227 0.656640 0.517071 0.282760
C74   C     C_2   0.332758 0.656643 0.482911 0.280975
C75   C     C_2   0.167228 0.156640 0.517072 0.281305
C76   C     C_2   0.832768 0.156637 0.482940 0.282403
C77   C     C_R   0.442487 0.561451 0.500159 0.916639
C78   C     C_R   0.557507 0.561451 0.499827 0.916756
C79   C     C_R   0.942488 0.061454 0.500159 0.916768
C80   C     C_R   0.057507 0.061451 0.499827 0.916714
C81   C     C_R   0.941866 0.939203 0.500290 1.037236
C82   C     C_R   0.058141 0.939204 0.499723 1.037065
C83   C     C_R   0.441866 0.439203 0.500290 1.037047
C84   C     C_R   0.558141 0.439204 0.499723 1.037235
C85   C     C_R   0.692189 0.690253 0.503392 0.883318
C86   C     C_R   0.307807 0.690254 0.496601 0.880180
C87   C     C_R   0.192190 0.190253 0.503393 0.880300
C88   C     C_R   0.807810 0.190254 0.496609 0.883240
C89   C     C_R   0.817820 0.750585 0.634492 0.936593
C90   C     C_R   0.182197 0.750585 0.365502 0.935984
C91   C     C_R   0.317820 0.250585 0.634492 0.936937
C92   C     C_R   0.682198 0.250584 0.365502 0.935661
C93   C     C_R   0.618048 0.786619 0.251833 0.589442
C94   C     C_R   0.381417 0.787929 0.747318 0.593043
C95   C     C_R   0.118517 0.287934 0.252655 0.593041
C96   C     C_R   0.881876 0.286623 0.748135 0.589446
C97   C     C_R   0.582860 0.785350 0.180224 -0.262202
C98   C     C_R   0.416822 0.787396 0.819033 -0.253855
C99   C     C_R   0.083092 0.287402 0.180941 -0.253866
C100  C     C_R   0.917045 0.285357 0.819744 -0.262175
C101  C     C_R   0.572625 0.746078 0.144986 -0.102278
C102  C     C_R   0.427394 0.748439 0.854774 -0.117797
C103  C     C_R   0.072537 0.248448 0.145226 -0.117810
C104  C     C_R   0.927308 0.246083 0.855016 -0.102286
C105  C     C_R   0.597155 0.706709 0.182773 0.058840
C106  C     C_R   0.401228 0.709278 0.818335 0.051429
C107  C     C_R   0.098737 0.209289 0.181692 0.051360
C108  C     C_R   0.902821 0.206710 0.817264 0.058858
C109  C     C_R   0.633478 0.708670 0.255306 0.529764
C110  C     C_R   0.365044 0.710238 0.745932 0.546377
C111  C     C_R   0.134940 0.210247 0.254093 0.546373
C112  C     C_R   0.866514 0.208668 0.744728 0.529768
H1    H     H_    0.854989 0.744063 0.844636 0.219068
H2    H     H_    0.145731 0.744652 0.155628 0.217806
H3    H     H_    0.354992 0.244059 0.844638 0.219040
H4    H     H_    0.645732 0.244618 0.155629 0.217821
H5    H     H_    0.578727 0.603810 0.450146 0.169920
H6    H     H_    0.421266 0.603809 0.549822 0.168787
H7    H     H_    0.078725 0.103811 0.450145 0.168738
H8    H     H_    0.921330 0.103851 0.549852 0.169952
H9    H     H_    0.564163 0.815516 0.152017 0.207575
H10   H     H_    0.436719 0.817427 0.846938 0.202934
H11   H     H_    0.063169 0.317433 0.153015 0.202934
H12   H     H_    0.935709 0.315526 0.847924 0.207583
H13   H     H_    0.919160 0.898593 0.550213 0.129529
H14   H     H_    0.080861 0.898606 0.449822 0.129413
H15   H     H_    0.419158 0.398593 0.550212 0.129358
H16   H     H_    0.580854 0.398602 0.449818 0.129582
H17   H     H_    0.833775 0.876188 0.504973 0.137372
H18   H     H_    0.166238 0.876191 0.495045 0.137299
H19   H     H_    0.333771 0.376189 0.504968 0.137278
H20   H     H_    0.666231 0.376190 0.495033 0.137390
N1    N     N_R   0.547016 0.724025 0.032957 -0.170040
N2    N     N_R   0.512723 0.724665 0.964407 -0.163036
N3    N     N_R   0.987224 0.224661 0.035614 -0.163045
N4    N     N_R   0.952933 0.224020 0.967064 -0.170039
N5    N     N_R   0.456024 0.774478 0.965907 -0.147570
N6    N     N_R   0.490232 0.773600 0.034535 -0.157875
N7    N     N_R   0.009669 0.273624 0.965444 -0.157896
N8    N     N_R   0.043875 0.274503 0.034069 -0.147604
N9    N     N_R   0.021686 0.758525 0.967229 -0.065455
N10   N     N_R   0.979286 0.744011 0.033159 -0.069828
N11   N     N_R   0.521687 0.258528 0.967230 -0.065430
N12   N     N_R   0.479291 0.244001 0.033161 -0.069904
N13   N     N_R   0.054877 0.758599 0.035759 -0.163166
N14   N     N_R   0.946113 0.743935 0.964621 -0.164877
N15   N     N_R   0.554879 0.258602 0.035760 -0.163100
N16   N     N_R   0.446117 0.243925 0.964623 -0.164925
O1    O     O_R   0.820760 0.769680 0.499980 -0.574445
O2    O     O_R   0.179240 0.769680 0.500020 -0.574219
O3    O     O_R   0.320760 0.269680 0.499980 -0.574184
O4    O     O_R   0.679240 0.269680 0.500020 -0.574480
O5    O     O_R   0.483490 0.545220 0.557520 -0.628978
O6    O     O_R   0.516510 0.545220 0.442480 -0.628586
O7    O     O_R   0.983490 0.045220 0.557520 -0.628531
O8    O     O_R   0.016510 0.045220 0.442480 -0.629007
O9    O     O_R   0.926010 0.954760 0.442510 -0.556539
O10   O     O_R   0.073990 0.954760 0.557490 -0.556460
O11   O     O_R   0.426010 0.454760 0.442510 -0.556476
O12   O     O_R   0.573990 0.454760 0.557490 -0.556507
O13   O     O_R   0.983520 0.954760 0.557520 -0.614579
O14   O     O_R   0.016480 0.954760 0.442480 -0.614797
O15   O     O_R   0.483520 0.454760 0.557520 -0.614804
O16   O     O_R   0.516480 0.454760 0.442480 -0.614583
O17   O     O_R   0.769670 0.820760 0.499990 -0.621182
O18   O     O_R   0.230330 0.820760 0.500010 -0.620806
O19   O     O_R   0.269670 0.320760 0.499990 -0.620866
O20   O     O_R   0.730330 0.320760 0.500010 -0.621115
O21   O     O_R   0.724610 0.724460 0.398130 -0.559148
O22   O     O_R   0.275390 0.724460 0.601870 -0.557942
O23   O     O_R   0.224610 0.224460 0.398130 -0.557909
O24   O     O_R   0.775390 0.224460 0.601870 -0.559183
O25   O     O_R   0.673520 0.775530 0.398150 -0.581037
O26   O     O_R   0.326480 0.775530 0.601850 -0.579714
O27   O     O_R   0.173520 0.275530 0.398150 -0.579676
O28   O     O_R   0.826480 0.275530 0.601850 -0.581094
O29   O     O_R   0.730310 0.679220 0.500010 -0.567503
O30   O     O_R   0.269690 0.679220 0.499990 -0.569183
O31   O     O_R   0.230310 0.179220 0.500010 -0.569105
O32   O     O_R   0.769690 0.179220 0.499990 -0.567593
O33   O     O_R   0.679220 0.730290 0.500020 -0.578593
O34   O     O_R   0.320780 0.730290 0.499980 -0.577962
O35   O     O_R   0.179220 0.230290 0.500020 -0.578077
O36   O     O_R   0.820780 0.230290 0.499980 -0.578501
O37   O     O_R   0.826460 0.724450 0.601850 -0.640429
O38   O     O_R   0.173540 0.724450 0.398150 -0.640134
O39   O     O_R   0.326460 0.224450 0.601850 -0.640159
O40   O     O_R   0.673540 0.224450 0.398150 -0.640406
O41   O     O_R   0.775370 0.775520 0.601870 -0.575685
O42   O     O_R   0.224630 0.775520 0.398130 -0.574940
O43   O     O_R   0.275370 0.275520 0.601870 -0.575637
O44   O     O_R   0.724630 0.275520 0.398130 -0.574988
O45   O     O_R   0.425990 0.545230 0.442510 -0.630051
O46   O     O_R   0.574010 0.545230 0.557490 -0.630043
O47   O     O_R   0.925990 0.045230 0.442510 -0.630182
O48   O     O_R   0.074010 0.045230 0.557490 -0.629998
Zn1   Zn    Zn3+2 0.784100 0.715890 0.499990 1.100228
Zn2   Zn    Zn3+2 0.215900 0.715890 0.500010 1.099791
Zn3   Zn    Zn3+2 0.284100 0.215890 0.499990 1.099750
Zn4   Zn    Zn3+2 0.715900 0.215890 0.500010 1.100268
Zn5   Zn    Zn3+2 0.715880 0.784090 0.500010 1.115908
Zn6   Zn    Zn3+2 0.284120 0.784090 0.499990 1.116679
Zn7   Zn    Zn3+2 0.215880 0.284090 0.500010 1.116198
Zn8   Zn    Zn3+2 0.784120 0.284090 0.499990 1.116378
Zn9   Zn    Zn3+2 0.461590 0.499990 0.423210 1.036958
Zn10  Zn    Zn3+2 0.538410 0.499990 0.576790 1.036510
Zn11  Zn    Zn3+2 0.961590 0.999990 0.423210 1.036299
Zn12  Zn    Zn3+2 0.038410 0.999990 0.576790 1.037133
F1    F     F_    0.627978 0.825464 0.284034 -0.617497
F2    F     F_    0.371830 0.826309 0.714136 -0.617376
F3    F     F_    0.128089 0.326311 0.285811 -0.617389
F4    F     F_    0.871919 0.325469 0.715900 -0.617481
F5    F     F_    0.005672 0.760739 0.851594 -0.645931
F6    F     F_    0.994677 0.761422 0.147490 -0.645841
F7    F     F_    0.505673 0.260740 0.851593 -0.645898
F8    F     F_    0.494684 0.261454 0.147488 -0.645872
C113  C     C_3   0.938455 0.764659 0.707816 -0.325190
C114  C     C_3   0.963438 0.722933 0.703982 -0.691778
H21   H     H_    0.931578 0.696939 0.676608 0.258313
H22   H     H_    0.979721 0.729441 0.675374 0.245207
H23   H     H_    0.998044 0.711311 0.756606 0.284520
H24   H     H_    0.906952 0.777507 0.654899 0.184484
H25   H     H_    0.971015 0.790211 0.735170 0.244491
C115  C     C_3   0.061294 0.764153 0.291500 -0.325806
C116  C     C_3   0.036211 0.722317 0.294832 -0.693612
H26   H     H_    0.001841 0.710769 0.242048 0.283995
H27   H     H_    0.068117 0.696352 0.322341 0.258432
H28   H     H_    0.019580 0.728645 0.323079 0.245670
H29   H     H_    0.092607 0.776879 0.344537 0.185301
H30   H     H_    0.028726 0.789705 0.264110 0.244992
C117  C     C_3   0.438454 0.264663 0.707815 -0.325416
C118  C     C_3   0.463440 0.222939 0.703981 -0.691415
H31   H     H_    0.498055 0.211323 0.756605 0.284561
H32   H     H_    0.431585 0.196940 0.676620 0.258278
H33   H     H_    0.479712 0.229447 0.675360 0.245221
H34   H     H_    0.406950 0.277510 0.654897 0.184431
H35   H     H_    0.471012 0.290216 0.735168 0.244454
C119  C     C_3   0.561302 0.264187 0.291500 -0.325613
C120  C     C_3   0.536198 0.222364 0.294830 -0.693998
H36   H     H_    0.568093 0.196391 0.322345 0.258461
H37   H     H_    0.519565 0.228708 0.323070 0.245662
H38   H     H_    0.501827 0.210818 0.242045 0.283963
H39   H     H_    0.592621 0.276909 0.344539 0.185331
H40   H     H_    0.528747 0.289749 0.264111 0.245027
C121  C     C_3   0.612952 0.629663 0.610816 -0.391670
C122  C     C_3   0.639631 0.669710 0.657555 -0.683856
H41   H     H_    0.681764 0.675286 0.673569 0.286956
H42   H     H_    0.613468 0.699022 0.630911 0.304544
H43   H     H_    0.643377 0.664336 0.704735 0.229480
H44   H     H_    0.570409 0.626305 0.594516 0.209993
H45   H     H_    0.637728 0.600884 0.642597 0.237003
C123  C     C_3   0.386977 0.629664 0.389104 -0.391713
C124  C     C_3   0.360260 0.669707 0.342327 -0.684203
H46   H     H_    0.318132 0.675278 0.326331 0.286662
H47   H     H_    0.386407 0.699022 0.368931 0.304739
H48   H     H_    0.356498 0.664333 0.295138 0.229310
H49   H     H_    0.429516 0.626312 0.405387 0.210089
H50   H     H_    0.362216 0.600881 0.357359 0.236880
C125  C     C_3   0.112960 0.129659 0.610823 -0.391646
C126  C     C_3   0.139643 0.169704 0.657565 -0.683908
H51   H     H_    0.181775 0.175279 0.673574 0.286987
H52   H     H_    0.113482 0.199017 0.630926 0.304552
H53   H     H_    0.143393 0.164328 0.704747 0.229420
H54   H     H_    0.070418 0.126302 0.594527 0.210035
H55   H     H_    0.137735 0.100879 0.642600 0.237008
C127  C     C_3   0.886822 0.129599 0.388982 -0.391761
C128  C     C_3   0.860006 0.169602 0.342131 -0.684202
H56   H     H_    0.817903 0.175150 0.326227 0.286633
H57   H     H_    0.886126 0.198942 0.368636 0.304751
H58   H     H_    0.856167 0.164192 0.294895 0.229382
H59   H     H_    0.929336 0.126268 0.405177 0.210138
H60   H     H_    0.862074 0.100788 0.357320 0.236895
F9    F     F_    0.623235 0.708204 0.539347 -0.641729
F10   F     F_    0.376686 0.708206 0.460529 -0.641583
F11   F     F_    0.123240 0.208203 0.539354 -0.641787
F12   F     F_    0.876593 0.208192 0.460392 -0.641456
F13   F     F_    0.681669 0.614531 0.517474 -0.652632
F14   F     F_    0.318336 0.614534 0.482548 -0.653828
F15   F     F_    0.181669 0.114531 0.517473 -0.653713
F16   F     F_    0.818392 0.114527 0.482662 -0.652748
C129  C     C_3   0.583943 0.662356 0.148099 -0.321276
C130  C     C_3   0.524413 0.648473 0.113823 -0.815675
H61   H     H_    0.517042 0.647990 0.152469 0.273079
H62   H     H_    0.494216 0.670826 0.071131 0.257503
H63   H     H_    0.517280 0.615172 0.092103 0.253736
H64   H     H_    0.592095 0.662070 0.110343 0.215484
H65   H     H_    0.611469 0.636627 0.186008 0.264294
C131  C     C_3   0.409421 0.666667 0.854808 -0.329700
C132  C     C_3   0.449359 0.636722 0.855572 -0.754669
H66   H     H_    0.432608 0.628197 0.802126 0.290845
H67   H     H_    0.490184 0.652833 0.882117 0.260083
H68   H     H_    0.455306 0.606177 0.883599 0.244315
H69   H     H_    0.425202 0.672062 0.908660 0.195952
H70   H     H_    0.368945 0.649877 0.828316 0.246982
C133  C     C_3   0.090564 0.166667 0.145247 -0.329691
C134  C     C_3   0.050654 0.136727 0.144523 -0.754610
H71   H     H_    0.067420 0.128201 0.197980 0.290843
H72   H     H_    0.009819 0.152830 0.117972 0.260050
H73   H     H_    0.044724 0.106182 0.116523 0.244339
H74   H     H_    0.074770 0.172081 0.091387 0.195955
H75   H     H_    0.131050 0.149898 0.171741 0.247035
C135  C     C_3   0.916064 0.162358 0.851979 -0.321355
C136  C     C_3   0.975610 0.148491 0.886284 -0.815604
H76   H     H_    0.982993 0.148021 0.847650 0.273091
H77   H     H_    0.005783 0.170847 0.928962 0.257499
H78   H     H_    0.982766 0.115188 0.908029 0.253730
H79   H     H_    0.907903 0.162063 0.889725 0.215471
H80   H     H_    0.888564 0.136624 0.814090 0.264270
F17   F     F_    0.657025 0.671498 0.292847 -0.641015
F18   F     F_    0.339922 0.672795 0.710174 -0.637535
F19   F     F_    0.160093 0.172805 0.289876 -0.637497
F20   F     F_    0.843006 0.171493 0.707220 -0.641037
F21   F     F_    0.886336 0.874275 0.397123 -0.590279
F22   F     F_    0.113705 0.874260 0.602928 -0.590170
F23   F     F_    0.386338 0.374275 0.397123 -0.590203
F24   F     F_    0.613716 0.374266 0.602937 -0.590242
F25   F     F_    0.853927 0.797925 0.428789 -0.588132
F26   F     F_    0.146117 0.797912 0.571271 -0.587986
F27   F     F_    0.353926 0.297924 0.428787 -0.588008
F28   F     F_    0.646126 0.297915 0.571280 -0.588114
F29   F     F_    0.781167 0.742988 0.712655 -0.636359
F30   F     F_    0.219372 0.743601 0.287841 -0.635842
F31   F     F_    0.281169 0.242985 0.712657 -0.636311
F32   F     F_    0.719372 0.243565 0.287844 -0.635896

loop_
_geom_bond_atom_site_label_1
_geom_bond_atom_site_label_2
_ccdc_geom_bond_type
C99   C103  A    
C121  H44   S    
O36   Zn8   S    
C57   N13   A    
O14   Zn11  S    
N10   N14   A    
C123  H50   S    
C136  H77   S    
C50   C115  S    
C130  H61   S    
C70   F10   S    
C95   C99   A    
C135  H80   S    
C86   O30   A    
C116  H28   S    
O4    Zn4   S    
O25   Zn5   S    
O18   Zn6   S    
C77   O45   A    
C6    C94   A    
C12   N3    A    
C70   C74   D    
C105  C129  S    
C46   O26   A    
C35   H3    S    
C117  H34   S    
C131  H70   S    
C26   H18   S    
N9    N13   A    
C62   C123  S    
C72   F12   S    
C121  C122  S    
O43   Zn7   S    
C41   C49   A    
C63   C67   D    
C80   O48   A    
C76   F16   S    
C62   C66   D    
C90   O38   A    
C73   F13   S    
C98   C102  A    
C91   O43   A    
C4    O20   A    
C49   C113  S    
C100  H12   S    
C45   O25   A    
C38   C57   S    
C41   F5    S    
C136  H76   S    
C16   C20   D    
C118  H32   S    
O44   Zn8   S    
C13   C21   S    
C2    C26   S    
C30   F30   S    
C134  H71   S    
C63   C71   S    
C53   C89   S    
C29   F29   S    
C129  H64   S    
C66   C77   S    
C44   F8    S    
O33   Zn5   S    
C47   O23   A    
N7    N8    A    
C69   F9    S    
C21   F25   S    
C23   F27   S    
C115  H29   S    
C58   N9    A    
C49   C53   A    
C39   C60   S    
C18   C82   S    
C51   C55   A    
C14   F22   S    
C79   O7    A    
C46   O22   A    
C103  C107  A    
C60   N16   A    
O37   Zn1   S    
C11   N4    A    
C123  C124  S    
C59   N15   A    
C2    O2    A    
C29   C33   A    
O9    Zn11  S    
C100  C104  A    
C3    O19   A    
C30   C54   A    
C62   C70   S    
C5    C109  A    
C57   N10   A    
C42   F6    S    
C64   C68   D    
C54   C90   S    
C127  H59   S    
C60   N11   A    
C87   O35   A    
C124  H46   S    
C82   O10   A    
C128  H58   S    
C88   O36   A    
O40   Zn4   S    
C79   O47   A    
C110  F18   S    
C97   H9    S    
C77   O5    A    
C15   F23   S    
C134  H73   S    
C52   C119  S    
C44   C52   A    
C68   C79   S    
O29   Zn1   S    
C19   C83   S    
C105  C109  A    
O11   Zn9   S    
C4    O4    A    
O45   Zn9   S    
C30   C34   A    
C51   C117  S    
O42   Zn6   S    
C82   O14   A    
C113  C114  S    
O12   Zn10  S    
C119  H39   S    
O20   Zn8   S    
C28   H20   S    
O48   Zn12  S    
O32   Zn4   S    
C63   C125  S    
C71   F11   S    
C132  H66   S    
C120  H37   S    
C1    O1    A    
C73   C85   S    
C42   C50   A    
C75   C87   S    
C94   F2    S    
C20   C84   S    
C36   H4    S    
C93   C97   A    
C114  H23   S    
O21   Zn1   S    
C90   O42   A    
C98   H10   S    
C21   C25   D    
C122  H41   S    
C74   F14   S    
C85   O33   A    
C89   O37   A    
C24   C28   D    
C126  H51   S    
C45   O21   A    
C124  H48   S    
C128  H56   S    
C92   O40   A    
C10   N6    A    
O15   Zn10  S    
C130  H62   S    
C13   C17   D    
C32   F32   S    
O10   Zn12  S    
C14   C22   S    
C3    C27   S    
C64   C127  S    
C68   H8    S    
C96   C100  A    
C134  H72   S    
C116  H27   S    
C32   C56   A    
O24   Zn4   S    
C61   C65   D    
C37   C41   A    
O6    Zn9   S    
C40   C44   A    
C130  H63   S    
C65   H5    S    
C67   H7    S    
C47   O27   A    
C11   N7    A    
C48   O28   A    
C122  H43   S    
C113  H25   S    
C96   F4    S    
C22   F26   S    
O28   Zn8   S    
C120  H36   S    
C10   N1    A    
C115  C116  S    
C84   O12   A    
N3    N4    A    
C15   C19   D    
C50   C54   A    
C106  C131  S    
C8    C112  A    
C107  C133  S    
C94   C98   A    
O26   Zn6   S    
C132  H68   S    
C78   O46   A    
O17   Zn5   S    
C55   C91   S    
C9    N5    A    
C9    C102  S    
C12   N8    A    
C69   C73   D    
C11   C104  S    
O19   Zn7   S    
C2    O18   A    
C72   C76   D    
C133  H75   S    
C111  F19   S    
C121  H45   S    
C43   F7    S    
C107  C111  A    
C126  H53   S    
C123  H49   S    
C88   O32   A    
C136  H78   S    
C81   O9    A    
C12   C103  S    
O7    Zn12  S    
C133  C134  S    
C78   O6    A    
C5    C45   S    
C135  H79   S    
C33   C37   A    
C108  C112  A    
O39   Zn3   S    
C7    C47   S    
C35   C39   A    
C8    C48   S    
C115  H30   S    
C131  H69   S    
C31   F31   S    
C125  H54   S    
N1    N2    A    
C31   C35   A    
C32   C36   A    
C104  C108  A    
C16   F24   S    
C113  H24   S    
C83   O15   A    
C119  C120  S    
C65   C78   S    
O34   Zn6   S    
C81   O13   A    
C10   C101  S    
C67   C80   S    
C38   C42   A    
C133  H74   S    
C114  H22   S    
C95   F3    S    
C127  H60   S    
C128  H57   S    
C43   C51   A    
O31   Zn3   S    
C118  H31   S    
C7    C111  A    
C17   C81   S    
O47   Zn11  S    
C85   O29   A    
C22   C26   D    
C86   O34   A    
C89   O41   A    
O38   Zn2   S    
C31   C55   A    
C91   O39   A    
O2    Zn2   S    
C18   H14   S    
C92   O44   A    
C129  H65   S    
C27   H19   S    
C14   C18   D    
C8    C96   A    
N12   N16   A    
C25   H17   S    
N11   N15   A    
C20   H16   S    
O16   Zn9   S    
C61   C121  S    
C119  H40   S    
O8    Zn11  S    
O23   Zn3   S    
C48   O24   A    
O13   Zn12  S    
C23   C27   D    
C76   C88   S    
C37   C58   S    
C84   O16   A    
C9    N2    A    
C15   C23   S    
O30   Zn2   S    
C16   C24   S    
C40   C59   S    
C1    C25   S    
C6    C110  A    
C4    C28   S    
C80   O8    A    
C101  C105  A    
O46   Zn10  S    
C122  H42   S    
O3    Zn3   S    
C36   C40   A    
C126  H52   S    
C124  H47   S    
C39   C43   A    
O41   Zn5   S    
C129  C130  S    
C118  H33   S    
C75   F15   S    
C125  H55   S    
C1    O17   A    
C116  H26   S    
C74   C86   S    
C59   N12   A    
C93   F1    S    
C13   F21   S    
C125  C126  S    
O22   Zn2   S    
C99   H11   S    
C106  C110  A    
C61   C69   S    
C33   H1    S    
C135  C136  S    
C6    C46   S    
C34   C38   A    
C5    C93   A    
C58   N14   A    
C34   H2    S    
C7    C95   A    
N5    N6    A    
C3    O3    A    
C117  H35   S    
O35   Zn7   S    
C131  C132  S    
C24   F28   S    
C71   C75   D    
C17   H13   S    
C114  H21   S    
C29   C53   A    
C19   H15   S    
C132  H67   S    
C102  C106  A    
C120  H38   S    
C64   C72   S    
O27   Zn7   S    
C127  C128  S    
C87   O31   A    
O5    Zn10  S    
C56   C92   S    
C83   O11   A    
C112  F20   S    
C66   H6    S    
C109  F17   S    
C117  C118  S    
C97   C101  A    
C52   C56   A    
O1    Zn1   S    
C108  C135  S    
