data_mof_unit_65814.cif
_audit_creation_date              2012-12-10T18:24:52-0500
_audit_creation_method            fapswitch 2.2
_symmetry_space_group_name_H-M    P1
_symmetry_Int_Tables_number       1
_space_group_crystal_system       triclinic
_cell_length_a                    16.049202
_cell_length_b                    16.046988
_cell_length_c                    19.530571
_cell_angle_alpha                 95.3874
_cell_angle_beta                  90.751867
_cell_angle_gamma                 84.085202
_cell_volume                      4981.02058132

loop_
_atom_site_label
_atom_site_type_symbol
_atom_type_description
_atom_site_fract_x
_atom_site_fract_y
_atom_site_fract_z
_atom_type_partial_charge
C1    C     C_R   0.275801 0.510900 0.490919 0.508737
C2    C     C_2   0.523359 0.541930 0.981443 -0.081540
C3    C     C_2   0.488260 0.485789 0.016396 0.267226
C4    C     C_R   0.724103 0.489162 0.509046 0.504516
C5    C     C_R   0.509574 0.488421 0.236112 0.080055
C6    C     C_1   0.186272 0.514989 0.487499 0.045790
C7    C     C_2   0.020976 0.521237 0.482208 -0.045839
C8    C     C_2   0.979367 0.475009 0.521131 0.250803
C9    C     C_1   0.888899 0.480433 0.516492 -0.059565
C10   C     C_1   0.111010 0.518086 0.484889 0.031563
C11   C     C_1   0.813630 0.484654 0.512884 0.001513
C12   C     C_R   0.511969 0.544241 0.906868 0.017550
C13   C     C_1   0.516446 0.184914 0.486725 0.007575
C14   C     C_2   0.524218 0.017635 0.478444 0.306040
C15   C     C_2   0.476183 0.982350 0.521619 0.302870
C16   C     C_R   0.511719 0.274878 0.490828 0.505940
C17   C     C_1   0.480258 0.890723 0.517096 -0.001962
C18   C     C_1   0.520134 0.109261 0.483000 -0.001424
C19   C     C_1   0.483809 0.815075 0.513366 0.011553
C20   C     C_R   0.488205 0.725116 0.509130 0.510275
C21   C     C_R   0.509721 0.489959 0.311383 0.557783
C22   C     C_R   0.489935 0.509812 0.688547 0.498627
C23   C     C_R   0.431070 0.555460 0.876759 0.305596
C24   C     C_R   0.493977 0.520473 0.763763 -0.055116
C25   C     C_R   0.573675 0.514403 0.794108 -0.171189
C26   C     C_R   0.583352 0.526283 0.865413 0.193703
C27   C     C_3   0.378130 0.990655 0.610658 -0.106027
C28   C     C_3   0.621229 0.009401 0.388648 -0.112896
C29   C     C_3   0.560826 0.291372 0.225756 -0.109369
C30   C     C_3   0.491343 0.359386 0.951182 -0.090701
C31   C     C_R   0.421844 0.540884 0.805403 0.280595
C32   C     C_R   0.512673 0.561238 0.132961 -0.152127
C33   C     C_R   0.519484 0.562280 0.204700 0.205523
C34   C     C_R   0.494745 0.414033 0.195355 0.218813
C35   C     C_R   0.487028 0.414645 0.124208 -0.083574
C36   C     C_R   0.497218 0.487405 0.092193 -0.027481
H1    H     H_    0.628856 0.500410 0.761990 0.140891
H2    H     H_    0.664916 0.047802 0.419258 0.120275
H3    H     H_    0.578542 0.049204 0.356783 0.118937
H4    H     H_    0.659584 0.963335 0.353020 0.158549
H5    H     H_    0.537653 0.681119 0.215037 0.327780
H6    H     H_    0.608572 0.324830 0.256146 0.102433
H7    H     H_    0.583838 0.271475 0.172597 0.108741
H8    H     H_    0.552171 0.233619 0.250798 0.147746
H9    H     H_    0.453078 0.306141 0.938996 0.150930
H10   H     H_    0.543723 0.337196 0.985152 0.099549
H11   H     H_    0.516753 0.375026 0.901945 0.139754
H12   H     H_    0.473224 0.357425 0.094323 0.163524
H13   H     H_    0.374629 0.601467 0.961955 0.325036
H14   H     H_    0.341212 0.513057 0.733602 0.332476
H15   H     H_    0.704862 0.504050 0.859667 0.333103
H16   H     H_    0.987327 0.562242 0.447636 0.083928
H17   H     H_    0.516530 0.619281 0.109737 0.098352
H18   H     H_    0.567693 0.581760 0.006300 0.126010
H19   H     H_    0.981405 0.394401 0.589061 0.334530
H20   H     H_    0.420051 0.950427 0.642752 0.126729
H21   H     H_    0.334620 0.952702 0.579410 0.129927
H22   H     H_    0.339514 0.036746 0.646080 0.160270
O1    O     O_3   0.500000 0.500000 0.500000 -0.458535
O2    O     O_R   0.462330 0.445560 0.340470 -0.505101
O3    O     O_R   0.440930 0.559110 0.655640 -0.526454
O4    O     O_R   0.554010 0.538050 0.348260 -0.494622
O5    O     O_R   0.542730 0.457290 0.655630 -0.538635
O6    O     O_3   0.022733 0.423038 0.564952 -0.665996
O7    O     O_3   0.424930 0.035204 0.568494 -0.585106
O8    O     O_3   0.575486 0.964801 0.431569 -0.577984
O9    O     O_3   0.532104 0.635456 0.245029 -0.663106
O10   O     O_3   0.483237 0.341241 0.225103 -0.533528
O11   O     O_3   0.439082 0.428271 0.982638 -0.529630
O12   O     O_R   0.555880 0.314540 0.535300 -0.534021
O13   O     O_3   0.359282 0.578301 0.915276 -0.593290
O14   O     O_3   0.341366 0.546025 0.779000 -0.609084
O15   O     O_3   0.661594 0.517388 0.895934 -0.691952
O16   O     O_R   0.439840 0.689760 0.546310 -0.541904
O17   O     O_R   0.320170 0.458170 0.449830 -0.527887
O18   O     O_R   0.684110 0.537530 0.468570 -0.535354
O19   O     O_R   0.310830 0.559620 0.535340 -0.531612
O20   O     O_R   0.684890 0.444680 0.546270 -0.538840
O21   O     O_R   0.463420 0.314900 0.449800 -0.527243
O22   O     O_R   0.540870 0.680800 0.468590 -0.510496
Zn1   Zn    Zn3+2 0.569660 0.430340 0.558290 0.945849
Zn2   Zn    Zn3+2 0.437560 0.430860 0.436130 0.982330
Zn3   Zn    Zn3+2 0.568560 0.563000 0.447270 0.983824
Zn4   Zn    Zn3+2 0.424220 0.575810 0.558310 0.965072

loop_
_geom_bond_atom_site_label_1
_geom_bond_atom_site_label_2
_ccdc_geom_bond_type
C7    C10   S    
O4    Zn3   S    
C29   H6    S    
C1    O19   A    
C14   C18   S    
C30   H9    S    
C35   C36   A    
O1    Zn2   S    
C2    C12   S    
C7    C8    D    
H5    O9    S    
C12   C23   A    
C13   C18   T    
O5    Zn1   S    
C32   C36   A    
C3    O11   S    
O1    Zn3   S    
C7    H16   S    
C28   H4    S    
C15   O7    S    
C26   O15   S    
C34   C35   A    
O12   Zn1   S    
H14   O14   S    
C25   H1    S    
C22   O5    A    
O2    Zn2   S    
C19   C20   S    
C8    C9    S    
C5    C33   A    
C5    C34   A    
O22   Zn3   S    
C35   H12   S    
O18   Zn3   S    
C20   O22   A    
C1    C6    S    
C1    O17   A    
O1    Zn1   S    
C30   H11   S    
C16   O12   A    
C24   C25   A    
C21   O2    A    
C27   H21   S    
C34   O10   S    
C27   H20   S    
C28   H3    S    
C25   C26   A    
O3    Zn4   S    
C12   C26   A    
C23   C31   A    
C28   O8    S    
C4    O20   A    
C27   O7    S    
C23   O13   S    
C29   O10   S    
C28   H2    S    
H19   O6    S    
C14   O8    S    
C20   O16   A    
O1    Zn4   S    
C4    C11   S    
C9    C11   T    
C21   O4    A    
C8    O6    S    
C31   O14   S    
C29   H8    S    
C2    H18   S    
C22   C24   S    
C32   H17   S    
C30   O11   S    
C33   O9    S    
C15   C17   S    
C30   H10   S    
H15   O15   S    
O16   Zn4   S    
C27   H22   S    
C6    C10   T    
O21   Zn2   S    
O17   Zn2   S    
O19   Zn4   S    
C16   O21   A    
C32   C33   A    
C2    C3    D    
C24   C31   A    
C22   O3    A    
O20   Zn1   S    
C3    C36   S    
C17   C19   T    
C4    O18   A    
C5    C21   S    
H13   O13   S    
C13   C16   S    
C14   C15   D    
C29   H7    S    
