data_mof_unit_43961.cif
_audit_creation_date              2012-12-10T17:25:35-0500
_audit_creation_method            fapswitch 2.2
_symmetry_space_group_name_H-M    P1
_symmetry_Int_Tables_number       1
_space_group_crystal_system       triclinic
_cell_length_a                    10.197066
_cell_length_b                    10.776777
_cell_length_c                    23.477641
_cell_angle_alpha                 89.402294
_cell_angle_beta                  82.208811
_cell_angle_gamma                 96.342473
_cell_volume                      2539.68531845

loop_
_atom_site_label
_atom_site_type_symbol
_atom_type_description
_atom_site_fract_x
_atom_site_fract_y
_atom_site_fract_z
_atom_type_partial_charge
C1    C     C_R   0.558034 0.732539 0.496212 0.884030
C2    C     C_R   0.599707 0.451094 0.291827 -0.251887
C3    C     C_R   0.396235 0.549347 0.767211 0.006776
C4    C     C_R   0.600405 0.452043 0.232622 0.008216
C5    C     C_R   0.503187 0.508329 0.791212 0.279872
C6    C     C_R   0.497752 0.501923 0.208852 0.279185
C7    C     C_2   0.597302 0.865534 0.489576 -0.188786
C8    C     C_2   0.402921 0.134221 0.509757 -0.189143
C9    C     C_2   0.513792 0.942662 0.514984 0.158640
C10   C     C_2   0.487272 0.057704 0.484444 0.160794
C11   C     C_2   0.931606 0.482136 0.509645 0.282180
C12   C     C_R   0.441975 0.267415 0.503698 0.888132
C13   C     C_2   0.076361 0.521936 0.486866 0.308899
C14   C     C_R   0.501271 0.500626 0.610385 0.881161
C15   C     C_R   0.498917 0.500176 0.389649 0.879902
C16   C     C_R   0.450122 0.397588 0.123171 0.522285
C17   C     C_R   0.546486 0.614136 0.877114 0.522336
C18   C     C_R   0.548840 0.609054 0.117209 0.513419
C19   C     C_R   0.452471 0.401140 0.882744 0.513474
C20   C     C_R   0.543530 0.615963 0.057517 -0.090849
C21   C     C_R   0.454839 0.395012 0.942664 -0.091005
C22   C     C_R   0.499263 0.504944 0.030143 -0.060561
C23   C     C_R   0.611159 0.465773 0.755933 0.229221
C24   C     C_R   0.498033 0.506334 0.970099 -0.060527
C25   C     C_R   0.458454 0.392054 0.062852 -0.023852
C26   C     C_R   0.538052 0.619475 0.937461 -0.024158
C27   C     C_R   0.578122 0.729705 0.025037 -0.019841
C28   C     C_R   0.418405 0.281667 0.975346 -0.020107
C29   C     C_R   0.568132 0.733201 0.965762 0.121970
C30   C     C_R   0.427408 0.278405 0.034696 0.122635
C31   C     C_1   0.624098 0.844669 0.051678 0.286674
C32   C     C_1   0.370143 0.167087 0.949010 0.288420
C33   C     C_3   0.147311 0.673791 0.548044 -0.612774
C34   C     C_R   0.394322 0.550958 0.244405 0.230139
C35   C     C_3   0.878935 0.385643 0.423327 -0.633105
C36   C     C_3   0.581989 0.859094 0.933927 -0.747976
C37   C     C_3   0.411971 0.152658 0.066754 -0.749978
C38   C     C_3   0.726885 0.422922 0.781351 -0.853260
C39   C     C_3   0.282794 0.602915 0.219358 -0.857195
C40   C     C_1   0.285045 0.593067 0.803058 0.199132
C41   C     C_1   0.707136 0.401964 0.196522 0.198602
C42   C     C_3   0.552563 0.091020 0.423109 -0.851498
C43   C     C_3   0.450399 0.910639 0.576705 -0.852908
C44   C     C_1   0.278767 0.090845 0.545648 0.168002
C45   C     C_R   0.609822 0.463346 0.696641 -0.213610
C46   C     C_1   0.721084 0.907784 0.453173 0.173459
C47   C     C_3   0.115285 0.572802 0.426061 -0.884862
C48   C     C_3   0.887034 0.478579 0.573450 -0.867715
C49   C     C_R   0.395869 0.550669 0.303690 -0.216849
C50   C     C_R   0.503108 0.503716 0.672489 -0.097447
C51   C     C_R   0.497557 0.500293 0.327583 -0.093503
C52   C     C_R   0.396704 0.547112 0.708052 -0.247660
H1    H     H_    0.691099 0.428306 0.669653 0.164206
H2    H     H_    0.968811 0.336349 0.424405 0.189620
H3    H     H_    0.572352 0.939509 0.962602 0.199953
H4    H     H_    0.680654 0.875762 0.906888 0.273751
H5    H     H_    0.500341 0.862028 0.907256 0.269252
H6    H     H_    0.421438 0.072010 0.038203 0.200114
H7    H     H_    0.492966 0.149236 0.093740 0.269042
H8    H     H_    0.312906 0.136829 0.093519 0.273689
H9    H     H_    0.773464 0.499878 0.805566 0.255035
H10   H     H_    0.691843 0.341517 0.810982 0.255886
H11   H     H_    0.804378 0.394619 0.747594 0.235286
H12   H     H_    0.319030 0.591640 0.330950 0.162193
H13   H     H_    0.323139 0.684267 0.190423 0.258508
H14   H     H_    0.231526 0.530007 0.194501 0.252558
H15   H     H_    0.207783 0.634227 0.253386 0.235100
H16   H     H_    0.541693 0.008260 0.395660 0.239704
H17   H     H_    0.504791 0.165010 0.402991 0.223837
H18   H     H_    0.659097 0.125366 0.422497 0.248464
H19   H     H_    0.461572 0.994216 0.603631 0.242741
H20   H     H_    0.343857 0.875521 0.578189 0.246840
H21   H     H_    0.499458 0.837616 0.596849 0.225344
H22   H     H_    0.033555 0.620257 0.411946 0.226674
H23   H     H_    0.313864 0.579379 0.689877 0.171696
H24   H     H_    0.202588 0.644958 0.423173 0.257897
H25   H     H_    0.139837 0.496350 0.396672 0.236497
H26   H     H_    0.970756 0.474029 0.598725 0.222290
H27   H     H_    0.837500 0.562640 0.586034 0.250712
H28   H     H_    0.819416 0.391526 0.585021 0.250411
H29   H     H_    0.678785 0.411667 0.309937 0.169428
H30   H     H_    0.191899 0.748237 0.515913 0.221742
H31   H     H_    0.043111 0.691094 0.562825 0.187818
H32   H     H_    0.202131 0.681144 0.585758 0.221115
H33   H     H_    0.796482 0.313437 0.417276 0.227601
H34   H     H_    0.891435 0.452217 0.386133 0.208473
N1    N     N_R   0.498807 0.502949 0.147984 -0.347992
N2    N     N_1   0.820409 0.940518 0.424284 -0.192948
N3    N     N_R   0.500869 0.507854 0.852138 -0.348096
N4    N     N_2   0.842710 0.448880 0.476480 -0.057345
N5    N     N_2   0.157290 0.551120 0.523520 -0.073809
N6    N     N_1   0.660918 0.936518 0.072621 -0.168073
N7    N     N_1   0.331468 0.075540 0.928326 -0.167658
N8    N     N_1   0.195971 0.628096 0.831855 -0.178675
N9    N     N_1   0.792626 0.361827 0.167521 -0.177430
N10   N     N_1   0.179157 0.057093 0.574120 -0.191079
O1    O     O_R   0.431060 0.692470 0.504730 -0.602646
O2    O     O_2   0.602562 0.712294 0.842807 -0.563218
O3    O     O_2   0.601903 0.706878 0.145175 -0.550505
O4    O     O_2   0.404260 0.301811 0.854331 -0.549777
O5    O     O_R   0.568940 0.307530 0.495270 -0.591829
O6    O     O_R   0.651120 0.659650 0.489640 -0.599127
O7    O     O_R   0.348880 0.340350 0.510360 -0.597920
O8    O     O_R   0.389950 0.516450 0.591390 -0.610070
O9    O     O_R   0.610050 0.483550 0.408610 -0.611523
O10   O     O_R   0.610020 0.483630 0.576300 -0.623170
O11   O     O_R   0.389980 0.516370 0.423700 -0.618176
O12   O     O_2   0.391398 0.300513 0.157587 -0.563039
Zn1   Zn    Zn3+2 0.353060 0.521920 0.510080 0.950087
Zn2   Zn    Zn3+2 0.646940 0.478080 0.489920 0.954039

loop_
_geom_bond_atom_site_label_1
_geom_bond_atom_site_label_2
_ccdc_geom_bond_type
C43   H21   S    
O9    Zn2   S    
C43   H20   S    
C23   C45   A    
C27   C29   A    
O11   Zn1   S    
C52   H23   S    
C41   N9    T    
C29   C36   S    
C44   N10   T    
C17   C26   A    
C48   H27   S    
C19   C21   A    
C24   C26   A    
C47   H24   S    
C33   N5    S    
O10   Zn2   S    
O8    Zn1   S    
C35   H34   S    
C11   C13   S    
C10   C42   S    
C4    C41   S    
C15   O11   A    
C42   H18   S    
C48   H26   S    
C49   C51   A    
C22   C25   A    
C16   N1    A    
C50   C52   A    
C15   C51   S    
C17   O2    S    
C37   H6    S    
C38   H9    S    
C32   N7    T    
C45   H1    S    
C49   H12   S    
C13   N5    D    
C35   H2    S    
C42   H16   S    
C39   H13   S    
C11   C48   S    
C9    C10   S    
C46   N2    T    
C9    C43   S    
C27   C31   S    
C34   C39   S    
C7    C46   S    
C28   C32   S    
C17   N3    A    
C12   O7    A    
C4    C6    A    
C36   H5    S    
C1    O1    A    
C13   C47   S    
C25   C30   A    
O5    Zn2   S    
C42   H17   S    
C6    N1    S    
C6    C34   A    
C30   C37   S    
C2    C4    A    
C19   N3    A    
O1    Zn1   S    
C14   O8    A    
C5    C23   A    
C8    C12   S    
C33   H31   S    
C37   H7    S    
C21   C28   A    
C20   C22   A    
C3    C40   S    
C39   H14   S    
C22   C24   A    
O6    Zn2   S    
C18   O3    S    
C47   H25   S    
C38   H11   S    
C33   H30   S    
C16   C25   A    
C7    C9    D    
C34   C49   A    
C43   H19   S    
C1    C7    S    
C39   H15   S    
C8    C44   S    
C47   H22   S    
C40   N8    T    
C3    C5    A    
C19   O4    S    
C20   C27   A    
C23   C38   S    
C18   N1    A    
O7    Zn1   S    
C15   O9    A    
C28   C30   A    
C12   O5    A    
C36   H3    S    
C48   H28   S    
C3    C52   A    
C35   H33   S    
C11   N4    D    
N5    Zn1   S    
C14   C50   S    
C45   C50   A    
C36   H4    S    
C18   C20   A    
C33   H32   S    
C37   H8    S    
C2    C51   A    
C16   O12   S    
C35   N4    S    
C14   O10   A    
C26   C29   A    
C8    C10   D    
C31   N6    T    
C21   C24   A    
N4    Zn2   S    
C2    H29   S    
C1    O6    A    
C5    N3    S    
C38   H10   S    
