data_mof_unit_45484.cif
_audit_creation_date              2012-12-11T17:24:04-0500
_audit_creation_method            fapswitch 2.2
_symmetry_space_group_name_H-M    P1
_symmetry_Int_Tables_number       1
_space_group_crystal_system       triclinic
_cell_length_a                    22.897163
_cell_length_b                    7.212077
_cell_length_c                    20.813774
_cell_angle_alpha                 89.898812
_cell_angle_beta                  93.575861
_cell_angle_gamma                 90.007171
_cell_volume                      3430.40844746

loop_
_atom_site_label
_atom_site_type_symbol
_atom_type_description
_atom_site_fract_x
_atom_site_fract_y
_atom_site_fract_z
_atom_type_partial_charge
O1    O     O_R   0.307200 0.614510 0.194080 -0.530560
O2    O     O_R   0.692800 0.385490 0.805920 -0.528291
O3    O     O_R   0.192800 0.114510 0.305920 -0.530571
O4    O     O_R   0.807200 0.885490 0.694080 -0.535391
O5    O     O_R   0.188140 0.283260 0.181690 -0.540855
O6    O     O_R   0.811860 0.716740 0.818310 -0.542251
O7    O     O_R   0.311860 0.783260 0.318310 -0.537225
O8    O     O_R   0.688140 0.216740 0.681690 -0.539602
C1    C     C_R   0.168415 0.453601 0.165744 0.693205
C2    C     C_R   0.832081 0.546575 0.833607 0.688568
C3    C     C_R   0.331301 0.953401 0.334612 0.691932
C4    C     C_R   0.668332 0.046624 0.665880 0.694925
O9    O     O_R   0.306460 0.284700 0.186400 -0.534372
O10   O     O_R   0.693540 0.715300 0.813600 -0.534401
O11   O     O_R   0.193540 0.784700 0.313600 -0.534779
O12   O     O_R   0.806460 0.215300 0.686400 -0.535694
O13   O     O_R   0.311970 0.115840 0.310660 -0.537293
O14   O     O_R   0.688030 0.884160 0.689340 -0.536035
O15   O     O_R   0.188030 0.615840 0.189340 -0.537129
O16   O     O_R   0.811970 0.384160 0.810660 -0.535453
C5    C     C_R   0.325046 0.453034 0.171359 0.711718
C6    C     C_R   0.674583 0.547044 0.828147 0.716467
C7    C     C_R   0.174916 0.952776 0.328611 0.707210
C8    C     C_R   0.825353 0.047167 0.671796 0.710145
O17   O     O_3   0.251670 0.448440 0.290760 -0.373839
O18   O     O_3   0.748330 0.551560 0.709240 -0.375365
O19   O     O_3   0.248330 0.948440 0.209240 -0.374204
O20   O     O_3   0.751670 0.051560 0.790760 -0.370654
V1    V     V_3+5 0.249690 0.173030 0.242440 1.415481
V2    V     V_3+5 0.750310 0.826970 0.757560 1.404418
V3    V     V_3+5 0.250310 0.673030 0.257560 1.419162
V4    V     V_3+5 0.749690 0.326970 0.742440 1.408985
C9    C     C_R   0.989849 0.162874 0.530796 -0.286284
C10   C     C_R   0.024100 0.817399 0.486843 -0.287833
C11   C     C_R   0.514721 0.675166 0.975598 -0.302623
C12   C     C_R   0.470580 0.327546 0.006327 -0.289414
H1    H     H_    0.975887 0.298069 0.545747 0.191479
H2    H     H_    0.036004 0.683528 0.468180 0.198819
H3    H     H_    0.532707 0.810223 0.965629 0.196495
H4    H     H_    0.455242 0.192267 0.019899 0.192330
C13   C     C_R   0.961569 0.003500 0.552233 -0.051293
C14   C     C_R   0.051340 0.977583 0.464645 -0.051842
C15   C     C_R   0.538119 0.516226 0.948046 -0.044672
C16   C     C_R   0.447782 0.486415 0.034618 -0.042064
C17   C     C_R   0.981719 0.826300 0.533160 0.458146
C18   C     C_R   0.036245 0.151075 0.489900 0.453407
C19   C     C_R   0.512765 0.341779 0.960025 0.431265
C20   C     C_R   0.467139 0.662627 0.015088 0.460426
C21   C     C_1   0.912300 0.026157 0.592674 -0.001704
C22   C     C_1   0.094400 0.964736 0.415925 0.015042
C23   C     C_1   0.587553 0.532237 0.907411 0.009564
C24   C     C_1   0.405093 0.468899 0.083581 0.010060
C25   C     C_1   0.130878 0.959221 0.375898 -0.184791
C26   C     C_1   0.872041 0.039251 0.627850 -0.203018
C27   C     C_1   0.368880 0.460672 0.123858 -0.187017
C28   C     C_1   0.627818 0.539922 0.872074 -0.187647
C29   C     C_R   0.419780 0.817049 0.395033 -0.142679
C30   C     C_R   0.578668 0.181951 0.607296 -0.156642
C31   C     C_R   0.082946 0.623847 0.112507 -0.170190
C32   C     C_R   0.918886 0.377517 0.884814 -0.158528
C33   C     C_R   0.380070 0.964427 0.385241 -0.115543
C34   C     C_R   0.618678 0.035048 0.616436 -0.118068
C35   C     C_R   0.118901 0.465605 0.116027 -0.115047
C36   C     C_R   0.882629 0.535316 0.881986 -0.102058
C37   C     C_R   0.387744 0.125021 0.423232 -0.189185
C38   C     C_R   0.610137 0.873259 0.579346 -0.195821
C39   C     C_R   0.107498 0.321043 0.071737 -0.190915
C40   C     C_R   0.894949 0.680954 0.925505 -0.206774
C41   C     C_R   0.434462 0.140462 0.470420 0.024789
C42   C     C_R   0.562902 0.857815 0.533053 0.017395
C43   C     C_R   0.061038 0.333182 0.023930 0.043599
C44   C     C_R   0.941520 0.667764 0.972846 0.007880
C45   C     C_R   0.474833 0.992596 0.478643 -0.028875
C46   C     C_R   0.522683 0.005898 0.524686 -0.026764
C47   C     C_R   0.024737 0.492476 0.021850 -0.022420
C48   C     C_R   0.977588 0.507970 0.975087 -0.021016
C49   C     C_R   0.467370 0.830982 0.440780 0.073284
C50   C     C_R   0.530344 0.167260 0.562379 0.089424
C51   C     C_R   0.035900 0.637555 0.066315 0.062423
C52   C     C_R   0.966512 0.363826 0.930482 0.089302
C53   C     C_R   0.441044 0.300370 0.509470 0.389881
C54   C     C_R   0.555354 0.697354 0.494834 0.362377
C55   C     C_R   0.050944 0.189730 0.978242 0.404814
C56   C     C_R   0.952400 0.810539 0.018276 0.397643
C57   C     C_R   0.489815 0.312410 0.554619 -0.233736
C58   C     C_R   0.507478 0.684878 0.449380 -0.234630
C59   C     C_R   0.002849 0.207072 0.932077 -0.241333
C60   C     C_R   0.000250 0.795713 0.063694 -0.227816
H5    H     H_    0.414417 0.692764 0.366030 0.132864
H6    H     H_    0.584442 0.306435 0.636123 0.130559
H7    H     H_    0.091076 0.736305 0.146392 0.130966
H8    H     H_    0.910439 0.265403 0.850863 0.122398
H9    H     H_    0.356627 0.237491 0.416262 0.171982
H10   H     H_    0.641070 0.760115 0.585946 0.168701
H11   H     H_    0.135673 0.200292 0.074116 0.172466
H12   H     H_    0.867306 0.802896 0.923280 0.166855
H13   H     H_    0.497748 0.436044 0.583000 0.134058
H14   H     H_    0.501014 0.558651 0.421673 0.141879
H15   H     H_    0.992435 0.098433 0.897505 0.108556
H16   H     H_    0.009922 0.909795 0.096498 0.133566
O21   O     O_3   0.062338 0.313219 0.470276 -0.567520
C61   C     C_3   0.120229 0.326812 0.498382 0.081404
H17   H     H_    0.146265 0.408328 0.464976 0.147085
H18   H     H_    0.142811 0.190584 0.505163 0.104787
C62   C     C_3   0.120883 0.428561 0.562838 -0.333342
H19   H     H_    0.101759 0.568677 0.555194 0.202706
H20   H     H_    0.094224 0.350477 0.596569 0.190986
C63   C     C_3   0.183015 0.448970 0.592909 -0.848212
H21   H     H_    0.202966 0.310419 0.602343 0.234286
H22   H     H_    0.181985 0.524438 0.639281 0.235743
H23   H     H_    0.210381 0.528712 0.560346 0.234215
O22   O     O_3   0.957988 0.658134 0.551978 -0.572845
C64   C     C_3   0.953712 0.635500 0.619529 0.084063
H24   H     H_    0.946728 0.485436 0.628139 0.135724
H25   H     H_    0.913516 0.700288 0.635752 0.141246
C65   C     C_3   0.008306 0.693382 0.661974 -0.370639
H26   H     H_    0.047192 0.618748 0.646345 0.196530
H27   H     H_    0.016340 0.844576 0.658093 0.189741
C66   C     C_3   0.000677 0.648012 0.732689 -0.824113
H28   H     H_    0.961992 0.721842 0.749793 0.228006
H29   H     H_    0.040093 0.693000 0.762341 0.232106
H30   H     H_    0.994889 0.496357 0.739278 0.228224
O23   O     O_3   0.443318 0.825163 0.037418 -0.567736
C67   C     C_3   0.385623 0.851550 0.009671 0.072759
H31   H     H_    0.365995 0.968079 0.035735 0.148226
H32   H     H_    0.356804 0.730071 0.016217 0.116828
C68   C     C_3   0.384889 0.902060 0.937916 -0.351084
H33   H     H_    0.414004 0.022001 0.931483 0.212058
H34   H     H_    0.400998 0.783379 0.910018 0.184929
C69   C     C_3   0.323283 0.951558 0.911183 -0.836412
H35   H     H_    0.293316 0.831973 0.916228 0.231859
H36   H     H_    0.324244 0.987247 0.859340 0.233427
H37   H     H_    0.306428 0.072925 0.937119 0.230365
O24   O     O_3   0.531506 0.181794 0.930725 -0.566990
C70   C     C_3   0.510247 0.180787 0.865254 0.064362
H38   H     H_    0.531791 0.290030 0.837507 0.131302
H39   H     H_    0.462083 0.204595 0.860336 0.100525
C71   C     C_3   0.523663 0.993427 0.835132 -0.289054
H40   H     H_    0.570854 0.960396 0.844570 0.212322
H41   H     H_    0.497449 0.883527 0.857145 0.183532
C72   C     C_3   0.509162 0.994265 0.762520 -0.843248
H42   H     H_    0.461996 0.024727 0.751811 0.230115
H43   H     H_    0.519107 0.856194 0.742335 0.229442
H44   H     H_    0.535853 0.100140 0.738928 0.227522
O25   O     O_3   0.401735 0.446339 0.497699 -0.581808
C73   C     C_3   0.385781 0.539628 0.553860 0.089454
H45   H     H_    0.355106 0.652067 0.537631 0.147619
H46   H     H_    0.423261 0.612315 0.578978 0.111896
C74   C     C_3   0.353606 0.412347 0.599334 -0.348539
H47   H     H_    0.315496 0.347619 0.572327 0.200579
H48   H     H_    0.383136 0.300111 0.618280 0.187187
C75   C     C_3   0.332324 0.520776 0.656264 -0.835061
H49   H     H_    0.370088 0.582000 0.684896 0.230618
H50   H     H_    0.308595 0.426176 0.687755 0.235739
H51   H     H_    0.302111 0.633417 0.639158 0.232608
O26   O     O_3   0.590786 0.544521 0.507396 -0.576259
C76   C     C_3   0.628029 0.519568 0.456675 0.066600
H52   H     H_    0.655696 0.645122 0.451053 0.118726
H53   H     H_    0.602365 0.490767 0.410550 0.119795
C77   C     C_3   0.667787 0.353515 0.472763 -0.275747
H54   H     H_    0.692935 0.378300 0.519398 0.200356
H55   H     H_    0.640543 0.227291 0.477776 0.205390
C78   C     C_3   0.710461 0.320489 0.420536 -0.837847
H56   H     H_    0.686200 0.291993 0.373706 0.232197
H57   H     H_    0.738497 0.198971 0.433753 0.235304
H58   H     H_    0.738967 0.443658 0.415521 0.237881
O27   O     O_3   0.087743 0.034715 0.983532 -0.580715
C79   C     C_3   0.085946 0.920347 0.928449 0.075510
H59   H     H_    0.092039 0.003482 0.884179 0.111533
H60   H     H_    0.043809 0.843588 0.923981 0.136980
C80   C     C_3   0.135494 0.778520 0.936284 -0.280157
H61   H     H_    0.178279 0.851494 0.936742 0.189907
H62   H     H_    0.133051 0.704534 0.982891 0.214107
C81   C     C_3   0.131951 0.636519 0.881924 -0.856206
H63   H     H_    0.089815 0.559854 0.881380 0.236111
H64   H     H_    0.168320 0.535396 0.889322 0.234392
H65   H     H_    0.135769 0.706582 0.834812 0.230289
O28   O     O_3   0.919936 0.972802 0.013790 -0.575013
C82   C     C_3   0.885504 0.991583 0.067571 0.074526
H66   H     H_    0.877923 0.142129 0.074666 0.151100
H67   H     H_    0.907380 0.939366 0.113439 0.104635
C83   C     C_3   0.826147 0.896169 0.054595 -0.329785
H68   H     H_    0.804390 0.951964 0.009387 0.203910
H69   H     H_    0.832781 0.744688 0.048620 0.189932
C84   C     C_3   0.786427 0.927504 0.109750 -0.807693
H70   H     H_    0.806912 0.870063 0.155310 0.230041
H71   H     H_    0.743922 0.856520 0.098918 0.237780
H72   H     H_    0.778102 0.077979 0.115904 0.232191

loop_
_geom_bond_atom_site_label_1
_geom_bond_atom_site_label_2
_ccdc_geom_bond_type
O17   V3    S    
C70   C71   S    
C55   C59   A    
C80   H61   S    
O1    C5    A    
C76   H52   S    
O19   V1    S    
O13   V1    S    
C45   C46   A    
O3    C7    A    
C78   H56   S    
C10   C14   A    
C44   C48   A    
O15   V3    S    
C20   O23   S    
O25   C73   S    
C17   O22   S    
O4    V2    S    
C70   H38   S    
C63   H21   S    
O7    C3    A    
C80   H62   S    
O21   C61   S    
C29   H5    S    
C61   C62   S    
C36   C40   A    
O9    V1    S    
O26   C76   S    
C78   H57   S    
C73   H45   S    
C52   C59   A    
C74   H48   S    
O4    C8    A    
C79   H60   S    
C84   H71   S    
C8    C26   S    
C21   C26   T    
O1    V3    S    
C65   H26   S    
C12   C19   A    
O2    V4    S    
C23   C28   T    
C14   C18   A    
O3    V1    S    
C83   H68   S    
C51   C60   A    
C81   H63   S    
C1    O15   A    
C79   C80   S    
C3    O13   A    
C2    O16   A    
O2    C6    A    
C41   C45   A    
C69   H36   S    
O14   V2    S    
C11   C15   A    
O5    V1    S    
C24   C27   T    
C40   C44   A    
C38   H10   S    
C82   C83   S    
C54   O26   S    
C16   C24   S    
O11   C7    A    
O12   C8    A    
C10   H2    S    
C39   H11   S    
C9    C18   A    
O10   V2    S    
C42   C54   A    
C11   C20   A    
C13   C21   S    
O22   C64   S    
C18   O21   S    
O28   C82   S    
C73   H46   S    
C32   H8    S    
C80   C81   S    
C35   C39   A    
C22   C25   T    
O7    V3    S    
C34   C38   A    
O8    V4    S    
C77   C78   S    
C29   C49   A    
O23   C67   S    
C78   H58   S    
C57   H13   S    
C74   C75   S    
C31   C51   A    
O27   C79   S    
C5    C27   S    
O18   V4    S    
C84   H72   S    
C31   H7    S    
C54   C58   A    
C55   O27   S    
O11   V3    S    
C9    H1    S    
C83   C84   S    
C77   H55   S    
C11   H3    S    
C47   C48   A    
C68   H34   S    
O5    C1    A    
C62   H20   S    
C73   C74   S    
C4    C34   S    
C75   H51   S    
C12   H4    S    
O8    C4    A    
O9    C5    A    
C10   C17   A    
C40   H12   S    
C62   C63   S    
C61   H18   S    
C30   H6    S    
C81   H65   S    
C44   C56   A    
C66   H29   S    
C71   H41   S    
C30   C34   A    
C14   C22   S    
C67   C68   S    
C50   C57   A    
C79   H59   S    
O6    V2    S    
C75   H50   S    
C49   C58   A    
C76   C77   S    
C53   O25   S    
C19   O24   S    
C56   O28   S    
C12   C16   A    
C69   H37   S    
C68   H33   S    
C60   H16   S    
C67   H32   S    
C64   H24   S    
O16   V4    S    
C66   H30   S    
C70   H39   S    
C32   C52   A    
C45   C49   A    
C1    C35   S    
C2    C36   S    
C48   C52   A    
C63   H22   S    
C3    C33   S    
C71   C72   S    
O6    C2    A    
C6    C28   S    
C66   H28   S    
C65   C66   S    
C29   C33   A    
O24   C70   S    
C72   H44   S    
O12   V4    S    
C62   H19   S    
C31   C35   A    
C63   H23   S    
C32   C36   A    
C9    C13   A    
C77   H54   S    
C64   C65   S    
C72   H43   S    
C69   H35   S    
C68   C69   S    
O20   V2    S    
C74   H47   S    
C43   C47   A    
O10   C6    A    
C84   H70   S    
C38   C42   A    
C56   C60   A    
C15   C19   A    
C15   C23   S    
C37   C41   A    
C7    C25   S    
C37   H9    S    
C81   H64   S    
C65   H27   S    
C39   C43   A    
C61   H17   S    
C58   H14   S    
C42   C46   A    
C83   H69   S    
C41   C53   A    
C71   H40   S    
C30   C50   A    
C82   H66   S    
C59   H15   S    
C33   C37   A    
C75   H49   S    
C76   H53   S    
C46   C50   A    
C4    O14   A    
C13   C17   A    
C43   C55   A    
C64   H25   S    
C72   H42   S    
C47   C51   A    
C53   C57   A    
C16   C20   A    
C67   H31   S    
C82   H67   S    
