data_mof_unit_32657.cif
_audit_creation_date              2012-10-26T20:17:41-0400
_audit_creation_method            fapswitch 2.2
_symmetry_space_group_name_H-M    P1
_symmetry_Int_Tables_number       1
_space_group_crystal_system       triclinic
_cell_length_a                    27.846766
_cell_length_b                    8.718391
_cell_length_c                    7.415571
_cell_angle_alpha                 103.257687
_cell_angle_beta                  93.443316
_cell_angle_gamma                 92.175913
_cell_volume                      1746.71728726

loop_
_atom_site_label
_atom_site_type_symbol
_atom_type_description
_atom_site_fract_x
_atom_site_fract_y
_atom_site_fract_z
_atom_type_partial_charge
C1    C     C_R   0.498569 0.199897 0.453327 0.573752
C2    C     C_R   0.870467 0.362979 0.386024 -0.021354
C3    C     C_R   0.354345 0.504474 0.514016 0.023302
C4    C     C_R   0.645657 0.495549 0.485996 0.023434
C5    C     C_R   0.972250 0.362741 0.402197 -0.002133
C6    C     C_R   0.027752 0.637275 0.597843 -0.002143
C7    C     C_R   0.976849 0.642875 0.570393 0.040720
C8    C     C_R   0.023151 0.357132 0.429673 0.040734
C9    C     C_R   0.949285 0.502018 0.484256 -0.097776
C10   C     C_R   0.050716 0.497991 0.515797 -0.097775
C11   C     C_R   0.943377 0.238503 0.283094 0.461094
C12   C     C_R   0.501431 0.800103 0.546673 0.573739
C13   C     C_R   0.056628 0.761529 0.716908 0.461089
C14   C     C_R   0.893487 0.234051 0.284744 0.462395
C15   C     C_R   0.106517 0.765990 0.715214 0.462433
C16   C     C_R   0.407389 0.501398 0.504154 0.586029
C17   C     C_R   0.592612 0.498612 0.495848 0.586056
C18   C     C_R   0.047302 0.213406 0.388640 0.334602
C19   C     C_R   0.952694 0.786594 0.611462 0.334592
C20   C     C_2   0.497906 0.032673 0.426741 0.347384
C21   C     C_2   0.502093 0.967326 0.573259 0.347387
C22   C     C_R   0.175841 0.366289 0.454396 0.463544
C23   C     C_R   0.101793 0.498353 0.526401 -0.175030
C24   C     C_R   0.824161 0.633680 0.545755 0.463517
C25   C     C_R   0.179850 0.639306 0.606819 0.507059
C26   C     C_R   0.820151 0.360719 0.393134 0.507073
C27   C     C_R   0.282513 0.539135 0.692168 0.293253
C28   C     C_R   0.717496 0.461076 0.307896 0.293011
C29   C     C_R   0.333455 0.545386 0.687388 0.179697
C30   C     C_R   0.666553 0.454843 0.312637 0.179713
C31   C     C_R   0.324121 0.469138 0.348786 0.316102
C32   C     C_R   0.675876 0.530724 0.651227 0.316071
C33   C     C_R   0.274473 0.474993 0.355230 -0.069826
C34   C     C_R   0.898208 0.501651 0.473651 -0.175024
C35   C     C_R   0.725525 0.524848 0.644794 -0.069733
C36   C     C_R   0.253487 0.508965 0.525175 0.167982
C37   C     C_R   0.746516 0.491026 0.474869 0.168065
C38   C     C_R   0.125202 0.359875 0.451989 0.020721
C39   C     C_R   0.874798 0.640108 0.548131 0.020721
C40   C     C_R   0.097805 0.217223 0.387960 0.436974
C41   C     C_R   0.902193 0.782759 0.612193 0.436954
C42   C     C_R   0.129535 0.637044 0.613961 -0.021329
Cu1   Cu    Cu3+1 0.505380 0.517380 0.684380 1.170135
Cu2   Cu    Cu3+1 0.494620 0.482620 0.315620 1.170148
F1    F     F_    0.342320 0.427916 0.179645 -0.590636
F2    F     F_    0.507039 0.054658 0.751850 -0.595491
F3    F     F_    0.657672 0.571827 0.820360 -0.590952
F4    F     F_    0.119951 0.079565 0.332660 -0.528201
F5    F     F_    0.880045 0.920403 0.667557 -0.528159
F6    F     F_    0.867874 0.107375 0.175383 -0.477942
F7    F     F_    0.132133 0.892686 0.824528 -0.477958
F8    F     F_    0.962341 0.130395 0.147612 -0.493573
F9    F     F_    0.037670 0.869642 0.852402 -0.493570
F10   F     F_    0.492960 0.945342 0.248150 -0.595502
H1    H     H_    0.462214 0.379526 0.948475 0.282762
H2    H     H_    0.956596 0.017449 0.649325 0.401326
H3    H     H_    0.537786 0.620474 0.051525 0.282779
H4    H     H_    0.251838 0.449099 0.226899 0.190905
H5    H     H_    0.748159 0.550623 0.773115 0.190762
H6    H     H_    0.653945 0.332156 0.058810 0.366938
H7    H     H_    0.346118 0.668802 0.940858 0.366565
H8    H     H_    0.718145 0.472792 0.049794 0.367313
H9    H     H_    0.281929 0.528400 0.950704 0.367345
H10   H     H_    0.043390 0.982548 0.350743 0.401327
N1    N     N_R   0.201863 0.505216 0.527597 -0.396337
N2    N     N_R   0.798139 0.494777 0.472456 -0.396323
N3    N     N_2   0.486510 0.456430 0.038510 -0.204553
N4    N     N_2   0.513490 0.543570 0.961490 -0.204547
O1    O     O_R   0.503500 0.286120 0.619780 -0.499072
O2    O     O_2   0.800882 0.765029 0.614841 -0.337345
O3    O     O_2   0.793341 0.225544 0.323340 -0.320066
O4    O     O_2   0.206657 0.774513 0.676480 -0.320106
O5    O     O_3   0.636865 0.406737 0.151720 -0.617631
O6    O     O_3   0.363146 0.593722 0.848284 -0.617703
O7    O     O_3   0.740119 0.442789 0.144180 -0.629048
O8    O     O_3   0.259896 0.557616 0.855938 -0.628915
O9    O     O_3   0.021566 0.071048 0.369261 -0.568620
O10   O     O_3   0.978425 0.928961 0.630828 -0.568590
O11   O     O_R   0.496500 0.713880 0.380220 -0.499079
O12   O     O_R   0.494410 0.256780 0.308360 -0.450062
O13   O     O_R   0.505590 0.743220 0.691640 -0.450066
O14   O     O_R   0.434810 0.514700 0.655690 -0.475041
O15   O     O_R   0.565190 0.485300 0.344310 -0.475016
O16   O     O_R   0.425720 0.485350 0.344280 -0.443996
O17   O     O_R   0.574280 0.514650 0.655720 -0.443980
O18   O     O_2   0.199120 0.234905 0.385445 -0.337297

loop_
_geom_bond_atom_site_label_1
_geom_bond_atom_site_label_2
_ccdc_geom_bond_type
C33   H4    S    
C27   C29   A    
H10   O9    S    
Cu2   O15   S    
C24   C39   A    
C24   O2    S    
C39   C41   A    
C23   C42   A    
Cu1   O14   S    
C17   O17   A    
C35   C37   A    
C5    C11   A    
C11   C14   A    
H9    O8    S    
C22   C38   A    
C12   O11   A    
H6    O5    S    
C16   O16   A    
C33   C36   A    
H2    O10   S    
C35   H5    S    
C3    C29   A    
C40   F4    S    
C18   C40   A    
C11   F8    S    
Cu1   N4    S    
C31   C33   A    
C15   F7    S    
C24   N2    A    
C2    C34   A    
Cu1   O1    S    
C26   O3    S    
C41   F5    S    
C13   F9    S    
N3    N4    D    
C26   N2    A    
C32   C35   A    
Cu2   O12   S    
C25   N1    A    
C20   F10   S    
C30   O5    S    
C36   N1    S    
C29   O6    S    
C12   C21   S    
C1    O1    A    
C34   C39   A    
C17   O15   A    
Cu1   O17   S    
C19   O10   S    
Cu1   Cu2   S    
C22   N1    A    
C5    C9    A    
C37   N2    S    
C16   O14   A    
C2    C26   A    
C25   O4    S    
C3    C31   A    
C4    C32   A    
C4    C17   S    
C7    C19   A    
C13   C15   A    
C9    C34   A    
H7    O6    S    
C32   F3    S    
H8    O7    S    
H3    N4    S    
C27   O8    S    
C21   F2    S    
C7    C9    A    
C1    C20   S    
Cu2   O11   S    
C15   C42   A    
Cu2   O16   S    
C25   C42   A    
C6    C10   A    
C5    C8    A    
H1    N3    S    
C6    C7    A    
C10   C23   A    
C23   C38   A    
C27   C36   A    
C28   C30   A    
C6    C13   A    
C38   C40   A    
C14   F6    S    
C28   C37   A    
C18   O9    S    
Cu1   O13   S    
C12   O13   A    
C22   O18   S    
C2    C14   A    
C8    C18   A    
C20   C21   D    
C8    C10   A    
C31   F1    S    
C1    O12   A    
Cu2   N3    S    
C28   O7    S    
C4    C30   A    
C3    C16   S    
C19   C41   A    
