data_mof_unit_34896.cif
_audit_creation_date              2012-12-10T17:02:55-0500
_audit_creation_method            fapswitch 2.2
_symmetry_space_group_name_H-M    P1
_symmetry_Int_Tables_number       1
_space_group_crystal_system       triclinic
_cell_length_a                    9.836562
_cell_length_b                    11.014505
_cell_length_c                    13.483521
_cell_angle_alpha                 94.240217
_cell_angle_beta                  81.637105
_cell_angle_gamma                 110.990466
_cell_volume                      1349.04673153

loop_
_atom_site_label
_atom_site_type_symbol
_atom_type_description
_atom_site_fract_x
_atom_site_fract_y
_atom_site_fract_z
_atom_type_partial_charge
C1    C     C_R   0.557540 0.745483 0.503069 0.879676
C2    C     C_R   0.445979 0.444150 0.961503 0.097110
C3    C     C_R   0.468401 0.508001 0.869665 -0.048073
C4    C     C_R   0.547255 0.499552 0.033221 -0.016360
C5    C     C_R   0.679175 0.605894 0.004395 0.045576
C6    C     C_R   0.699335 0.667882 0.913442 0.407000
C7    C     C_R   0.589922 0.623299 0.850456 -0.264250
C8    C     C_R   0.519542 0.458448 0.134069 0.367590
C9    C     C_R   0.759349 0.610995 0.166794 -0.260584
C10   C     C_R   0.371480 0.453356 0.796464 -0.107847
C11   C     C_2   0.587779 0.884818 0.503569 -0.392620
C12   C     C_R   0.421857 0.486284 0.690176 0.816059
C13   C     C_2   0.509901 0.935979 0.456722 0.319194
C14   C     C_2   0.420229 0.116779 0.474973 -0.302456
C15   C     C_2   0.530542 0.073027 0.475618 -0.192112
C16   C     C_2   0.921520 0.489215 0.491422 0.381576
C17   C     C_2   0.077575 0.509258 0.509584 0.432314
C18   C     C_R   0.445082 0.254746 0.490402 0.844781
C19   C     C_R   0.576925 0.509235 0.309795 0.804675
C20   C     C_R   0.787089 0.653882 0.069390 -0.124871
C21   C     C_R   0.622677 0.520820 0.201404 -0.125074
C22   C     C_R   0.242392 0.345097 0.819690 0.412131
C23   C     C_R   0.222588 0.280992 0.909097 -0.270906
C24   C     C_R   0.326728 0.324720 0.975248 -0.131336
Cu1   Cu    Cu3+1 0.362000 0.479240 0.482530 1.066627
Cu2   Cu    Cu3+1 0.638000 0.520760 0.517470 0.997034
H1    H     H_    0.839779 0.657558 0.217644 0.186940
H2    H     H_    0.312102 0.051524 0.460282 0.193888
H3    H     H_    0.670552 0.946753 0.548676 0.126121
H4    H     H_    0.108036 0.379078 0.403686 0.169813
H5    H     H_    0.894036 0.624235 0.593583 0.165828
H6    H     H_    0.890468 0.730862 0.047274 0.205835
H7    H     H_    0.313498 0.257966 0.033107 0.210894
H8    H     H_    0.130486 0.191392 0.924791 0.158419
H9    H     H_    0.602060 0.679201 0.784935 0.145763
H10   H     H_    0.636859 0.138022 0.494320 0.189969
N1    N     N_2   0.845330 0.551960 0.543750 -0.284987
N2    N     N_2   0.154690 0.448120 0.456210 -0.270649
O1    O     O_R   0.426290 0.668220 0.490680 -0.482082
O2    O     O_R   0.659360 0.703290 0.520190 -0.596430
O3    O     O_R   0.326580 0.473880 0.629020 -0.482044
O4    O     O_R   0.559660 0.508940 0.658530 -0.599864
O5    O     O_R   0.340640 0.296710 0.479810 -0.578971
O6    O     O_R   0.573710 0.331780 0.509320 -0.525575
O7    O     O_R   0.440340 0.491060 0.341470 -0.539830
O8    O     O_R   0.673420 0.526120 0.370980 -0.542619
Br1   Br    Br    0.378879 0.839978 0.360674 -0.479470
O9    O     O_3   0.141670 0.592817 0.584637 -0.671015
H11   H     H_    0.066059 0.583238 0.643457 0.294904
O10   O     O_3   0.856231 0.403470 0.417880 -0.695226
H12   H     H_    0.930141 0.414046 0.357938 0.298968
O11   O     O_3   0.824002 0.775604 0.889432 -0.744214
H13   H     H_    0.821836 0.806638 0.822686 0.322837
O12   O     O_3   0.385458 0.369213 0.170138 -0.737200
H14   H     H_    0.402524 0.312731 0.217323 0.318910
O13   O     O_3   0.144598 0.295931 0.750143 -0.715617
H15   H     H_    0.061426 0.219545 0.778181 0.321849

loop_
_geom_bond_atom_site_label_1
_geom_bond_atom_site_label_2
_ccdc_geom_bond_type
C2    C4    A    
C23   C24   A    
C19   O7    A    
Cu2   N1    S    
C14   H2    S    
C6    C7    A    
C18   O6    A    
Cu1   N2    S    
C14   C18   S    
C9    C20   A    
C24   H7    S    
C1    C11   S    
C17   O9    S    
C16   N1    D    
C4    C8    A    
C23   H8    S    
C9    C21   A    
Cu1   O5    S    
C8    C21   A    
C19   O8    A    
Cu2   O6    S    
O10   H12   S    
C3    C10   A    
C18   O5    A    
Cu1   O1    S    
C11   C13   D    
C11   H3    S    
C12   O3    A    
C12   O4    A    
C10   C12   S    
O9    H11   S    
C19   C21   S    
C16   O10   S    
C2    C3    A    
C3    C7    A    
C17   N2    D    
C13   C15   S    
Cu2   O4    S    
C2    C24   A    
C5    C6    A    
C5    C20   A    
H4    N2    S    
Cu2   O8    S    
Cu1   O3    S    
Cu1   O7    S    
C15   H10   S    
Cu2   O2    S    
O13   H15   S    
C9    H1    S    
C20   H6    S    
C8    O12   S    
C13   Br1   S    
C1    O1    A    
C14   C15   D    
C16   C17   S    
C22   O13   S    
C1    O2    A    
C6    O11   S    
Cu1   Cu2   S    
O12   H14   S    
C7    H9    S    
C22   C23   A    
C10   C22   A    
H5    N1    S    
O11   H13   S    
C4    C5    A    
