data_mof_unit_24760.cif
_audit_creation_date              2012-12-10T20:16:57-0500
_audit_creation_method            fapswitch 2.2
_symmetry_space_group_name_H-M    P1
_symmetry_Int_Tables_number       1
_space_group_crystal_system       triclinic
_cell_length_a                    25.640265
_cell_length_b                    25.640181
_cell_length_c                    25.947249
_cell_angle_alpha                 90.596903
_cell_angle_beta                  90.596869
_cell_angle_gamma                 89.983123
_cell_volume                      17056.415796

loop_
_atom_site_label
_atom_site_type_symbol
_atom_type_description
_atom_site_fract_x
_atom_site_fract_y
_atom_site_fract_z
_atom_type_partial_charge
C1    C     C_1   0.828227 0.671773 0.750000 0.008412
C2    C     C_1   0.171470 0.672029 0.750647 -0.040556
C3    C     C_R   0.506319 0.005431 0.446874 0.050515
C4    C     C_R   0.494569 0.993680 0.053126 0.050481
C5    C     C_R   0.502088 0.999185 0.946146 0.034147
C6    C     C_R   0.000814 0.497912 0.053854 0.034158
C7    C     C_R   0.006319 0.505431 0.946874 0.050470
C8    C     C_R   0.499930 0.999489 0.609816 0.997861
C9    C     C_R   0.500602 0.001038 0.390541 0.861702
C10   C     C_R   0.998962 0.499397 0.609459 0.861676
C11   C     C_R   0.000511 0.500070 0.390184 0.997869
C12   C     C_R   0.999930 0.499489 0.109816 0.997883
C13   C     C_1   0.328227 0.171773 0.250000 0.008397
C14   C     C_R   0.000602 0.501038 0.890541 0.861765
C15   C     C_R   0.498962 0.999397 0.109459 0.861700
C16   C     C_R   0.500511 0.000070 0.890184 0.997872
C17   C     C_R   0.599142 0.098884 0.750157 0.862290
C18   C     C_R   0.400892 0.901070 0.249780 0.846927
C19   C     C_R   0.900913 0.599087 0.750000 0.845977
C20   C     C_R   0.099098 0.400902 0.250000 0.971604
C21   C     C_R   0.401117 0.900858 0.749843 0.861994
C22   C     C_R   0.598929 0.099108 0.250219 0.846952
C23   C     C_R   0.098958 0.401042 0.750000 0.974952
C24   C     C_1   0.671778 0.828221 0.750000 0.027936
C25   C     C_R   0.901058 0.598942 0.250000 0.919571
C26   C     C_R   0.598958 0.901042 0.250000 0.974927
C27   C     C_R   0.401058 0.098942 0.750000 0.919609
C28   C     C_R   0.901117 0.400858 0.249843 0.862010
C29   C     C_R   0.098929 0.599108 0.750220 0.846933
C30   C     C_R   0.400913 0.099087 0.250000 0.845916
C31   C     C_R   0.599097 0.900902 0.750000 0.971632
C32   C     C_R   0.099142 0.598883 0.250157 0.861979
C33   C     C_R   0.900893 0.401071 0.749781 0.847266
C34   C     C_R   0.773673 0.735109 0.703737 -0.133976
C35   C     C_1   0.172165 0.671295 0.250376 -0.032623
C36   C     C_R   0.226337 0.264892 0.296266 -0.120079
C37   C     C_R   0.263116 0.774226 0.703966 -0.146850
C38   C     C_R   0.737009 0.225698 0.296357 -0.146561
C39   C     C_R   0.224929 0.263528 0.703832 -0.122100
C40   C     C_R   0.775057 0.736506 0.296165 -0.130287
C41   C     C_R   0.729775 0.230339 0.703237 -0.148344
C42   C     C_R   0.263922 0.775835 0.295708 -0.153902
C43   C     C_R   0.775804 0.264010 0.296071 -0.148537
C44   C     C_R   0.224325 0.735915 0.704251 -0.153897
C45   C     C_R   0.264890 0.226327 0.296263 -0.133967
C46   C     C_1   0.827984 0.328517 0.749356 -0.040514
C47   C     C_R   0.735108 0.773663 0.703733 -0.120048
C48   C     C_R   0.225612 0.737044 0.295994 -0.146859
C49   C     C_R   0.768098 0.269123 0.702969 -0.145920
C50   C     C_R   0.736471 0.775071 0.296168 -0.122129
C51   C     C_R   0.263494 0.224942 0.703835 -0.130305
C52   C     C_R   0.273674 0.235110 0.203737 -0.133956
C53   C     C_R   0.726336 0.764892 0.796267 -0.120097
C54   C     C_R   0.763204 0.274136 0.203944 -0.146890
C55   C     C_R   0.237097 0.725608 0.796336 -0.146519
C56   C     C_R   0.724929 0.763529 0.203832 -0.122140
C57   C     C_1   0.671697 0.828303 0.250000 0.031252
C58   C     C_R   0.275058 0.236506 0.796165 -0.130250
C59   C     C_R   0.236242 0.723947 0.203990 -0.148502
C60   C     C_R   0.770423 0.269411 0.796443 -0.153917
C61   C     C_R   0.275892 0.763921 0.796050 -0.148493
C62   C     C_R   0.724414 0.235825 0.204229 -0.153939
C63   C     C_R   0.764890 0.726326 0.796263 -0.133917
C64   C     C_R   0.235109 0.273664 0.203733 -0.120093
C65   C     C_R   0.732101 0.230632 0.796711 -0.146818
C66   C     C_R   0.274555 0.762742 0.203704 -0.146538
C67   C     C_R   0.236471 0.275071 0.796168 -0.122151
C68   C     C_1   0.328298 0.171702 0.750000 0.008405
C69   C     C_R   0.763494 0.724942 0.203835 -0.130278
C70   C     C_R   0.788605 0.711394 0.750000 0.118605
C71   C     C_R   0.211399 0.288601 0.250000 0.106563
C72   C     C_R   0.288969 0.788286 0.749863 0.145291
C73   C     C_1   0.171779 0.328222 0.249999 0.027923
C74   C     C_R   0.711241 0.211550 0.250435 0.144289
C75   C     C_R   0.211354 0.288646 0.750000 0.103084
C76   C     C_R   0.788628 0.711372 0.250000 0.113483
C77   C     C_R   0.711716 0.211028 0.750109 0.145867
C78   C     C_R   0.288450 0.788759 0.249564 0.144273
C79   C     C_R   0.788969 0.288286 0.249863 0.145319
C80   C     C_R   0.211241 0.711550 0.750436 0.144269
C81   C     C_R   0.288606 0.211395 0.250000 0.118611
C82   C     C_R   0.711399 0.788601 0.750000 0.106558
C83   C     C_R   0.211714 0.711031 0.250138 0.145278
C84   C     C_1   0.328705 0.827835 0.749624 -0.032613
C85   C     C_R   0.788478 0.288732 0.749575 0.144250
C86   C     C_R   0.711354 0.788646 0.250000 0.103087
C87   C     C_R   0.288628 0.211372 0.750000 0.113482
C88   C     C_1   0.638575 0.861425 0.750000 -0.020142
C89   C     C_1   0.361431 0.138569 0.250000 0.012439
C90   C     C_1   0.138253 0.638809 0.750599 -0.101491
C91   C     C_1   0.861872 0.361098 0.249586 -0.115623
C92   C     C_1   0.361530 0.138470 0.750000 -0.041648
C93   C     C_1   0.638472 0.861527 0.250000 -0.050958
C94   C     C_1   0.861196 0.361743 0.749400 -0.101525
C95   C     C_1   0.671470 0.172029 0.250646 -0.040592
C96   C     C_1   0.138902 0.638128 0.250414 -0.115592
C97   C     C_1   0.638252 0.138809 0.250599 -0.101520
C98   C     C_1   0.361872 0.861098 0.749586 -0.115593
C99   C     C_1   0.138575 0.361425 0.250000 -0.020139
C100  C     C_1   0.861431 0.638569 0.750000 0.012443
C101  C     C_1   0.361191 0.861747 0.249400 -0.101493
C102  C     C_1   0.638903 0.138127 0.750409 -0.115709
C103  C     C_1   0.861530 0.638470 0.250000 -0.041630
C104  C     C_1   0.138472 0.361527 0.750000 -0.050958
C105  C     C_R   0.544266 0.911566 0.945445 0.281012
C106  C     C_1   0.171697 0.328303 0.750000 0.031259
C107  C     C_R   0.422930 0.059669 0.045341 0.250609
C108  C     C_R   0.940326 0.577066 0.954659 0.250612
C109  C     C_R   0.088434 0.455736 0.054554 0.281027
C110  C     C_R   0.468785 0.090943 0.952930 0.246342
C111  C     C_R   0.545666 0.910478 0.051414 0.265016
C112  C     C_R   0.089522 0.454336 0.948585 0.264995
C113  C     C_R   0.909054 0.531210 0.047071 0.246547
C114  C     C_R   0.044272 0.411570 0.445445 0.281015
C115  C     C_R   0.922925 0.559664 0.545341 0.250776
C116  C     C_R   0.440329 0.077069 0.454659 0.250669
C117  C     C_1   0.828298 0.671702 0.250000 0.008403
C118  C     C_R   0.588431 0.955730 0.554554 0.280865
C119  C     C_R   0.968779 0.590942 0.452930 0.246555
C120  C     C_R   0.045673 0.410482 0.551414 0.264882
C121  C     C_R   0.589520 0.954333 0.448585 0.265001
C122  C     C_R   0.409055 0.031213 0.547071 0.246547
C123  C     C_R   0.022410 0.454051 0.526475 -0.114230
C124  C     C_R   0.979397 0.540856 0.474057 -0.144956
C125  C     C_R   0.459142 0.020598 0.525943 -0.144967
C126  C     C_R   0.545949 0.977593 0.473524 -0.114236
C127  C     C_R   0.965306 0.531213 0.524899 -0.144439
C128  C     C_1   0.672166 0.171294 0.750362 -0.032523
C129  C     C_R   0.022956 0.455123 0.472052 -0.119503
C130  C     C_R   0.544877 0.977045 0.527948 -0.119491
C131  C     C_R   0.468783 0.034690 0.475101 -0.144458
C132  C     C_R   0.522406 0.954049 0.026475 -0.114266
C133  C     C_R   0.479400 0.040857 0.974057 -0.144895
C134  C     C_R   0.959141 0.520597 0.025943 -0.144947
C135  C     C_R   0.045951 0.477595 0.973525 -0.114292
C136  C     C_R   0.465309 0.031215 0.024899 -0.144408
C137  C     C_R   0.522953 0.955121 0.972052 -0.119549
C138  C     C_R   0.044879 0.477048 0.027948 -0.119531
C139  C     C_1   0.327971 0.828530 0.249353 -0.040563
C140  C     C_R   0.968782 0.534689 0.975101 -0.144385
C141  C     C_R   0.583844 0.882756 0.970302 0.196626
C142  C     C_R   0.411374 0.109309 0.025573 0.233389
C143  C     C_R   0.890686 0.588621 0.974428 0.233377
C144  C     C_R   0.117245 0.416159 0.029697 0.196635
C145  C     C_R   0.431531 0.123798 0.977098 0.252692
C146  C     C_R   0.584894 0.882553 0.024995 0.201331
C147  C     C_R   0.117448 0.415108 0.975005 0.201319
C148  C     C_R   0.876198 0.568463 0.022903 0.252775
C149  C     C_R   0.083853 0.382763 0.470301 0.196674
C150  C     C_1   0.828705 0.327835 0.249624 -0.032650
C151  C     C_R   0.911365 0.609303 0.525573 0.233350
C152  C     C_R   0.390689 0.088625 0.474427 0.233362
C153  C     C_R   0.617240 0.916152 0.529696 0.196620
C154  C     C_R   0.931522 0.623794 0.477098 0.252733
C155  C     C_R   0.084904 0.382560 0.524994 0.201347
C156  C     C_R   0.617444 0.915103 0.475004 0.201379
C157  C     C_R   0.376200 0.068468 0.522903 0.252715
C158  C     C_R   0.994569 0.493680 0.553126 0.050497
C159  C     C_R   0.002088 0.499186 0.446146 0.034178
C160  C     C_R   0.500813 0.997911 0.553853 0.034149
H1    H     H_    0.723798 0.791792 0.667763 0.206361
H2    H     H_    0.272920 0.792862 0.668055 0.161220
H3    H     H_    0.208207 0.276202 0.332236 0.206356
H4    H     H_    0.791823 0.723814 0.667779 0.179119
H5    H     H_    0.274415 0.795705 0.331385 0.158056
H6    H     H_    0.714234 0.215450 0.666988 0.162487
H7    H     H_    0.794273 0.726295 0.332065 0.195407
H8    H     H_    0.205729 0.273763 0.667929 0.209545
H9    H     H_    0.223799 0.291793 0.167763 0.206355
H10   H     H_    0.776185 0.708177 0.832221 0.179112
H11   H     H_    0.704738 0.225137 0.168505 0.158037
H12   H     H_    0.276185 0.208177 0.332221 0.179111
H13   H     H_    0.295639 0.774547 0.831756 0.162696
H14   H     H_    0.773705 0.705727 0.167935 0.195408
H15   H     H_    0.226237 0.294272 0.832071 0.209539
H16   H     H_    0.293313 0.772429 0.167824 0.163446
H17   H     H_    0.718374 0.215977 0.833161 0.159905
H18   H     H_    0.227286 0.706977 0.832247 0.163448
H19   H     H_    0.773076 0.292702 0.168017 0.161194
H20   H     H_    0.708207 0.776202 0.832236 0.206356
H21   H     H_    0.291824 0.223815 0.167779 0.179113
H22   H     H_    0.785956 0.284301 0.832695 0.157718
H23   H     H_    0.204580 0.725296 0.668543 0.158047
H24   H     H_    0.225742 0.704076 0.168315 0.162701
H25   H     H_    0.294274 0.226296 0.832065 0.195412
H26   H     H_    0.705729 0.773763 0.167929 0.209540
H27   H     H_    0.423538 0.878238 0.876484 0.374272
H28   H     H_    0.349051 0.942052 0.077107 0.387790
H29   H     H_    0.057940 0.650951 0.922893 0.387782
H30   H     H_    0.121760 0.576465 0.123515 0.374272
H31   H     H_    0.594431 0.105133 0.888561 0.380669
H32   H     H_    0.501839 0.797504 0.124838 0.380694
H33   H     H_    0.202494 0.498165 0.875161 0.380706
H34   H     H_    0.795481 0.274706 0.331795 0.162682
H35   H     H_    0.894867 0.405563 0.111439 0.380690
H36   H     H_    0.923545 0.378236 0.376486 0.374268
H37   H     H_    0.849056 0.442042 0.577114 0.387393
H38   H     H_    0.557946 0.150950 0.422895 0.387701
H39   H     H_    0.621747 0.076456 0.623523 0.374396
H40   H     H_    0.094423 0.605141 0.388561 0.380709
H41   H     H_    0.001868 0.297504 0.624841 0.381037
H42   H     H_    0.702495 0.998163 0.375165 0.380726
H43   H     H_    0.394864 0.905568 0.611439 0.380707
H44   H     H_    0.417982 0.260452 0.939809 0.388752
H45   H     H_    0.273705 0.205726 0.667935 0.195404
H46   H     H_    0.642771 0.900659 0.124449 0.356823
H47   H     H_    0.099340 0.357231 0.875551 0.356784
H48   H     H_    0.739544 0.582003 0.060194 0.388700
H49   H     H_    0.598690 0.771682 0.944671 0.384865
H50   H     H_    0.293615 0.171009 0.076210 0.378155
H51   H     H_    0.828980 0.706376 0.923791 0.378150
H52   H     H_    0.228319 0.401318 0.055326 0.384858
H53   H     H_    0.917967 0.760447 0.439808 0.388691
H54   H     H_    0.142779 0.400674 0.624447 0.356843
H55   H     H_    0.599337 0.857228 0.375549 0.356841
H56   H     H_    0.726236 0.794271 0.332071 0.209540
H57   H     H_    0.239547 0.082012 0.560193 0.388701
H58   H     H_    0.098705 0.271689 0.444672 0.384887
H59   H     H_    0.793603 0.670994 0.576212 0.378150
H60   H     H_    0.328988 0.206383 0.423791 0.378155
H61   H     H_    0.728313 0.901302 0.555328 0.384912
H62   H     H_    0.781817 0.283788 0.666521 0.163221
H63   H     H_    0.206848 0.727364 0.331874 0.161253
H64   H     H_    0.727130 0.207136 0.332285 0.163434
O1    O     O_3   0.500000 0.000000 0.750000 -0.515335
O2    O     O_R   0.500000 0.957290 0.365830 -0.641319
O3    O     O_3   0.409051 0.927094 0.583373 -0.563323
O4    O     O_2   0.347046 0.183194 0.954930 -0.210888
O5    O     O_2   0.408747 0.169125 0.885622 -0.266183
O6    O     O_3   0.435307 0.232646 0.959938 -0.447859
O7    O     O_2   0.620163 0.789234 0.056500 -0.164163
O8    O     O_2   0.686025 0.855944 0.041411 -0.212610
O9    O     O_3   0.630980 0.863871 0.123582 -0.516408
O10   O     O_2   0.210767 0.379841 0.943498 -0.164148
O11   O     O_2   0.144058 0.313978 0.958589 -0.212647
O12   O     O_3   0.136128 0.369022 0.876417 -0.516417
O13   O     O_R   0.957290 0.500000 0.634170 -0.558377
O14   O     O_2   0.830870 0.591245 0.114379 -0.266221
O15   O     O_2   0.816797 0.652945 0.045071 -0.210898
O16   O     O_3   0.767350 0.564681 0.040063 -0.447855
O17   O     O_2   0.617529 0.850492 0.875951 -0.271146
O18   O     O_2   0.683102 0.873422 0.940288 -0.205256
O19   O     O_3   0.634331 0.785685 0.950149 -0.441228
O20   O     O_2   0.384401 0.140865 0.120795 -0.321001
O21   O     O_2   0.391769 0.208693 0.056211 -0.213859
O22   O     O_3   0.311144 0.147356 0.051425 -0.427166
O23   O     O_2   0.859128 0.615592 0.879206 -0.320929
O24   O     O_R   0.042710 0.500000 0.365830 -0.601754
O25   O     O_2   0.791301 0.608221 0.943790 -0.213717
O26   O     O_3   0.852635 0.688849 0.948575 -0.427198
O27   O     O_2   0.149512 0.382475 0.124048 -0.271134
O28   O     O_2   0.126583 0.316901 0.059712 -0.205207
O29   O     O_3   0.214318 0.365676 0.049849 -0.441242
O30   O     O_2   0.847035 0.683186 0.454931 -0.210871
O31   O     O_2   0.908736 0.669121 0.385623 -0.266205
O32   O     O_3   0.935292 0.732642 0.459939 -0.448024
O33   O     O_2   0.120183 0.289245 0.556500 -0.164117
O34   O     O_2   0.186037 0.355962 0.541409 -0.212571
O35   O     O_R   0.000000 0.457290 0.134170 -0.601767
O36   O     O_3   0.130992 0.363885 0.623581 -0.516431
O37   O     O_2   0.710763 0.879834 0.443498 -0.164142
O38   O     O_2   0.644052 0.813972 0.458587 -0.212565
O39   O     O_3   0.636125 0.869019 0.376416 -0.516416
O40   O     O_2   0.316802 0.152951 0.545070 -0.210897
O41   O     O_2   0.330872 0.091251 0.614379 -0.266211
O42   O     O_3   0.267352 0.064689 0.540062 -0.448014
O43   O     O_2   0.117537 0.350499 0.375950 -0.271148
O44   O     O_2   0.183110 0.373435 0.440285 -0.205131
O45   O     O_3   0.134345 0.285694 0.450149 -0.441251
O46   O     O_R   0.000000 0.542710 0.865830 -0.558351
O47   O     O_2   0.884392 0.640858 0.620795 -0.320995
O48   O     O_2   0.891754 0.708686 0.556211 -0.213873
O49   O     O_3   0.811134 0.647343 0.551426 -0.427181
O50   O     O_2   0.359133 0.115597 0.379206 -0.321000
O51   O     O_2   0.291305 0.108229 0.443789 -0.213884
O52   O     O_3   0.352641 0.188854 0.448575 -0.427183
O53   O     O_2   0.649502 0.882465 0.624047 -0.271152
O54   O     O_2   0.626570 0.816894 0.559709 -0.205132
O55   O     O_3   0.714309 0.865661 0.549849 -0.441227
O56   O     O_R   0.542710 0.000000 0.134170 -0.641338
O57   O     O_R   0.457290 1.000000 0.865830 -0.603027
O58   O     O_R   0.000000 0.542710 0.134170 -0.603030
O59   O     O_R   0.000000 0.457290 0.865830 -0.641382
O60   O     O_R   0.457290 0.000000 0.134170 -0.558365
O61   O     O_3   0.500000 0.000000 0.250000 -0.518223
O62   O     O_R   0.542710 1.000000 0.865830 -0.601820
O63   O     O_R   0.560130 0.102810 0.719600 -0.624312
O64   O     O_R   0.439870 0.897190 0.280400 -0.641312
O65   O     O_R   0.897190 0.560130 0.719600 -0.603671
O66   O     O_R   0.102810 0.439870 0.280400 -0.604140
O67   O     O_R   0.439870 0.897190 0.719600 -0.630749
O68   O     O_R   0.560130 0.102810 0.280400 -0.605370
O69   O     O_R   0.102810 0.439870 0.719600 -0.613069
O70   O     O_R   0.897190 0.560130 0.280400 -0.615324
O71   O     O_R   0.560130 0.897190 0.280400 -0.613078
O72   O     O_3   0.000000 0.500000 0.750000 -0.518192
O73   O     O_R   0.439870 0.102810 0.719600 -0.615365
O74   O     O_R   0.897190 0.439870 0.280400 -0.624054
O75   O     O_R   0.102810 0.560130 0.719600 -0.641317
O76   O     O_R   0.439870 0.102810 0.280400 -0.603684
O77   O     O_R   0.560130 0.897190 0.719600 -0.604145
O78   O     O_R   0.102810 0.560130 0.280400 -0.630746
O79   O     O_R   0.897190 0.439870 0.719600 -0.605548
O80   O     O_R   0.060130 0.602810 0.219600 -0.624030
O81   O     O_R   0.939870 0.397190 0.780400 -0.641506
O82   O     O_R   0.397190 0.060130 0.219600 -0.603681
O83   O     O_3   0.000000 0.500000 0.250000 -0.515386
O84   O     O_R   0.602810 0.939870 0.780400 -0.604186
O85   O     O_R   0.939870 0.397190 0.219600 -0.630768
O86   O     O_R   0.060130 0.602810 0.780400 -0.605369
O87   O     O_R   0.602810 0.939870 0.219600 -0.613089
O88   O     O_R   0.397190 0.060130 0.780400 -0.615313
O89   O     O_R   0.060130 0.397190 0.780400 -0.613120
O90   O     O_R   0.939870 0.602810 0.219600 -0.615323
O91   O     O_R   0.397190 0.939870 0.780400 -0.624034
O92   O     O_R   0.602810 0.060130 0.219600 -0.641337
O93   O     O_R   0.939870 0.602810 0.780400 -0.603684
O94   O     O_R   0.500000 0.957290 0.634170 -0.601732
O95   O     O_R   0.060130 0.397190 0.219600 -0.604168
O96   O     O_R   0.602810 0.060130 0.780400 -0.630908
O97   O     O_R   0.397190 0.939870 0.219600 -0.605357
O98   O     O_2   0.521947 0.893891 0.844615 -0.348974
O99   O     O_2   0.510457 0.820948 0.903469 -0.257802
O100  O     O_3   0.442288 0.895356 0.905627 -0.531490
O101  O     O_2   0.356457 0.036818 0.122309 -0.216540
O102  O     O_2   0.321577 0.036076 0.034393 -0.221079
O103  O     O_3   0.379937 0.958983 0.061924 -0.480063
O104  O     O_2   0.963174 0.643541 0.877692 -0.216555
O105  O     O_R   0.500000 0.042710 0.365830 -0.558356
O106  O     O_2   0.963915 0.678421 0.965609 -0.221085
O107  O     O_3   0.041010 0.620064 0.938076 -0.480067
O108  O     O_2   0.106108 0.478055 0.155385 -0.348979
O109  O     O_2   0.179051 0.489548 0.096531 -0.257826
O110  O     O_3   0.104641 0.557715 0.094372 -0.531488
O111  O     O_2   0.495143 0.109563 0.854195 -0.343507
O112  O     O_2   0.519768 0.176164 0.918208 -0.200561
O113  O     O_3   0.572905 0.090949 0.916630 -0.563509
O114  O     O_2   0.530134 0.894531 0.153148 -0.340295
O115  O     O_2   0.453901 0.888556 0.096203 -0.265656
O116  O     O_R   0.042710 0.500000 0.634170 -0.641317
O117  O     O_3   0.519771 0.812589 0.094828 -0.464748
O118  O     O_2   0.105468 0.469868 0.846851 -0.340294
O119  O     O_2   0.111441 0.546102 0.903797 -0.265653
O120  O     O_3   0.187410 0.480234 0.905171 -0.464736
O121  O     O_2   0.890438 0.504853 0.145806 -0.343614
O122  O     O_2   0.823837 0.480224 0.081795 -0.201165
O123  O     O_3   0.909053 0.427091 0.083373 -0.563397
O124  O     O_2   0.021952 0.393891 0.344616 -0.348990
O125  O     O_2   0.010467 0.320949 0.403472 -0.257706
O126  O     O_3   0.942294 0.395353 0.405630 -0.531513
O127  O     O_R   0.957290 0.500000 0.365830 -0.603052
O128  O     O_2   0.856455 0.536810 0.622310 -0.216683
O129  O     O_2   0.821574 0.536063 0.534394 -0.221304
O130  O     O_3   0.879939 0.458975 0.561927 -0.480193
O131  O     O_2   0.463179 0.143542 0.377692 -0.216521
O132  O     O_2   0.463921 0.178423 0.465608 -0.221338
O133  O     O_3   0.541015 0.120063 0.438076 -0.480180
O134  O     O_2   0.606108 0.978049 0.655384 -0.348954
O135  O     O_2   0.679049 0.989539 0.596528 -0.257183
O136  O     O_3   0.604643 0.057709 0.594370 -0.531595
O137  O     O_2   0.995134 0.609563 0.354195 -0.343602
O138  O     O_R   0.500000 0.042710 0.634170 -0.603144
O139  O     O_2   0.019756 0.676165 0.418208 -0.201340
O140  O     O_3   0.072898 0.590954 0.416628 -0.563330
O141  O     O_2   0.030141 0.394532 0.653147 -0.340310
O142  O     O_2   0.953909 0.388551 0.596199 -0.265429
O143  O     O_3   0.019786 0.312590 0.594824 -0.464448
O144  O     O_2   0.605468 0.969866 0.346852 -0.340306
O145  O     O_2   0.611443 0.046099 0.403799 -0.265644
O146  O     O_3   0.687410 0.980228 0.405173 -0.464653
O147  O     O_2   0.390437 0.004857 0.645806 -0.343590
O148  O     O_2   0.323836 0.980230 0.581794 -0.201320
S1    S     S_3+6 0.505278 0.879014 0.897781 0.053731
S2    S     S_3+6 0.868394 0.523299 0.567258 0.127871
S3    S     S_3+6 0.476690 0.131603 0.432744 0.127985
S4    S     S_3+6 0.620984 0.994718 0.602217 0.054056
S5    S     S_3+6 0.013869 0.618562 0.408663 0.057792
S6    S     S_3+6 0.011236 0.377377 0.600802 0.073117
S7    S     S_3+6 0.622622 0.988772 0.399197 0.072891
S8    S     S_3+6 0.381439 0.986122 0.591338 0.057808
S9    S     S_3+6 0.403943 0.177443 0.942793 0.146572
S10   S     S_3+6 0.631983 0.846487 0.060996 0.138869
S11   S     S_3+6 0.153513 0.368019 0.939003 0.138843
S12   S     S_3+6 0.368396 0.023307 0.067257 0.128138
S13   S     S_3+6 0.822551 0.596048 0.057208 0.146561
S14   S     S_3+6 0.630602 0.848442 0.932444 0.134148
S15   S     S_3+6 0.375144 0.153340 0.064981 0.123538
S16   S     S_3+6 0.846654 0.624848 0.935020 0.123631
S17   S     S_3+6 0.151561 0.369402 0.067556 0.134170
S18   S     S_3+6 0.903932 0.677438 0.442794 0.146536
S19   S     S_3+6 0.131997 0.346500 0.560995 0.138887
S20   S     S_3+6 0.653509 0.868014 0.439002 0.138896
S21   S     S_3+6 0.322555 0.096054 0.557207 0.146519
S22   S     S_3+6 0.130612 0.348451 0.432442 0.134193
S23   S     S_3+6 0.976685 0.631602 0.932744 0.128121
S24   S     S_3+6 0.875134 0.653331 0.564981 0.123538
S25   S     S_3+6 0.346658 0.124854 0.435020 0.123531
S26   S     S_3+6 0.651552 0.869392 0.567554 0.134196
S27   S     S_3+6 0.120985 0.494725 0.102218 0.053717
S28   S     S_3+6 0.513877 0.118560 0.908663 0.058133
S29   S     S_3+6 0.511227 0.877377 0.100804 0.072854
S30   S     S_3+6 0.122622 0.488776 0.899196 0.072861
S31   S     S_3+6 0.881440 0.486117 0.091338 0.057850
S32   S     S_3+6 0.005285 0.379014 0.397783 0.053764
Zn1   Zn    Zn3+2 0.561040 1.000000 0.793350 1.135450
Zn2   Zn    Zn3+2 0.938960 0.500000 0.706650 1.114027
Zn3   Zn    Zn3+2 0.500000 0.061040 0.293350 1.114070
Zn4   Zn    Zn3+2 0.500000 0.938960 0.706650 1.135609
Zn5   Zn    Zn3+2 0.938960 0.500000 0.293350 1.128624
Zn6   Zn    Zn3+2 0.061040 0.500000 0.706650 1.070820
Zn7   Zn    Zn3+2 0.500000 0.938960 0.293350 1.070810
Zn8   Zn    Zn3+2 0.500000 0.061040 0.706650 1.128433
Zn9   Zn    Zn3+2 0.438960 0.000000 0.206650 1.114078
Zn10  Zn    Zn3+2 0.000000 0.561040 0.793350 1.114120
Zn11  Zn    Zn3+2 0.000000 0.438960 0.206650 1.135549
Zn12  Zn    Zn3+2 0.438960 1.000000 0.793350 1.128677
Zn13  Zn    Zn3+2 0.561040 0.000000 0.206650 1.070772
Zn14  Zn    Zn3+2 0.000000 0.438960 0.793350 1.070693
Zn15  Zn    Zn3+2 0.000000 0.561040 0.206650 1.128658
Zn16  Zn    Zn3+2 0.061040 0.500000 0.293350 1.135590

loop_
_geom_bond_atom_site_label_1
_geom_bond_atom_site_label_2
_ccdc_geom_bond_type
C49   H62   S    
O124  S32   D    
O56   Zn13  S    
H43   O3    S    
C11   C159  S    
C109  S27   S    
O80   Zn15  S    
C110  S28   S    
C145  S9    S    
H46   O9    S    
C3    C131  A    
O26   S16   S    
C15   O56   A    
C59   C66   A    
C17   O63   A    
C18   O64   A    
C122  S8    S    
C151  S24   S    
C118  C153  A    
C10   O116  A    
C64   H9    S    
C23   O89   A    
O38   S20   D    
O41   S21   D    
O89   Zn14  S    
O135  S4    D    
C8    O138  A    
C108  S23   S    
C28   O85   A    
O55   S26   S    
O83   Zn15  S    
C9    O2    A    
C110  C145  A    
C36   C71   A    
C20   O95   A    
H38   O133  S    
O78   Zn16  S    
O105  Zn3   S    
C60   H22   S    
C66   H16   S    
C103  C117  T    
C30   C89   S    
O90   Zn15  S    
O118  S30   D    
C41   C49   A    
H58   O45   S    
C65   C77   A    
H42   O146  S    
O61   Zn13  S    
C71   C73   S    
C132  C137  A    
C156  S20   S    
C120  C155  A    
C40   C76   A    
C53   C82   A    
C107  C136  A    
O86   Zn10  S    
O64   Zn7   S    
C56   C86   A    
O111  S28   D    
O40   S21   D    
C116  S3    S    
C60   C85   A    
C26   O87   A    
O57   Zn12  S    
O137  S5    D    
C153  C156  A    
O99   S1    D    
O81   Zn14  S    
C72   C84   S    
C124  C127  A    
C60   C65   A    
C111  S29   S    
C17   O96   A    
C55   H18   S    
C29   O86   A    
C45   H12   S    
O134  S4    D    
C54   C79   A    
O128  S2    D    
C152  C157  A    
C45   C81   A    
C76   C117  S    
C63   H10   S    
O19   S14   S    
C95   C97   T    
C5    C137  A    
C134  C140  A    
C14   O59   A    
O106  S23   D    
C148  S13   S    
C1    C70   S    
O77   Zn4   S    
C20   O66   A    
C37   C44   A    
C30   O82   A    
C38   C43   A    
O88   Zn12  S    
C29   O75   A    
C55   C80   A    
C32   O80   A    
C105  S1    S    
C20   C99   S    
C9    O105  A    
O27   S17   D    
O60   Zn9   S    
C68   C92   T    
C120  S6    S    
C109  C144  A    
C149  C155  A    
O108  S27   D    
H32   O117  S    
H57   O42   S    
C115  C151  A    
O120  S30   S    
H30   O110  S    
O142  S6    D    
C37   H2    S    
O37   S20   D    
C39   C51   A    
C141  S14   S    
C6    C138  A    
C121  C156  A    
O16   S13   S    
C27   O73   A    
C30   O76   A    
C78   C139  S    
C101  C139  T    
C125  C160  A    
O11   S11   D    
C4    C132  A    
C35   C96   T    
C5    C133  A    
O18   S14   D    
O94   Zn4   S    
O125  S32   D    
C144  S17   S    
C113  C148  A    
C102  C128  T    
O65   Zn2   S    
O141  S6    D    
C25   O90   A    
C39   H8    S    
C69   C76   A    
C2    C90   T    
C11   O127  A    
H52   O29   S    
O115  S29   D    
O104  S23   D    
C36   H3    S    
O42   S21   S    
C39   C75   A    
C10   C158  S    
C42   H5    S    
O61   Zn7   S    
O73   Zn8   S    
C113  S31   S    
O23   S16   D    
C114  S32   S    
C15   O60   A    
C32   O78   A    
C144  C147  A    
C28   O74   A    
C112  S30   S    
O82   Zn9   S    
C143  C148  A    
O76   Zn3   S    
O133  S3    S    
C36   C45   A    
O74   Zn5   S    
C31   O77   A    
C111  C146  A    
O29   S17   S    
O2    Zn7   S    
O3    S8    S    
O62   Zn1   S    
C116  C152  A    
C109  C138  A    
O5    S9    D    
C17   C102  S    
O72   Zn14  S    
C3    C9    S    
O100  S1    S    
C125  C131  A    
C46   C94   T    
C41   H6    S    
O92   Zn13  S    
O72   Zn2   S    
C42   C48   A    
C18   O97   A    
C44   H23   S    
H33   O120  S    
O36   S19   S    
O1    Zn4   S    
C107  S12   S    
O103  S12   S    
C67   C75   A    
H50   O22   S    
O114  S29   D    
C38   C74   A    
O102  S12   D    
H28   O103  S    
O69   Zn6   S    
H36   O126  S    
C51   H45   S    
O68   Zn3   S    
C42   C78   A    
C104  C106  T    
O70   Zn5   S    
C48   C83   A    
C122  C125  A    
O110  S27   S    
C53   C63   A    
C65   H17   S    
C26   C93   S    
C55   C61   A    
O83   Zn11  S    
O49   S24   S    
C52   C81   A    
O131  S3    D    
C10   O13   A    
C56   C69   A    
O1    Zn8   S    
C68   C87   S    
O24   Zn16  S    
O22   S15   S    
O119  S30   D    
O95   Zn11  S    
O72   Zn6   S    
H49   O19   S    
O123  S31   S    
O63   Zn8   S    
C3    C126  A    
C146  S10   S    
C62   H11   S    
C112  C147  A    
C11   O24   A    
C59   C83   A    
O53   S26   D    
O59   Zn14  S    
C6    C12   S    
C7    C140  A    
C33   O79   A    
O17   S14   D    
C126  C130  A    
C13   C81   S    
O58   Zn15  S    
C54   H19   S    
C130  C160  A    
C64   C71   A    
C38   H64   S    
C16   O57   A    
C40   H7    S    
O116  Zn6   S    
C67   H15   S    
O84   Zn1   S    
O112  S28   D    
C12   O35   A    
C34   C70   A    
C120  C123  A    
C152  S25   S    
C4    C136  A    
C46   C85   S    
O51   S25   D    
H29   O107  S    
C58   H25   S    
C142  C145  A    
O9    S10   S    
H31   O113  S    
O10   S11   D    
C1    C100  T    
C29   C90   S    
O130  S2    S    
C66   C78   A    
C118  S4    S    
O85   Zn11  S    
O25   S16   D    
H55   O39   S    
C44   C80   A    
C52   H21   S    
O87   Zn13  S    
C52   C64   A    
C35   C83   S    
C54   C62   A    
O71   Zn7   S    
O127  Zn5   S    
O122  S31   D    
C118  C130  A    
O61   Zn3   S    
O91   Zn12  S    
C23   C104  S    
O79   Zn2   S    
C50   H56   S    
C31   O84   A    
O54   S26   D    
O83   Zn16  S    
C24   C88   T    
C127  C158  A    
O20   S15   D    
C141  C146  A    
C79   C150  S    
O146  S7    S    
C61   C72   A    
C123  C158  A    
O46   Zn10  S    
C21   O91   A    
C119  C154  A    
O138  Zn8   S    
C113  C134  A    
C22   O92   A    
C114  C129  A    
O44   S22   D    
O67   Zn4   S    
C16   O62   A    
C8    C160  S    
O30   S18   D    
C19   O93   A    
O72   Zn10  S    
O121  S31   D    
O1    Zn1   S    
C31   C88   S    
O52   S25   S    
C91   C150  T    
C19   C100  S    
C14   O46   A    
C34   H4    S    
C153  S26   S    
O31   S18   D    
O96   Zn1   S    
C142  S15   S    
O45   S22   S    
H35   O123  S    
O39   S20   S    
O93   Zn10  S    
C41   C77   A    
C21   C98   S    
O28   S17   D    
C40   C50   A    
C33   C94   S    
C122  C157  A    
C119  S5    S    
H51   O26   S    
C47   H1    S    
H40   O140  S    
C75   C106  S    
C19   O65   A    
C37   C72   A    
C8    O94   A    
C62   C74   A    
H53   O32   S    
C34   C47   A    
C114  C149  A    
C23   O69   A    
C108  C143  A    
C143  S16   S    
C135  C138  A    
C124  C159  A    
C25   O70   A    
H60   O52   S    
H59   O49   S    
O140  S5    S    
C115  S2    S    
C43   H34   S    
C58   C87   A    
H48   O16   S    
O8    S10   D    
C58   C67   A    
C119  C124  A    
C149  S22   S    
C147  S11   S    
O43   S22   D    
O117  S29   S    
O66   Zn16  S    
C105  C141  A    
C47   C82   A    
C43   C79   A    
O1    Zn12  S    
C115  C127  A    
C57   C86   S    
C151  C154  A    
C24   C82   S    
C5    C16   S    
O113  S28   S    
O101  S12   D    
O98   S1    D    
C133  C136  A    
H39   O136  S    
C21   O67   A    
O32   S18   S    
C28   C91   S    
O75   Zn6   S    
C22   O68   A    
O6    S9    S    
C22   C97   S    
C57   C93   T    
C123  C129  A    
O143  S6    S    
O35   Zn11  S    
H54   O36   S    
O48   S24   D    
O12   S11   S    
H47   O12   S    
C7    C14   S    
O126  S32   S    
C121  S7    S    
C49   C85   A    
C61   H13   S    
O144  S7    D    
O97   Zn9   S    
C51   C87   A    
C108  C140  A    
O7    S10   D    
C25   C103  S    
O61   Zn9   S    
C105  C137  A    
C18   C101  S    
O129  S2    D    
O109  S27   D    
C7    C135  A    
C157  S21   S    
O145  S7    D    
C63   C70   A    
C155  S19   S    
H37   O130  S    
O13   Zn2   S    
C27   C92   S    
O132  S3    D    
C107  C142  A    
C77   C128  S    
C154  S18   S    
C32   C96   S    
H41   O143  S    
O21   S15   D    
C26   O71   A    
H61   O55   S    
O139  S5    D    
C112  C135  A    
C33   O81   A    
O4    S9    D    
C53   H20   S    
C129  C159  A    
O47   S24   D    
C73   C99   T    
O83   Zn5   S    
O147  S8    D    
O148  S8    D    
C13   C89   T    
C74   C95   S    
O50   S25   D    
O14   S13   D    
C56   H26   S    
C48   H63   S    
H27   O100  S    
O34   S19   D    
C84   C98   T    
C4    C15   S    
C121  C126  A    
C6    C134  A    
O107  S23   S    
C116  C131  A    
H44   O6    S    
C59   H24   S    
C2    C80   S    
C50   C86   A    
C111  C132  A    
C69   H14   S    
C27   O88   A    
C110  C133  A    
O33   S19   D    
O15   S13   D    
C12   O58   A    
O136  S4    S    
