data_mof_unit_12938.cif
_audit_creation_date              2012-12-10T17:43:34-0500
_audit_creation_method            fapswitch 2.2
_symmetry_space_group_name_H-M    P1
_symmetry_Int_Tables_number       1
_space_group_crystal_system       triclinic
_cell_length_a                    14.918384
_cell_length_b                    10.689691
_cell_length_c                    9.935493
_cell_angle_alpha                 91.753182
_cell_angle_beta                  90.520852
_cell_angle_gamma                 92.757611
_cell_volume                      1581.77789719

loop_
_atom_site_label
_atom_site_type_symbol
_atom_type_description
_atom_site_fract_x
_atom_site_fract_y
_atom_site_fract_z
_atom_type_partial_charge
C1    C     C_R   0.506856 0.260421 0.497335 0.886329
C2    C     C_R   0.910405 0.601676 0.436620 0.078130
C3    C     C_R   0.945483 0.302828 0.616571 -0.067609
C4    C     C_R   0.039216 0.299713 0.614113 0.204864
C5    C     C_R   0.089738 0.398301 0.555325 0.043993
C6    C     C_R   0.046538 0.497810 0.494959 0.041215
C7    C     C_R   0.097194 0.595062 0.432933 0.139665
C8    C     C_R   0.054895 0.692984 0.373005 -0.193849
C9    C     C_R   0.962269 0.696548 0.374926 -0.141151
C10   C     C_R   0.183008 0.400714 0.555538 -0.207243
C11   C     C_R   0.231673 0.498226 0.496611 -0.060521
C12   C     C_R   0.327124 0.499221 0.499226 0.874260
C13   C     C_R   0.189863 0.593683 0.433038 -0.215402
C14   C     C_R   0.597055 0.126397 0.709524 -0.140671
C15   C     C_R   0.610821 0.070151 0.832112 -0.188239
C16   C     C_R   0.562067 0.959955 0.861653 -0.018878
C17   C     C_R   0.504841 0.901034 0.763246 0.258357
C18   C     C_R   0.506932 0.944616 0.629292 0.038003
C19   C     C_R   0.540265 0.066896 0.609848 0.036016
C20   C     C_R   0.514077 0.126436 0.491792 -0.161628
C21   C     C_R   0.478727 0.055100 0.379798 0.279990
C22   C     C_R   0.464213 0.928651 0.391017 -0.196006
C23   C     C_R   0.492240 0.739191 0.503247 0.941108
C24   C     C_R   0.480952 0.872072 0.512140 -0.151829
C25   C     C_R   0.357810 0.382399 0.137063 -0.128777
C26   C     C_R   0.275493 0.358956 0.073075 -0.017588
C27   C     C_R   0.270604 0.366813 0.934344 -0.227453
C28   C     C_R   0.350180 0.382125 0.861770 0.015849
C29   C     C_R   0.428095 0.441321 0.926133 0.141132
C30   C     C_R   0.429344 0.442206 0.070373 0.147862
C31   C     C_R   0.568304 0.554991 0.074037 -0.063520
C32   C     C_R   0.568313 0.555007 0.931158 -0.091219
C33   C     C_R   0.672809 0.503551 0.500546 0.930457
C34   C     C_R   0.816892 0.604786 0.439749 0.186174
C35   C     C_R   0.768334 0.507389 0.501229 -0.106076
C36   C     C_R   0.809755 0.409480 0.560945 -0.270457
C37   C     C_R   0.902561 0.403718 0.558997 0.027421
C38   C     C_R   0.953130 0.500810 0.496668 0.009451
H1    H     H_    0.632460 0.215053 0.691999 0.153011
H2    H     H_    0.655676 0.116262 0.906535 0.172190
H3    H     H_    0.441690 0.873480 0.302613 0.206562
H4    H     H_    0.624039 0.600512 0.129608 0.184483
H5    H     H_    0.366186 0.347393 0.235723 0.220876
H6    H     H_    0.209055 0.333099 0.883322 0.189795
H7    H     H_    0.768240 0.336673 0.606519 0.143479
H8    H     H_    0.623868 0.600846 0.879932 0.153362
H9    H     H_    0.218823 0.326799 0.599319 0.178797
H10   H     H_    0.229751 0.667918 0.386572 0.151687
H11   H     H_    0.093583 0.767434 0.325252 0.170622
H12   H     H_    0.932326 0.774274 0.327511 0.204798
N1    N     N_R   0.499150 0.498800 0.142780 -0.115979
N2    N     N_R   0.499120 0.498720 0.857170 -0.110336
O1    O     O_R   0.500000 0.316780 0.614690 -0.635754
O2    O     O_R   0.499990 0.316750 0.385360 -0.594225
O3    O     O_R   0.367850 0.499980 0.614680 -0.603530
O4    O     O_R   0.367840 0.499960 0.385350 -0.654676
O5    O     O_R   0.500010 0.683250 0.614640 -0.590989
O6    O     O_R   0.500000 0.683220 0.385310 -0.600769
O7    O     O_R   0.632160 0.500040 0.614650 -0.637837
O8    O     O_R   0.632150 0.500020 0.385320 -0.592792
Zn1   Zn    Zn3+2 0.500010 0.500020 0.653130 0.983606
Zn2   Zn    Zn3+2 0.499990 0.499980 0.346870 0.991709
Br1   Br    Br    0.754282 0.743109 0.367225 -0.530839
C39   C     C_1   0.571497 0.908371 0.993110 0.279253
N3    N     N_1   0.579549 0.866818 0.098473 -0.149247
Br2   Br    Br    0.404367 0.796975 0.824524 -0.452022
C40   C     C_1   0.198989 0.313146 0.147729 0.239740
N4    N     N_1   0.137594 0.276535 0.207908 -0.165336
C41   C     C_1   0.354787 0.281642 0.763126 0.285526
N5    N     N_1   0.353118 0.196350 0.688291 -0.171217
C42   C     C_1   0.894004 0.201603 0.678184 0.267275
N6    N     N_1   0.852827 0.120885 0.727268 -0.170124
Br3   Br    Br    0.096438 0.158676 0.690375 -0.504631
Br4   Br    Br    0.453552 0.115833 0.203799 -0.528629

loop_
_geom_bond_atom_site_label_1
_geom_bond_atom_site_label_2
_ccdc_geom_bond_type
O6    Zn2   S    
C23   O6    A    
C30   N1    A    
C31   H4    S    
C28   C41   S    
C25   H5    S    
C7    C8    A    
C17   Br2   S    
C29   C30   A    
C18   C24   A    
C26   C40   S    
C36   C37   A    
C34   C35   A    
N2    Zn1   S    
C5    C6    A    
C22   H3    S    
C15   C16   A    
O8    Zn2   S    
C18   C19   A    
C1    O1    A    
C32   N2    A    
C14   H1    S    
O1    Zn1   S    
C27   H6    S    
C19   C20   A    
C16   C17   A    
C23   C24   S    
C6    C38   A    
C2    C34   A    
C33   O7    A    
C21   C22   A    
N1    Zn2   S    
O7    Zn1   S    
C40   N4    T    
C8    C9    A    
O2    Zn2   S    
C25   C26   A    
C21   Br4   S    
C35   C36   A    
C3    C42   S    
C1    O2    A    
C37   C38   A    
C2    C38   A    
C31   C32   A    
C17   C18   A    
C26   C27   A    
C36   H7    S    
C4    Br3   S    
C12   O4    A    
C33   O8    A    
C22   C24   A    
C3    C4    A    
C10   H9    S    
C25   C30   A    
C23   O5    A    
C28   C29   A    
C1    C20   S    
C32   H8    S    
C14   C19   A    
C9    H12   S    
C31   N1    A    
C4    C5    A    
C13   H10   S    
C11   C12   S    
O5    Zn1   S    
C6    C7    A    
C39   N3    T    
C5    C10   A    
C11   C13   A    
O3    Zn1   S    
C34   Br1   S    
C33   C35   S    
O4    Zn2   S    
C41   N5    T    
C15   H2    S    
C12   O3    A    
C10   C11   A    
C7    C13   A    
C42   N6    T    
C20   C21   A    
C3    C37   A    
C27   C28   A    
C14   C15   A    
C16   C39   S    
C2    C9    A    
C8    H11   S    
C29   N2    A    
