data_mof_unit_8357.cif
_audit_creation_date              2012-12-11T14:49:45-0500
_audit_creation_method            fapswitch 2.2
_symmetry_space_group_name_H-M    P1
_symmetry_Int_Tables_number       1
_space_group_crystal_system       triclinic
_cell_length_a                    10.991266
_cell_length_b                    10.970694
_cell_length_c                    18.878766
_cell_angle_alpha                 89.959205
_cell_angle_beta                  89.941442
_cell_angle_gamma                 120.017797
_cell_volume                      1971.09466784

loop_
_atom_site_label
_atom_site_type_symbol
_atom_type_description
_atom_site_fract_x
_atom_site_fract_y
_atom_site_fract_z
_atom_type_partial_charge
C1    C     C_R   0.530863 0.462544 0.643637 0.552659
C2    C     C_R   0.470717 0.521316 0.350473 0.600146
C3    C     C_R   0.472948 0.939035 0.146125 0.575252
C4    C     C_R   0.118108 0.568808 0.361369 0.578846
C5    C     C_R   0.544930 0.166253 0.514717 -0.142067
C6    C     C_R   0.620786 0.604120 0.963715 -0.111250
C7    C     C_R   0.994987 0.393236 0.537345 -0.128159
C8    C     C_R   0.397093 0.013758 0.964221 -0.123567
C9    C     C_R   0.639130 0.563720 0.526829 -0.124511
C10   C     C_R   0.978067 0.378616 0.965107 -0.115952
C11   C     C_R   0.998476 0.390419 0.037553 -0.131053
C12   C     C_R   0.938829 0.472014 0.853764 0.600958
C13   C     C_R   0.632957 0.561663 0.452928 -0.102200
C14   C     C_R   0.388909 0.995684 0.036859 -0.134447
C15   C     C_R   0.028762 0.414821 0.466301 -0.113668
C16   C     C_R   0.607625 0.612362 0.036178 -0.130555
C17   C     C_R   0.524452 0.126449 0.443737 -0.090322
C18   C     C_R   0.490880 0.990128 0.425581 0.026590
C19   C     C_R   0.491247 0.505613 0.071573 0.010802
C20   C     C_R   0.077770 0.547480 0.436219 0.004261
C21   C     C_R   0.497889 0.993062 0.073419 0.002066
C22   C     C_R   0.504990 0.477966 0.419042 0.007428
C23   C     C_R   0.568808 0.120479 0.639026 0.534325
C24   C     C_R   0.006590 0.505183 0.073503 -0.003739
C25   C     C_R   0.992647 0.493584 0.926180 0.015305
C26   C     C_R   0.516670 0.483023 0.567423 0.000221
C27   C     C_R   0.501009 0.004812 0.925930 0.019150
C28   C     C_R   0.019165 0.506283 0.580888 0.034613
C29   C     C_R   0.505764 0.505413 0.924297 0.018928
C30   C     C_R   0.532938 0.070439 0.567310 0.013050
C31   C     C_R   0.482019 0.895717 0.478578 -0.024920
C32   C     C_R   0.380914 0.394657 0.031801 -0.007334
C33   C     C_R   0.094960 0.662096 0.478962 -0.004561
C34   C     C_R   0.527781 0.468174 0.853127 0.586059
C35   C     C_R   0.614683 0.003185 0.035237 -0.001680
C36   C     C_R   0.391494 0.370308 0.459026 0.018927
C37   C     C_R   0.000103 0.613452 0.034721 -0.001979
C38   C     C_R   0.021940 0.619095 0.961466 0.010423
C39   C     C_R   0.389089 0.388505 0.532423 0.048032
C40   C     C_R   0.600373 0.981042 0.962011 0.003612
C41   C     C_R   0.081309 0.645098 0.552802 0.034603
C42   C     C_R   0.378257 0.413470 0.958568 -0.046354
C43   C     C_R   0.499895 0.933029 0.549620 0.034373
C44   C     C_2   0.497220 0.776283 0.459244 0.596246
C45   C     C_R   0.943808 0.474475 0.648216 0.566021
C46   C     C_2   0.276511 0.259094 0.066031 0.578841
C47   C     C_2   0.107740 0.792340 0.447425 0.638011
C48   C     C_2   0.748413 0.036856 0.072141 0.616571
C49   C     C_2   0.276025 0.241900 0.423893 0.650961
C50   C     C_2   0.967086 0.714981 0.070730 0.615713
C51   C     C_2   0.077162 0.752594 0.920755 0.607432
C52   C     C_2   0.255485 0.307785 0.573009 0.645080
C53   C     C_2   0.686573 0.933938 0.922305 0.614174
C54   C     C_2   0.120343 0.769277 0.600239 0.629476
C55   C     C_2   0.245582 0.346273 0.916598 0.627249
C56   C     C_R   0.533017 0.060352 0.853605 0.593256
C57   C     C_2   0.501740 0.832582 0.602463 0.634186
C58   C     C_R   0.464813 0.527923 0.145329 0.573618
C59   C     C_R   0.473761 0.943542 0.352073 0.554649
C60   C     C_R   0.060997 0.534006 0.146108 0.581076
Cr1   Cr    Cr6+3 0.776430 0.541680 0.750000 1.085857
Cr2   Cr    Cr6+3 0.765250 0.223570 0.750000 1.095365
Cr3   Cr    Cr6+3 0.458320 0.234750 0.750000 1.092062
Cr4   Cr    Cr6+3 0.541680 0.776430 0.250000 1.069642
Cr5   Cr    Cr6+3 0.223570 0.765250 0.250000 1.091433
Cr6   Cr    Cr6+3 0.234750 0.458320 0.250000 1.078387
H1    H     H_    0.576662 0.273596 0.528521 0.087480
H2    H     H_    0.006694 0.325301 0.433700 0.184633
H3    H     H_    0.688675 0.700955 0.064449 0.208155
H4    H     H_    0.540616 0.202867 0.403187 0.148985
H5    H     H_    0.707670 0.903160 0.447762 0.313319
H6    H     H_    0.241501 0.115539 0.141999 0.348905
H7    H     H_    0.015196 0.878886 0.390202 0.341130
H8    H     H_    0.880542 0.141435 0.152735 0.339864
H9    H     H_    0.068088 0.113979 0.408179 0.328214
H10   H     H_    0.861195 0.744756 0.150016 0.341458
H11   H     H_    0.051216 0.911656 0.887015 0.339098
H12   H     H_    0.719716 0.676012 0.938500 0.211756
H13   H     H_    0.129381 0.313866 0.648891 0.343597
H14   H     H_    0.877703 0.976706 0.888929 0.365749
H15   H     H_    0.206596 0.866513 0.692687 0.356898
H16   H     H_    0.205162 0.148065 0.932038 0.315182
H17   H     H_    0.618137 0.772331 0.659166 0.353589
H18   H     H_    0.943982 0.286426 0.557522 0.161459
H19   H     H_    0.320682 0.031574 0.937668 0.160769
H20   H     H_    0.739538 0.629817 0.552156 0.179545
H21   H     H_    0.955411 0.281685 0.939253 0.233779
H22   H     H_    0.007855 0.310323 0.065503 0.219508
H23   H     H_    0.724369 0.634430 0.422669 0.208401
H24   H     H_    0.297441 0.983128 0.064313 0.205391
O1    O     O_R   0.916700 0.566820 0.669930 -0.495038
O2    O     O_R   0.566820 0.916700 0.330070 -0.510670
O3    O     O_R   0.083300 0.650120 0.169930 -0.481514
O4    O     O_R   0.349880 0.433180 0.330070 -0.493239
O5    O     O_R   0.649840 0.534790 0.674920 -0.516799
O6    O     O_R   0.884950 0.350160 0.825080 -0.490616
O7    O     O_R   0.465210 0.115050 0.674920 -0.480725
O8    O     O_R   0.649840 0.534790 0.825080 -0.494787
O9    O     O_R   0.884950 0.350160 0.674920 -0.527645
O10   O     O_R   0.465210 0.115050 0.825080 -0.504870
O11   O     O_R   0.534790 0.649840 0.174920 -0.517360
O12   O     O_R   0.650120 0.083300 0.830070 -0.482172
O13   O     O_R   0.350160 0.884950 0.325080 -0.474060
O14   O     O_R   0.115050 0.465210 0.174920 -0.509779
O15   O     O_R   0.534790 0.649840 0.325080 -0.450971
O16   O     O_R   0.350160 0.884950 0.174920 -0.510918
O17   O     O_R   0.115050 0.465210 0.325080 -0.499400
O18   O     O_3   0.666667 0.333333 0.750000 -0.318131
O19   O     O_3   0.333333 0.666667 0.250000 -0.302827
O20   O     O_2   0.395875 0.657715 0.460569 -0.505462
O21   O     O_R   0.631563 0.800750 0.443446 -0.660500
O22   O     O_2   0.151889 0.201388 0.051187 -0.482303
O23   O     O_R   0.433180 0.349880 0.669930 -0.479029
O24   O     O_R   0.322098 0.200982 0.118461 -0.677307
O25   O     O_2   0.210932 0.906745 0.458974 -0.457757
O26   O     O_R   0.995283 0.784184 0.409014 -0.684059
O27   O     O_2   0.809367 0.971997 0.059160 -0.451356
O28   O     O_R   0.797247 0.136184 0.126832 -0.689415
O29   O     O_2   0.305157 0.180560 0.378850 -0.505245
O30   O     O_R   0.135211 0.197066 0.438231 -0.673345
O31   O     O_2   0.031792 0.840517 0.056799 -0.465658
O32   O     O_R   0.866812 0.665900 0.125028 -0.685535
O33   O     O_2   0.176229 0.786367 0.880455 -0.498984
O34   O     O_R   0.916700 0.566820 0.830070 -0.483598
O35   O     O_R   0.007202 0.829311 0.921117 -0.657094
O36   O     O_2   0.189438 0.179110 0.571079 -0.425968
O37   O     O_R   0.215084 0.379775 0.619838 -0.636997
O38   O     O_2   0.627878 0.833751 0.882034 -0.501995
O39   O     O_R   0.833078 0.012955 0.923682 -0.621556
O40   O     O_2   0.082597 0.854233 0.586409 -0.445895
O41   O     O_R   0.190493 0.781727 0.663914 -0.607774
O42   O     O_2   0.217706 0.421569 0.880675 -0.453801
O43   O     O_R   0.160984 0.200594 0.910256 -0.629062
O44   O     O_2   0.391867 0.729962 0.621263 -0.424423
O45   O     O_R   0.650120 0.083300 0.669930 -0.465245
O46   O     O_R   0.630185 0.848123 0.624468 -0.654041
O47   O     O_R   0.433180 0.349880 0.830070 -0.497303
O48   O     O_R   0.566820 0.916700 0.169930 -0.486175
O49   O     O_R   0.083300 0.650120 0.330070 -0.477610
O50   O     O_R   0.349880 0.433180 0.169930 -0.478473

loop_
_geom_bond_atom_site_label_1
_geom_bond_atom_site_label_2
_ccdc_geom_bond_type
Cr2   O6    S    
C29   C42   A    
C51   O33   D    
C28   C41   A    
Cr1   O8    S    
C50   O32   S    
Cr6   O17   S    
C5    H1    S    
Cr4   O15   S    
Cr4   O48   S    
C47   O25   D    
C54   O41   S    
Cr3   O10   S    
H7    O26   S    
C31   C43   A    
Cr1   O34   S    
C14   C21   A    
C46   O22   D    
C9    H20   S    
C26   C39   A    
H15   O41   S    
C49   O30   S    
C5    C17   A    
C35   C48   S    
H6    O24   S    
C11   C24   A    
C8    H19   S    
Cr1   O18   S    
C9    C13   A    
C14   H24   S    
H5    O21   S    
C2    C22   S    
C45   O1    A    
C57   O46   S    
C27   C40   A    
C24   C60   S    
Cr6   O4    S    
C60   O3    A    
Cr5   O3    S    
C7    H18   S    
C17   H4    S    
C3    O16   A    
Cr3   O47   S    
C47   O26   S    
C50   O31   D    
C1    O23   A    
C54   O40   D    
C19   C32   A    
C52   O37   S    
C9    C26   A    
C24   C37   A    
C19   C58   S    
C32   C42   A    
C15   C20   A    
H8    O28   S    
C4    O17   A    
C10   H21   S    
C31   C44   S    
C46   O24   S    
C51   O35   S    
C23   C30   S    
Cr6   O14   S    
C2    O4    A    
C33   C41   A    
C45   O9    A    
C3    O48   A    
C28   C45   S    
C52   O36   D    
C27   C56   S    
C48   O28   S    
Cr4   O11   S    
C55   O43   S    
C29   C34   S    
C7    C28   A    
C56   O12   A    
C4    C20   S    
Cr2   O45   S    
C37   C38   A    
C53   O38   D    
C42   C55   S    
C12   O34   A    
C11   H22   S    
C1    O5    A    
C17   C18   A    
Cr6   O50   S    
C58   O11   A    
Cr5   O19   S    
H17   O46   S    
C21   C35   A    
C20   C33   A    
C10   C25   A    
C23   O7    A    
C40   C53   S    
C1    C26   S    
C33   C47   S    
C30   C43   A    
C3    C21   S    
C53   O39   S    
C56   O10   A    
C25   C38   A    
Cr5   O16   S    
H11   O35   S    
C5    C30   A    
C58   O50   A    
H13   O37   S    
C8    C14   A    
H14   O39   S    
C2    O15   A    
C13   H23   S    
C32   C46   S    
C36   C39   A    
H9    O30   S    
Cr1   O5    S    
C48   O27   D    
C38   C51   S    
C22   C36   A    
C16   H3    S    
C34   O47   A    
C23   O45   A    
C12   C25   S    
H10   O32   S    
H16   O43   S    
C35   C40   A    
C59   O13   A    
Cr3   O7    S    
C4    O49   A    
C37   C50   S    
Cr4   O19   S    
C49   O29   D    
C16   C19   A    
C15   H2    S    
C7    C15   A    
C34   O8    A    
C13   C22   A    
C39   C52   S    
C59   O2    A    
Cr6   O19   S    
C57   O44   D    
Cr5   O49   S    
C41   C54   S    
C6    H12   S    
C10   C11   A    
C43   C57   S    
C6    C16   A    
Cr2   O9    S    
Cr3   O23   S    
C44   O21   S    
C18   C59   S    
C6    C29   A    
Cr2   O18   S    
C55   O42   D    
C8    C27   A    
Cr5   O13   S    
C12   O6    A    
C18   C31   A    
Cr4   O2    S    
Cr3   O18   S    
C60   O14   A    
C36   C49   S    
Cr1   O1    S    
Cr2   O12   S    
C44   O20   D    
