data_mof_unit_9941.cif
_audit_creation_date              2012-12-11T16:15:06-0500
_audit_creation_method            fapswitch 2.2
_symmetry_space_group_name_H-M    P1
_symmetry_Int_Tables_number       1
_space_group_crystal_system       triclinic
_cell_length_a                    13.563124
_cell_length_b                    13.597197
_cell_length_c                    28.375012
_cell_angle_alpha                 90.432807
_cell_angle_beta                  90.227032
_cell_angle_gamma                 60.167882
_cell_volume                      4539.37031733

loop_
_atom_site_label
_atom_site_type_symbol
_atom_type_description
_atom_site_fract_x
_atom_site_fract_y
_atom_site_fract_z
_atom_type_partial_charge
C1    C     C_R   0.278064 0.621280 0.566059 0.538997
C2    C     C_1   0.641814 0.636363 0.656954 -0.047781
C3    C     C_1   0.628700 0.242873 0.613758 -0.026349
C4    C     C_R   0.620827 0.599568 0.567535 0.541759
C5    C     C_R   0.757137 0.166710 0.726964 -0.161816
C6    C     C_R   0.768243 0.154200 0.775735 -0.146863
C7    C     C_R   0.563796 0.243937 0.783487 -0.076515
C8    C     C_R   0.550439 0.258676 0.734468 0.273482
C9    C     C_R   0.649577 0.216226 0.705901 0.025652
C10   C     C_R   0.672233 0.189034 0.803957 -0.014441
C11   C     C_1   0.686797 0.153988 0.852479 -0.058165
C12   C     C_1   0.633894 0.625463 0.615251 -0.017459
C13   C     C_1   0.642644 0.226563 0.655471 -0.059064
C14   C     C_1   0.701572 0.114613 0.891538 -0.011024
C15   C     C_1   0.219986 0.642160 0.610212 -0.012559
C16   C     C_R   0.600310 0.280585 0.566291 0.541556
C17   C     C_R   0.124188 0.604514 0.722651 -0.167551
C18   C     C_R   0.117797 0.606925 0.771742 -0.159962
C19   C     C_R   0.165553 0.757129 0.774283 0.277303
C20   C     C_R   0.174481 0.752750 0.724745 0.278761
C21   C     C_R   0.155127 0.675040 0.699129 0.009134
C22   C     C_R   0.141221 0.680765 0.797775 0.001458
C23   C     C_3   0.706708 0.705362 0.764869 0.308493
C24   C     C_1   0.125537 0.687776 0.848081 -0.015793
C25   C     C_1   0.183183 0.657892 0.649779 -0.021390
C26   C     C_1   0.101867 0.701203 0.889366 0.000049
C27   C     C_1   0.636693 0.633045 0.388401 -0.008828
C28   C     C_R   0.276885 0.620922 0.434392 0.545512
C29   C     C_R   0.730923 0.570195 0.271745 -0.098857
C30   C     C_R   0.735966 0.577002 0.222666 0.282900
C31   C     C_R   0.582656 0.772848 0.226417 -0.164120
C32   C     C_R   0.579954 0.766043 0.275464 -0.113771
C33   C     C_R   0.654214 0.664570 0.298123 0.003928
C34   C     C_3   0.668369 0.647540 0.800735 0.026044
C35   C     C_R   0.659876 0.678434 0.199930 0.049051
C36   C     C_1   0.671362 0.690202 0.150353 -0.018092
C37   C     C_1   0.645687 0.652064 0.347819 -0.050077
C38   C     C_1   0.690286 0.701200 0.109979 -0.003347
C39   C     C_1   0.635349 0.223995 0.389309 -0.003225
C40   C     C_R   0.620446 0.600350 0.434136 0.545934
C41   C     C_R   0.573525 0.180366 0.275097 -0.157259
C42   C     C_R   0.576443 0.171035 0.225661 0.280851
C43   C     C_R   0.765691 0.150834 0.226723 -0.142499
C44   C     C_R   0.762562 0.159224 0.275819 0.270469
C45   C     C_3   0.764598 0.596622 0.734716 -0.133530
C46   C     C_R   0.666719 0.171959 0.299802 0.005275
C47   C     C_R   0.672620 0.158944 0.201973 0.012852
C48   C     C_1   0.683189 0.137770 0.152554 0.004290
C49   C     C_1   0.654954 0.193480 0.349179 -0.014015
C50   C     C_1   0.695212 0.108132 0.112263 0.011067
C51   C     C_1   0.227448 0.637394 0.389058 0.011728
C52   C     C_R   0.600701 0.276820 0.433993 0.544674
C53   C     C_R   0.216971 0.719660 0.272361 0.296673
C54   C     C_R   0.209884 0.717069 0.222827 -0.099186
C55   C     C_R   0.135196 0.588083 0.227973 -0.119171
C56   C     C_3   0.650617 0.640926 0.708163 0.017597
C57   C     C_R   0.143980 0.587848 0.276793 -0.162219
C58   C     C_R   0.183884 0.653677 0.298755 0.057749
C59   C     C_R   0.167744 0.652877 0.201184 0.007116
C60   C     C_1   0.141626 0.667567 0.152267 -0.051212
C61   C     C_1   0.200860 0.646321 0.348461 -0.001364
C62   C     C_1   0.108280 0.689790 0.112608 -0.008360
C63   C     C_R   0.720200 0.056085 0.935447 0.547800
C64   C     C_3   0.594418 0.748037 0.738987 0.286470
C65   C     C_R   0.729874 0.716181 0.933043 0.549415
C66   C     C_R   0.056790 0.729841 0.936144 0.542679
C67   C     C_3   0.726001 0.537421 0.771056 -0.136162
C68   C     C_R   0.714291 0.056532 0.067245 0.543444
C69   C     C_R   0.725281 0.717276 0.064691 0.540771
C70   C     C_R   0.054150 0.727444 0.068379 0.546788
C71   C     C_3   0.555229 0.689202 0.774476 -0.160213
C72   C     C_1   0.694942 0.690940 0.889452 0.005828
C73   C     C_3   0.414659 0.272164 0.679734 -0.002385
C74   C     C_3   0.291988 0.298810 0.683428 -0.382705
C75   C     C_3   0.086269 0.936699 0.803013 -0.004548
C76   C     C_3   0.110584 0.020224 0.829266 -0.366503
C77   C     C_3   0.307650 0.790789 0.694991 0.008892
C78   C     C_3   0.612525 0.579807 0.743431 -0.148378
C79   C     C_3   0.323602 0.863942 0.658958 -0.340596
C80   C     C_3   0.920874 0.469253 0.200979 -0.018003
C81   C     C_3   0.004158 0.366254 0.172377 -0.366687
C82   C     C_3   0.469594 0.931921 0.760804 -0.016192
C83   C     C_3   0.432559 0.052970 0.747915 -0.372632
C84   C     C_3   0.432871 0.124411 0.220388 -0.012724
C85   C     C_3   0.368439 0.098130 0.183018 -0.369227
C86   C     C_3   0.851841 0.254827 0.299316 -0.010726
C87   C     C_3   0.954300 0.244792 0.325623 -0.371306
C88   C     C_3   0.239698 0.879561 0.274277 -0.008567
C89   C     C_1   0.678706 0.667718 0.850434 -0.018994
C90   C     C_3   0.250236 0.956858 0.310492 -0.361702
C91   C     C_3   0.801078 0.796918 0.739694 -0.006130
C92   C     C_3   0.834844 0.883665 0.754073 -0.370535
Cr1   Cr    Cr6+3 0.413560 0.417690 0.499580 1.021289
Cr2   Cr    Cr6+3 0.418030 0.668340 0.500400 1.030647
Cr3   Cr    Cr6+3 0.668390 0.413960 0.499990 1.032770
Cr4   Cr    Cr6+3 0.919710 0.916540 0.003080 1.029305
Cr5   Cr    Cr6+3 0.665300 0.919470 0.999630 1.034585
Cr6   Cr    Cr6+3 0.916060 0.665490 0.000390 1.033827
H1    H     H_    0.104630 0.547877 0.703134 0.111923
H2    H     H_    0.278412 0.240210 0.660388 0.097479
H3    H     H_    0.093546 0.551780 0.789415 0.135293
H4    H     H_    0.020191 0.928335 0.822912 0.124413
H5    H     H_    0.052837 0.971989 0.767444 0.157728
H6    H     H_    0.175514 0.031234 0.809962 0.149903
H7    H     H_    0.031505 0.103673 0.832173 0.094862
H8    H     H_    0.142502 0.988405 0.865245 0.169421
H9    H     H_    0.353629 0.701338 0.682017 0.127643
H10   H     H_    0.345306 0.796385 0.728877 0.169757
H11   H     H_    0.285174 0.952546 0.672177 0.156018
H12   H     H_    0.119889 0.536367 0.297418 0.107615
H13   H     H_    0.415358 0.830612 0.652390 0.153025
H14   H     H_    0.282379 0.863110 0.625178 0.171140
H15   H     H_    0.786738 0.491192 0.289214 0.094976
H16   H     H_    0.950103 0.455200 0.238335 0.112552
H17   H     H_    0.922273 0.545008 0.187087 0.137659
H18   H     H_    0.978532 0.377899 0.134701 0.174738
H19   H     H_    0.090796 0.355120 0.175357 0.093310
H20   H     H_    0.005757 0.288950 0.185825 0.148628
H21   H     H_    0.525646 0.851945 0.209168 0.105774
H22   H     H_    0.519966 0.839413 0.295579 0.111449
H23   H     H_    0.778965 0.450636 0.785243 0.126139
H24   H     H_    0.498338 0.196405 0.294516 0.103337
H25   H     H_    0.522553 0.911949 0.793315 0.165243
H26   H     H_    0.392524 0.925933 0.768647 0.132892
H27   H     H_    0.381975 0.074842 0.714959 0.153908
H28   H     H_    0.379813 0.111234 0.776604 0.101622
H29   H     H_    0.508915 0.061744 0.742904 0.163270
H30   H     H_    0.370505 0.180891 0.247244 0.128105
H31   H     H_    0.495914 0.042789 0.236950 0.119512
H32   H     H_    0.428276 0.041297 0.155577 0.166681
H33   H     H_    0.325654 0.055390 0.199466 0.077968
H34   H     H_    0.832936 0.136065 0.705551 0.127136
H35   H     H_    0.303189 0.177793 0.166252 0.162548
H36   H     H_    0.841198 0.136831 0.208014 0.124015
H37   H     H_    0.773454 0.321742 0.316918 0.142659
H38   H     H_    0.855124 0.280793 0.262449 0.150242
H39   H     H_    0.033596 0.181852 0.307669 0.144892
H40   H     H_    0.951165 0.327943 0.326224 0.089799
H41   H     H_    0.954774 0.217448 0.362449 0.171838
H42   H     H_    0.151947 0.925862 0.259448 0.137221
H43   H     H_    0.303240 0.861091 0.245995 0.129532
H44   H     H_    0.334358 0.911992 0.328096 0.162637
H45   H     H_    0.471577 0.724272 0.792244 0.119722
H46   H     H_    0.241160 0.033624 0.292898 0.073953
H47   H     H_    0.182819 0.982888 0.337626 0.170929
H48   H     H_    0.235301 0.765476 0.200923 0.093274
H49   H     H_    0.101453 0.539331 0.211156 0.108434
H50   H     H_    0.573722 0.527326 0.733622 0.140096
H51   H     H_    0.849868 0.558606 0.718125 0.094071
H52   H     H_    0.738953 0.832970 0.710175 0.165031
H53   H     H_    0.878447 0.719140 0.727399 0.129577
H54   H     H_    0.897317 0.850524 0.783361 0.157198
H55   H     H_    0.873139 0.903532 0.723678 0.106199
H56   H     H_    0.470881 0.178454 0.678422 0.118091
H57   H     H_    0.757909 0.961817 0.766046 0.174152
H58   H     H_    0.852171 0.112121 0.791251 0.106165
H59   H     H_    0.489138 0.273025 0.805494 0.130972
H60   H     H_    0.421729 0.308346 0.645883 0.171338
H61   H     H_    0.270568 0.290286 0.720345 0.161401
H62   H     H_    0.234795 0.386178 0.671107 0.144380
O1    O     O_R   0.503010 0.303330 0.550820 -0.519938
O2    O     O_R   0.827060 0.642880 0.947470 -0.506900
O3    O     O_R   0.013800 0.673690 0.954100 -0.493662
O4    O     O_R   0.320040 0.522690 0.547470 -0.499375
O5    O     O_R   0.031250 0.825430 0.055080 -0.508506
O6    O     O_R   0.814180 0.011990 0.050320 -0.500135
O7    O     O_R   0.640680 0.032900 0.051920 -0.501643
O8    O     O_R   0.671090 0.815590 0.046300 -0.499592
O9    O     O_R   0.822940 0.642440 0.050310 -0.505180
O10   O     O_R   0.009970 0.673280 0.049430 -0.496470
O11   O     O_3   0.833690 0.833830 0.001040 -0.252302
O12   O     O_R   0.522480 0.657560 0.452870 -0.489006
O13   O     O_R   0.303930 0.694040 0.551750 -0.512755
O14   O     O_R   0.523510 0.657900 0.548240 -0.500856
O15   O     O_R   0.694770 0.503160 0.551780 -0.505892
O16   O     O_R   0.657990 0.319990 0.547370 -0.490270
O17   O     O_R   0.501900 0.302960 0.447930 -0.510137
O18   O     O_R   0.319020 0.522350 0.452090 -0.501156
O19   O     O_R   0.302820 0.693680 0.448870 -0.495216
O20   O     O_3   0.440114 0.324945 0.717365 -0.563110
O21   O     O_3   0.187493 0.831251 0.799721 -0.560604
O22   O     O_3   0.190362 0.832218 0.700975 -0.567547
O23   O     O_R   0.693670 0.502790 0.448900 -0.511261
O24   O     O_3   0.811029 0.482884 0.196685 -0.560512
O25   O     O_3   0.529184 0.859859 0.722461 -0.582555
O26   O     O_3   0.485739 0.179957 0.199035 -0.541605
O27   O     O_3   0.855204 0.149433 0.300408 -0.552663
O28   O     O_3   0.262606 0.777660 0.296492 -0.548658
O29   O     O_3   0.753795 0.772884 0.779058 -0.561138
O30   O     O_R   0.656970 0.319650 0.452000 -0.493112
O31   O     O_3   0.499990 0.499990 0.499990 -0.250348
O32   O     O_R   0.035380 0.825870 0.952240 -0.507385
O33   O     O_R   0.818010 0.012400 0.954990 -0.496980
O34   O     O_R   0.644810 0.033340 0.949080 -0.504523
O35   O     O_R   0.674910 0.816000 0.950960 -0.494578

loop_
_geom_bond_atom_site_label_1
_geom_bond_atom_site_label_2
_ccdc_geom_bond_type
C76   H6    S    
C7    C10   A    
C84   H30   S    
C76   H7    S    
C23   C45   S    
C55   C59   A    
C41   C42   A    
C82   H25   S    
C84   O26   S    
C19   C20   A    
C51   C61   T    
C40   O12   A    
C75   C76   S    
C2    C12   T    
Cr2   O19   S    
C19   O21   S    
Cr6   O3    S    
C7    C8    A    
C53   C54   A    
C91   O29   S    
C46   C49   S    
C1    O13   A    
C92   H54   S    
C79   H14   S    
C71   H45   S    
C53   O28   S    
C32   H22   S    
C90   H47   S    
C5    C6    A    
C28   C51   S    
C15   C25   T    
C29   C33   A    
C84   H31   S    
C56   C78   S    
C62   C70   S    
C60   C62   T    
C73   C74   S    
C64   C71   S    
C9    C13   S    
C52   O17   A    
C88   H42   S    
C21   C25   S    
Cr3   O30   S    
Cr2   O12   S    
Cr2   O31   S    
Cr6   O9    S    
C5    H34   S    
C74   H62   S    
C35   C36   S    
C45   C56   S    
C8    C9    A    
C4    O15   A    
C66   O32   A    
C65   O2    A    
C45   C67   S    
C75   H4    S    
C41   C46   A    
C56   C64   S    
C92   H55   S    
C1    C15   S    
C75   O21   S    
C4    C12   S    
C43   C47   A    
C45   H51   S    
C64   O25   S    
C3    C13   T    
C78   H50   S    
C54   H48   S    
C40   O23   A    
C16   O16   A    
C58   C61   S    
Cr1   O31   S    
C39   C52   S    
C38   C69   S    
C86   O27   S    
C4    O14   A    
C75   H5    S    
C73   O20   S    
C81   H18   S    
C69   O9    A    
C67   C78   S    
C87   H39   S    
C67   H23   S    
C82   H26   S    
Cr6   O2    S    
C44   C46   A    
C77   O22   S    
C54   C59   A    
C77   C79   S    
C79   H11   S    
C82   O25   S    
C26   C66   S    
C47   C48   S    
C77   H9    S    
C19   C22   A    
C84   C85   S    
C1    O4    A    
C83   H27   S    
C70   O5    A    
C83   H29   S    
C91   C92   S    
Cr1   O17   S    
C86   C87   S    
C74   H2    S    
Cr2   O13   S    
Cr1   O4    S    
Cr5   O7    S    
C73   H60   S    
Cr4   O11   S    
C33   C37   S    
C18   H3    S    
C41   H24   S    
C73   H56   S    
C43   H36   S    
Cr3   O16   S    
C5    C9    A    
C29   C30   A    
C85   H32   S    
C8    O20   S    
C55   H49   S    
C31   C32   A    
Cr3   O23   S    
C80   H17   S    
Cr1   O1    S    
C27   C40   S    
C53   C58   A    
C23   C34   S    
C63   O33   A    
C17   C18   A    
C63   O34   A    
C52   O30   A    
C17   H1    S    
C31   H21   S    
C90   H44   S    
Cr2   O14   S    
Cr6   O11   S    
C74   H61   S    
C81   H19   S    
C86   H38   S    
C23   C64   S    
C39   C49   T    
C80   H16   S    
C82   C83   S    
C55   C57   A    
C43   C44   A    
C22   C24   S    
C87   H40   S    
Cr5   O8    S    
C88   H43   S    
C23   O29   S    
C20   O22   S    
C29   H15   S    
Cr4   O33   S    
C76   H8    S    
C18   C22   A    
C30   O24   S    
C77   H10   S    
C24   C26   T    
Cr5   O34   S    
C87   H41   S    
C80   C81   S    
C90   H46   S    
C34   C67   S    
C6    C10   A    
C91   H52   S    
Cr1   O18   S    
C57   H12   S    
C7    H59   S    
Cr3   O31   S    
C16   O1    A    
C65   C72   S    
C30   C35   A    
Cr5   O11   S    
C79   H13   S    
C32   C33   A    
Cr5   O35   S    
C36   C38   T    
C88   C90   S    
C70   O10   A    
C34   C89   S    
C2    C56   S    
Cr3   O15   S    
C85   H33   S    
C91   H53   S    
C72   C89   T    
Cr4   O32   S    
C57   C58   A    
C28   O18   A    
C27   C37   T    
C14   C63   S    
C81   H20   S    
C31   C35   A    
C48   C50   T    
C11   C14   T    
C66   O3    A    
C92   H57   S    
Cr4   O6    S    
C42   C47   A    
C80   O24   S    
C28   O19   A    
C17   C21   A    
C69   O8    A    
C10   C11   S    
C44   O27   S    
C88   O28   S    
Cr6   O10   S    
C68   O7    A    
C86   H37   S    
C59   C60   S    
C20   C21   A    
C42   O26   S    
Cr4   O5    S    
C83   H28   S    
C50   C68   S    
C34   C71   S    
C71   C78   S    
C6    H58   S    
C3    C16   S    
C85   H35   S    
C65   O35   A    
C68   O6    A    
