data_mof_unit_16028.cif
_audit_creation_date              2012-12-10T17:19:11-0500
_audit_creation_method            fapswitch 2.2
_symmetry_space_group_name_H-M    P1
_symmetry_Int_Tables_number       1
_space_group_crystal_system       triclinic
_cell_length_a                    18.23757
_cell_length_b                    18.44381
_cell_length_c                    34.370876
_cell_angle_alpha                 89.976243
_cell_angle_beta                  89.985824
_cell_angle_gamma                 90.413073
_cell_volume                      11561.0392296

loop_
_atom_site_label
_atom_site_type_symbol
_atom_type_description
_atom_site_fract_x
_atom_site_fract_y
_atom_site_fract_z
_atom_type_partial_charge
C1    C     C_R   0.615964 0.935534 0.520175 -0.133762
C2    C     C_R   0.383739 0.063775 0.479821 -0.135319
C3    C     C_R   0.919903 0.604635 0.520117 -0.108316
C4    C     C_R   0.080192 0.394856 0.479866 -0.134171
C5    C     C_R   0.383764 0.063824 0.520173 -0.136260
C6    C     C_R   0.615976 0.935551 0.479823 -0.133445
C7    C     C_R   0.079980 0.394714 0.520176 -0.107023
C8    C     C_R   0.919787 0.604536 0.479822 -0.128665
C9    C     C_R   0.113687 0.431916 0.020123 -0.131154
C10   C     C_R   0.886062 0.567923 0.979802 -0.134071
C11   C     C_R   0.422013 0.106695 0.020171 -0.105914
C12   C     C_R   0.577746 0.893569 0.979914 -0.127656
C13   C     C_R   0.886198 0.568133 0.020149 -0.134514
C14   C     C_R   0.113942 0.432347 0.979784 -0.137944
C15   C     C_R   0.577205 0.893198 0.020223 -0.111593
C16   C     C_R   0.421666 0.106440 0.979859 -0.135078
C17   C     C_R   0.264284 0.790278 0.715578 0.068737
C18   C     C_R   0.736296 0.209100 0.284345 0.068263
C19   C     C_R   0.264321 0.313730 0.728110 0.066229
C20   C     C_R   0.745448 0.695652 0.278843 0.061807
C21   C     C_R   0.736413 0.209179 0.715711 0.076849
C22   C     C_R   0.264205 0.790271 0.284544 0.071079
C23   C     C_R   0.746356 0.696113 0.720768 0.059368
C24   C     C_R   0.261997 0.311565 0.273644 0.066075
C25   C     C_R   0.321055 0.268096 0.262231 0.068875
C26   C     C_R   0.683489 0.735735 0.730544 0.106791
C27   C     C_R   0.210499 0.735258 0.284841 0.060258
C28   C     C_R   0.790676 0.263669 0.715459 0.110236
C29   C     C_R   0.682414 0.734753 0.268754 0.074276
C30   C     C_R   0.322974 0.268964 0.738865 0.103165
C31   C     C_R   0.790150 0.263971 0.284734 0.062509
C32   C     C_R   0.210128 0.735689 0.715272 0.102484
C33   C     C_R   0.763502 0.291064 0.215764 0.076840
C34   C     C_R   0.235519 0.709737 0.784480 0.068255
C35   C     C_R   0.753044 0.803453 0.220439 0.059293
C36   C     C_R   0.237968 0.188381 0.773638 0.065862
C37   C     C_R   0.236401 0.709716 0.215560 0.063915
C38   C     C_R   0.763726 0.290834 0.784344 0.068284
C39   C     C_R   0.235763 0.186356 0.228053 0.066208
C40   C     C_R   0.754358 0.804233 0.778938 0.062154
C41   C     C_R   0.817348 0.765114 0.768805 0.074248
C42   C     C_R   0.177071 0.231063 0.238817 0.103487
C43   C     C_R   0.709919 0.235920 0.784744 0.062572
C44   C     C_R   0.290499 0.764361 0.215474 0.078680
C45   C     C_R   0.178940 0.231895 0.762231 0.068514
C46   C     C_R   0.816022 0.763964 0.230167 0.106559
C47   C     C_R   0.289167 0.764796 0.784942 0.058388
C48   C     C_R   0.709327 0.236489 0.215476 0.110225
C49   C     C_R   0.303584 0.804350 0.750362 -0.120511
C50   C     C_R   0.696320 0.195682 0.249738 -0.106610
C51   C     C_R   0.192960 0.298981 0.743622 -0.162726
C52   C     C_R   0.810018 0.704093 0.256014 -0.171898
C53   C     C_R   0.696322 0.195730 0.750320 -0.111775
C54   C     C_R   0.303712 0.804446 0.249883 -0.111067
C55   C     C_R   0.810847 0.704609 0.743497 -0.175891
C56   C     C_R   0.191429 0.298037 0.257217 -0.162568
C57   C     C_R   0.307082 0.201056 0.243597 -0.162417
C58   C     C_R   0.689741 0.795791 0.756193 -0.171771
C59   C     C_R   0.196513 0.695672 0.250224 -0.118747
C60   C     C_R   0.803719 0.304314 0.749742 -0.106675
C61   C     C_R   0.688816 0.795178 0.243373 -0.175296
C62   C     C_R   0.308562 0.201943 0.757226 -0.162341
C63   C     C_R   0.803669 0.304315 0.250343 -0.111572
C64   C     C_R   0.196331 0.695628 0.749703 -0.111172
C65   C     C_R   0.441505 0.032211 0.582013 0.200649
C66   C     C_R   0.558394 0.967456 0.417981 0.201874
C67   C     C_R   0.040053 0.446635 0.581943 0.204277
C68   C     C_R   0.959932 0.552840 0.418085 0.182978
C69   C     C_R   0.558357 0.967409 0.582017 0.201466
C70   C     C_R   0.441425 0.032050 0.417983 0.200755
C71   C     C_R   0.960311 0.553159 0.581878 0.216206
C72   C     C_R   0.040776 0.447098 0.418072 0.174594
C73   C     C_R   0.942758 0.534496 0.081986 0.200476
C74   C     C_R   0.057676 0.466437 0.917971 0.201185
C75   C     C_R   0.537491 0.945301 0.081956 0.212958
C76   C     C_R   0.459799 0.053245 0.918079 0.174466
C77   C     C_R   0.056862 0.465037 0.081963 0.199547
C78   C     C_R   0.942351 0.533861 0.917971 0.201330
C79   C     C_R   0.460923 0.054046 0.081957 0.204727
C80   C     C_R   0.539280 0.946501 0.918124 0.183006
C81   C     C_R   0.499996 0.999940 0.602076 -0.141737
C82   C     C_R   0.499971 0.999872 0.397922 -0.142435
C83   C     C_R   0.000105 0.499891 0.601982 -0.164869
C84   C     C_R   0.000173 0.499883 0.398010 -0.162000
C85   C     C_R   0.999910 0.499914 0.102053 -0.157590
C86   C     C_R   0.999967 0.500053 0.897911 -0.142209
C87   C     C_R   0.499638 0.999925 0.102010 -0.151571
C88   C     C_R   0.499772 0.000002 0.898029 -0.161265
C89   C     C_R   0.558484 0.967285 0.541117 0.059356
C90   C     C_R   0.441276 0.032126 0.458881 0.058884
C91   C     C_R   0.959719 0.552818 0.541041 0.059302
C92   C     C_R   0.040641 0.446865 0.458929 0.042485
C93   C     C_R   0.441315 0.032204 0.541114 0.059065
C94   C     C_R   0.558497 0.967299 0.458881 0.058304
C95   C     C_R   0.040315 0.446653 0.541084 0.058851
C96   C     C_R   0.959566 0.552681 0.458921 0.039937
C97   C     C_R   0.057228 0.465383 0.041073 0.048151
C98   C     C_R   0.942410 0.534271 0.958863 0.057448
C99   C     C_R   0.460568 0.053953 0.041099 0.059881
C100  C     C_R   0.539278 0.946380 0.958975 0.039665
C101  C     C_R   0.942578 0.534519 0.041089 0.057713
C102  C     C_R   0.057606 0.466025 0.958858 0.056641
C103  C     C_R   0.538470 0.945829 0.041113 0.060783
C104  C     C_R   0.460111 0.053611 0.958940 0.042022
C105  C     C_R   0.000024 0.499961 0.644259 0.919459
C106  C     C_R   0.000030 0.499916 0.355739 0.948424
C107  C     C_R   0.500017 0.999998 0.644387 0.948742
C108  C     C_R   0.500015 0.999973 0.355612 0.942507
C109  C     C_R   0.499942 0.000037 0.144270 0.923754
C110  C     C_R   0.499956 0.000040 0.855745 0.948727
C111  C     C_R   0.999984 0.499991 0.144378 0.948613
C112  C     C_R   0.999964 0.500002 0.855609 0.942576
C113  C     C_R   0.863156 0.643352 0.747309 0.824536
C114  C     C_R   0.137896 0.357659 0.252475 0.836833
C115  C     C_R   0.360307 0.860025 0.750331 0.781522
C116  C     C_R   0.639737 0.139901 0.249739 0.775096
C117  C     C_R   0.138310 0.357853 0.747734 0.827989
C118  C     C_R   0.862920 0.643249 0.252575 0.835880
C119  C     C_R   0.639698 0.139966 0.750296 0.780156
C120  C     C_R   0.360109 0.860313 0.249909 0.772058
C121  C     C_R   0.860312 0.360042 0.250312 0.779465
C122  C     C_R   0.139708 0.639913 0.749710 0.774686
C123  C     C_R   0.361710 0.142154 0.247724 0.826208
C124  C     C_R   0.637012 0.856739 0.752618 0.834873
C125  C     C_R   0.139905 0.639819 0.250156 0.781912
C126  C     C_R   0.860279 0.360096 0.749744 0.775210
C127  C     C_R   0.636746 0.856591 0.247272 0.827118
C128  C     C_R   0.362093 0.142337 0.752472 0.835765
C129  C     C_R   0.170008 0.723100 0.680609 -0.226377
C130  C     C_R   0.829920 0.276817 0.319499 -0.204373
C131  C     C_R   0.395478 0.293266 0.732029 -0.204560
C132  C     C_R   0.614334 0.712015 0.284361 -0.170820
C133  C     C_R   0.831647 0.275612 0.681005 -0.224974
C134  C     C_R   0.171377 0.721573 0.319756 -0.199159
C135  C     C_R   0.615496 0.712921 0.714873 -0.200539
C136  C     C_R   0.393168 0.292810 0.269865 -0.173504
C137  C     C_R   0.275758 0.365790 0.301951 -0.160159
C138  C     C_R   0.743209 0.650746 0.687637 -0.142431
C139  C     C_R   0.276149 0.831412 0.318762 -0.185382
C140  C     C_R   0.724740 0.167720 0.681550 -0.174972
C141  C     C_R   0.741928 0.650161 0.311984 -0.157056
C142  C     C_R   0.279482 0.370294 0.701246 -0.152256
C143  C     C_R   0.724750 0.167321 0.318401 -0.187075
C144  C     C_R   0.276608 0.831249 0.681281 -0.170114
C145  C     C_R   0.668385 0.224676 0.181017 -0.225848
C146  C     C_R   0.327820 0.778552 0.819975 -0.198878
C147  C     C_R   0.883843 0.786806 0.214263 -0.200063
C148  C     C_R   0.106808 0.207178 0.769847 -0.173470
C149  C     C_R   0.332037 0.776320 0.181230 -0.158892
C150  C     C_R   0.670272 0.222910 0.819550 -0.204541
C151  C     C_R   0.104591 0.206734 0.231955 -0.204105
C152  C     C_R   0.885468 0.787916 0.784314 -0.171266
C153  C     C_R   0.757940 0.849747 0.812043 -0.156755
C154  C     C_R   0.220688 0.129889 0.201150 -0.151479
C155  C     C_R   0.775194 0.332635 0.818377 -0.187220
C156  C     C_R   0.224263 0.669307 0.181058 -0.156796
C157  C     C_R   0.224152 0.134079 0.801923 -0.160511
C158  C     C_R   0.755772 0.848515 0.187165 -0.142255
C159  C     C_R   0.223421 0.668393 0.818642 -0.183519
C160  C     C_R   0.775016 0.332838 0.181679 -0.175130
C161  C     C_R   0.184331 0.762028 0.646393 -0.160580
C162  C     C_R   0.815222 0.238154 0.353809 -0.065577
C163  C     C_R   0.410441 0.354058 0.708995 -0.162284
C164  C     C_R   0.609977 0.663533 0.315656 -0.060456
C165  C     C_R   0.818163 0.236042 0.646928 -0.160567
C166  C     C_R   0.186761 0.759374 0.354249 -0.065591
C167  C     C_R   0.611298 0.663528 0.684014 -0.162056
C168  C     C_R   0.407132 0.350490 0.295340 -0.060508
C169  C     C_R   0.347268 0.386122 0.312715 -0.085595
C170  C     C_R   0.676821 0.634918 0.668720 -0.047380
C171  C     C_R   0.238584 0.816577 0.353439 -0.067895
C172  C     C_R   0.764312 0.180761 0.647249 -0.033228
C173  C     C_R   0.675156 0.633103 0.330266 -0.075644
C174  C     C_R   0.351509 0.390825 0.691500 -0.068639
C175  C     C_R   0.763092 0.181212 0.352949 -0.067524
C176  C     C_R   0.238009 0.817456 0.646775 -0.031378
C177  C     C_R   0.681745 0.264559 0.147004 -0.160349
C178  C     C_R   0.312180 0.740607 0.854411 -0.065263
C179  C     C_R   0.887679 0.836027 0.183279 -0.161615
C180  C     C_R   0.092792 0.149436 0.795302 -0.060185
C181  C     C_R   0.319212 0.736826 0.147111 -0.164889
C182  C     C_R   0.684992 0.261532 0.853855 -0.065371
C183  C     C_R   0.089706 0.145982 0.208899 -0.161932
C184  C     C_R   0.889890 0.836361 0.815603 -0.059606
C185  C     C_R   0.824741 0.866773 0.830272 -0.075730
C186  C     C_R   0.148694 0.109322 0.191391 -0.069298
C187  C     C_R   0.736904 0.318666 0.852943 -0.067619
C188  C     C_R   0.263194 0.683694 0.146627 -0.071468
C189  C     C_R   0.152621 0.113741 0.812672 -0.085534
C190  C     C_R   0.821966 0.864313 0.168034 -0.047049
C191  C     C_R   0.260613 0.683190 0.853422 -0.067027
C192  C     C_R   0.735394 0.320031 0.147391 -0.033660
C193  C     C_R   0.499904 0.999748 0.520598 0.018236
C194  C     C_R   0.499897 0.999731 0.479399 0.018145
C195  C     C_R   0.999957 0.499678 0.520571 0.013630
C196  C     C_R   0.999990 0.499688 0.479414 0.024061
C197  C     C_R   0.999958 0.500052 0.020569 0.015132
C198  C     C_R   0.999995 0.500125 0.979375 0.018452
C199  C     C_R   0.499714 0.000027 0.020609 0.015633
C200  C     C_R   0.499782 0.000066 0.979448 0.023653
H1    H     H_    0.127802 0.681732 0.679408 0.146197
H2    H     H_    0.871884 0.318410 0.320699 0.181902
H3    H     H_    0.441000 0.266730 0.746218 0.154880
H4    H     H_    0.563550 0.731869 0.272296 0.189222
H5    H     H_    0.873884 0.316971 0.679866 0.144351
H6    H     H_    0.129429 0.679984 0.320952 0.184122
H7    H     H_    0.564714 0.730791 0.727858 0.167002
H8    H     H_    0.439545 0.266663 0.256289 0.174884
H9    H     H_    0.231464 0.390986 0.317549 0.226262
H10   H     H_    0.793032 0.631027 0.674547 0.217371
H11   H     H_    0.313773 0.877009 0.318770 0.168636
H12   H     H_    0.685922 0.123137 0.681348 0.167219
H13   H     H_    0.791275 0.628860 0.324801 0.223624
H14   H     H_    0.236214 0.395482 0.684876 0.219734
H15   H     H_    0.686890 0.121914 0.318354 0.169200
H16   H     H_    0.315154 0.876053 0.681102 0.167125
H17   H     H_    0.626245 0.183225 0.179829 0.144346
H18   H     H_    0.369591 0.820299 0.821299 0.184343
H19   H     H_    0.934775 0.769204 0.227179 0.167628
H20   H     H_    0.060458 0.233372 0.756273 0.174828
H21   H     H_    0.376643 0.815284 0.180784 0.154121
H22   H     H_    0.628395 0.181236 0.820788 0.182289
H23   H     H_    0.059033 0.233195 0.246151 0.154499
H24   H     H_    0.936230 0.768121 0.772192 0.188488
H25   H     H_    0.708601 0.871065 0.824875 0.223382
H26   H     H_    0.264013 0.104802 0.184775 0.219666
H27   H     H_    0.812933 0.378140 0.818287 0.169045
H28   H     H_    0.183551 0.626482 0.180250 0.174825
H29   H     H_    0.268414 0.108826 0.817519 0.226237
H30   H     H_    0.705739 0.868062 0.174193 0.215974
H31   H     H_    0.186050 0.622600 0.818516 0.168901
H32   H     H_    0.813722 0.377518 0.181547 0.166985
H33   H     H_    0.661755 0.910081 0.534543 0.203124
H34   H     H_    0.337915 0.089168 0.465452 0.203277
H35   H     H_    0.887979 0.645920 0.534422 0.206574
H36   H     H_    0.112039 0.353515 0.465562 0.207925
H37   H     H_    0.337954 0.089247 0.534539 0.203137
H38   H     H_    0.661773 0.910107 0.465455 0.203377
H39   H     H_    0.111718 0.353311 0.534510 0.206523
H40   H     H_    0.887788 0.645755 0.465502 0.211237
H41   H     H_    0.158547 0.404857 0.034462 0.206032
H42   H     H_    0.841134 0.594835 0.965439 0.203787
H43   H     H_    0.391249 0.148814 0.034495 0.206942
H44   H     H_    0.608920 0.851727 0.965609 0.210912
H45   H     H_    0.841353 0.595186 0.034507 0.203533
H46   H     H_    0.158913 0.405513 0.965416 0.204331
H47   H     H_    0.608082 0.851189 0.034588 0.205479
H48   H     H_    0.390692 0.148417 0.965537 0.208005
O1    O     O_3   1.000000 0.500000 0.750000 -0.520088
O2    O     O_3   1.000000 0.500000 0.250000 -0.511302
O3    O     O_3   0.500000 0.000000 0.750000 -0.511872
O4    O     O_3   0.500000 0.000000 0.250000 -0.521236
O5    O     O_R   0.060740 0.500000 0.662560 -0.612572
O6    O     O_R   0.939260 0.500000 0.337440 -0.615158
O7    O     O_R   0.500000 0.060740 0.662560 -0.605885
O8    O     O_R   0.500000 0.939260 0.337440 -0.604202
O9    O     O_R   0.939260 0.500000 0.662560 -0.608358
O10   O     O_R   0.060740 0.500000 0.337440 -0.610356
O11   O     O_R   0.500000 0.939260 0.662560 -0.610046
O12   O     O_R   0.500000 0.060740 0.337440 -0.603491
O13   O     O_R   0.560740 0.000000 0.162560 -0.612934
O14   O     O_R   0.439260 0.000000 0.837440 -0.610331
O15   O     O_R   1.000000 0.560740 0.162560 -0.617952
O16   O     O_R   1.000000 0.439260 0.837440 -0.603286
O17   O     O_R   0.439260 0.000000 0.162560 -0.603687
O18   O     O_R   0.560740 0.000000 0.837440 -0.615245
O19   O     O_R   0.000000 0.439260 0.162560 -0.602506
O20   O     O_R   1.000000 0.560740 0.837440 -0.603602
O21   O     O_R   0.853850 0.585450 0.727070 -0.633036
O22   O     O_R   0.146150 0.414550 0.272930 -0.648103
O23   O     O_R   0.414550 0.853850 0.727070 -0.640282
O24   O     O_R   0.585450 0.146150 0.272930 -0.636277
O25   O     O_R   0.146150 0.414550 0.727070 -0.642668
O26   O     O_R   0.853850 0.585450 0.272930 -0.642778
O27   O     O_R   0.585450 0.146150 0.727070 -0.644913
O28   O     O_R   0.414550 0.853850 0.272930 -0.635375
O29   O     O_R   0.853850 0.414550 0.272930 -0.635935
O30   O     O_R   0.146150 0.585450 0.727070 -0.622348
O31   O     O_R   0.414550 0.146150 0.272930 -0.626685
O32   O     O_R   0.585450 0.853850 0.727070 -0.640292
O33   O     O_R   0.146150 0.585450 0.272930 -0.635105
O34   O     O_R   0.853850 0.414550 0.727070 -0.622043
O35   O     O_R   0.585450 0.853850 0.272930 -0.633769
O36   O     O_R   0.414550 0.146150 0.727070 -0.630864
O37   O     O_R   0.353850 0.085450 0.227070 -0.643552
O38   O     O_R   0.646150 0.914550 0.772930 -0.642850
O39   O     O_R   0.914550 0.353850 0.227070 -0.644897
O40   O     O_R   0.085450 0.646150 0.772930 -0.634977
O41   O     O_R   0.646150 0.914550 0.227070 -0.633008
O42   O     O_R   0.353850 0.085450 0.772930 -0.648374
O43   O     O_R   0.085450 0.646150 0.227070 -0.644776
O44   O     O_R   0.914550 0.353850 0.772930 -0.636238
O45   O     O_R   0.353850 0.914550 0.772930 -0.636981
O46   O     O_R   0.646150 0.085450 0.227070 -0.622617
O47   O     O_R   0.914550 0.646150 0.772930 -0.633401
O48   O     O_R   0.085450 0.353850 0.227070 -0.630217
O49   O     O_R   0.646150 0.085450 0.772930 -0.635785
O50   O     O_R   0.353850 0.914550 0.227070 -0.618239
O51   O     O_R   0.085450 0.353850 0.772930 -0.626235
O52   O     O_R   0.914550 0.646150 0.227070 -0.639608
Zn1   Zn    Zn3+2 1.000000 0.586740 0.782740 1.026268
Zn2   Zn    Zn3+2 1.000000 0.413260 0.217260 1.021632
Zn3   Zn    Zn3+2 0.413260 0.000000 0.782740 1.020703
Zn4   Zn    Zn3+2 0.586740 0.000000 0.217260 1.028113
Zn5   Zn    Zn3+2 1.000000 0.413260 0.782740 1.029622
Zn6   Zn    Zn3+2 0.000000 0.586740 0.217260 1.009207
Zn7   Zn    Zn3+2 0.586740 0.000000 0.782740 1.018852
Zn8   Zn    Zn3+2 0.413260 0.000000 0.217260 1.030963
Zn9   Zn    Zn3+2 0.500000 0.086740 0.282740 1.028583
Zn10  Zn    Zn3+2 0.500000 0.913260 0.717260 1.013747
Zn11  Zn    Zn3+2 0.913260 0.500000 0.282740 1.019130
Zn12  Zn    Zn3+2 0.086740 0.500000 0.717260 1.021553
Zn13  Zn    Zn3+2 0.500000 0.913260 0.282740 1.027494
Zn14  Zn    Zn3+2 0.500000 0.086740 0.717260 1.019180
Zn15  Zn    Zn3+2 0.086740 0.500000 0.282740 1.022723
Zn16  Zn    Zn3+2 0.913260 0.500000 0.717260 1.027674
C201  C     C_2   0.246724 0.635049 0.887341 0.982891
O53   O     O_2   0.184922 0.611381 0.893378 -0.603961
O54   O     O_R   0.304548 0.614542 0.911586 -0.747778
H49   H     H_    0.288061 0.581057 0.933348 0.366922
C202  C     C_2   0.749317 0.367819 0.113259 0.967701
O55   O     O_2   0.810715 0.392926 0.107717 -0.598273
O56   O     O_R   0.692126 0.386035 0.088070 -0.756344
H50   H     H_    0.708692 0.419355 0.066251 0.369026
C203  C     C_2   0.143086 0.052452 0.840297 0.984284
O57   O     O_2   0.186899 0.044165 0.866851 -0.579501
O58   O     O_R   0.085877 0.002536 0.835239 -0.736205
H51   H     H_    0.085747 0.963399 0.855934 0.368236
C204  C     C_2   0.820035 0.908724 0.131924 0.986482
O59   O     O_2   0.771946 0.953883 0.127446 -0.572260
O60   O     O_R   0.871523 0.897489 0.102417 -0.759589
H52   H     H_    0.863898 0.930675 0.079267 0.369877
C205  C     C_2   0.750055 0.367360 0.886687 0.986951
O61   O     O_2   0.811805 0.390787 0.893097 -0.601590
O62   O     O_R   0.691631 0.388656 0.910324 -0.746865
H53   H     H_    0.707656 0.422464 0.932020 0.367869
C206  C     C_2   0.241664 0.644552 0.110479 0.912461
O63   O     O_2   0.214092 0.584037 0.112539 -0.596776
O64   O     O_R   0.250579 0.677492 0.074111 -0.743748
H54   H     H_    0.233225 0.645471 0.051926 0.368564
C207  C     C_2   0.824649 0.920457 0.862477 0.991490
O65   O     O_2   0.773359 0.921989 0.885388 -0.572449
O66   O     O_R   0.881647 0.971182 0.865816 -0.764400
H55   H     H_    0.874883 0.005113 0.888717 0.362277
C208  C     C_2   0.137297 0.051439 0.161848 0.985053
O67   O     O_2   0.182492 0.003197 0.158249 -0.573002
O68   O     O_R   0.076271 0.053153 0.137246 -0.733713
H56   H     H_    0.075412 0.011396 0.118072 0.387739
C209  C     C_2   0.012319 0.121157 0.204895 1.030476
O69   O     O_2   0.997499 0.056744 0.207825 -0.511843
O70   O     O_R   0.955317 0.170273 0.198863 -0.742952
H57   H     H_    0.973085 0.221752 0.194356 0.326355
C210  C     C_2   0.962394 0.847632 0.834364 1.002643
O71   O     O_2   0.018023 0.849627 0.814486 -0.605776
O72   O     O_R   0.967678 0.851878 0.874892 -0.752307
H58   H     H_    0.020178 0.856969 0.884229 0.354888
C211  C     C_2   0.367994 0.750702 0.113215 1.045580
O73   O     O_2   0.380972 0.813044 0.103239 -0.534430
O74   O     O_R   0.401642 0.693971 0.093165 -0.709687
H59   H     H_    0.392904 0.644946 0.105701 0.307119
C212  C     C_2   0.647809 0.237804 0.890244 0.984119
O75   O     O_2   0.679221 0.242735 0.921574 -0.561802
O76   O     O_R   0.577779 0.206662 0.888493 -0.783934
H60   H     H_    0.558858 0.191627 0.915061 0.366956
C213  C     C_2   0.961206 0.858340 0.168616 1.035100
O77   O     O_2   0.973406 0.921921 0.160999 -0.493774
O78   O     O_R   0.017818 0.808210 0.164124 -0.738921
H61   H     H_    0.001609 0.756209 0.168554 0.325753
C214  C     C_2   0.015350 0.133310 0.805663 0.996150
O79   O     O_2   0.967711 0.136072 0.780665 -0.618334
O80   O     O_R   0.996136 0.118515 0.844256 -0.744357
H62   H     H_    0.941476 0.110403 0.847656 0.369019
C215  C     C_2   0.641259 0.243954 0.111102 1.035863
O81   O     O_2   0.674581 0.236129 0.080593 -0.508367
O82   O     O_R   0.565571 0.231455 0.111617 -0.731024
H63   H     H_    0.542140 0.243129 0.137574 0.312819
C216  C     C_2   0.347994 0.765327 0.890978 0.989359
O83   O     O_2   0.315624 0.760714 0.922057 -0.562904
O84   O     O_R   0.417785 0.797061 0.889659 -0.783222
H64   H     H_    0.435699 0.812779 0.916298 0.366591
C217  C     C_2   0.749698 0.132674 0.386745 0.987846
O85   O     O_2   0.687744 0.109953 0.393337 -0.601179
O86   O     O_R   0.808077 0.110769 0.410243 -0.746828
H65   H     H_    0.791863 0.077141 0.431999 0.367531
C218  C     C_2   0.253049 0.864165 0.612357 0.969907
O87   O     O_2   0.314791 0.888534 0.606966 -0.596341
O88   O     O_R   0.196544 0.882157 0.586689 -0.756996
H66   H     H_    0.213855 0.914718 0.564702 0.368737
C219  C     C_2   0.675292 0.579356 0.362462 0.992051
O89   O     O_2   0.726541 0.577868 0.385386 -0.572218
O90   O     O_R   0.618371 0.528533 0.365783 -0.764470
H67   H     H_    0.625152 0.494568 0.388681 0.362268
C220  C     C_2   0.363004 0.448755 0.661969 0.985495
O91   O     O_2   0.317901 0.497090 0.658397 -0.577841
O92   O     O_R   0.424013 0.446973 0.637342 -0.734029
H68   H     H_    0.424927 0.488748 0.618161 0.387586
C221  C     C_2   0.252415 0.864428 0.387449 0.986383
O93   O     O_2   0.314341 0.887500 0.393743 -0.600995
O94   O     O_R   0.194438 0.885311 0.411501 -0.747647
H69   H     H_    0.210910 0.918554 0.433353 0.367497
C222  C     C_2   0.750064 0.133451 0.613004 0.969438
O95   O     O_2   0.688386 0.109217 0.607279 -0.598448
O96   O     O_R   0.807225 0.114743 0.587896 -0.755584
H70   H     H_    0.790415 0.081820 0.565975 0.368865
C223  C     C_2   0.356747 0.447345 0.340357 0.984550
O97   O     O_2   0.312893 0.455554 0.366908 -0.579213
O98   O     O_R   0.413950 0.497290 0.335321 -0.736284
H71   H     H_    0.414037 0.536379 0.356025 0.368349
C224  C     C_2   0.678360 0.590137 0.632760 0.988919
O99   O     O_2   0.726033 0.544506 0.628427 -0.569539
O100  O     O_R   0.626968 0.601525 0.603232 -0.758821
H72   H     H_    0.634289 0.568037 0.580192 0.370079
C225  C     C_2   0.537607 0.641464 0.669501 1.034170
O101  O     O_2   0.525131 0.577927 0.661944 -0.493971
O102  O     O_R   0.481152 0.691790 0.665072 -0.735001
H73   H     H_    0.497573 0.743746 0.669407 0.328231
C226  C     C_2   0.484554 0.366611 0.305717 0.995950
O103  O     O_2   0.532230 0.363928 0.280724 -0.618632
O104  O     O_R   0.503709 0.381306 0.344317 -0.744417
H74   H     H_    0.558362 0.389418 0.347728 0.369076
C227  C     C_2   0.858648 0.256866 0.611028 1.036033
O105  O     O_2   0.825345 0.264645 0.580516 -0.508545
O106  O     O_R   0.934293 0.269700 0.611551 -0.730958
H75   H     H_    0.957790 0.257977 0.637483 0.312567
C228  C     C_2   0.150437 0.734695 0.390703 0.988624
O107  O     O_2   0.182481 0.739068 0.421875 -0.559583
O108  O     O_R   0.080518 0.703284 0.389172 -0.783538
H76   H     H_    0.062248 0.687571 0.415756 0.366883
C229  C     C_2   0.487857 0.378798 0.704997 1.030439
O109  O     O_2   0.502766 0.443171 0.708010 -0.511577
O110  O     O_R   0.544787 0.329638 0.698890 -0.743095
H77   H     H_    0.526944 0.278206 0.694338 0.326211
C230  C     C_2   0.537507 0.652216 0.334475 1.002326
O111  O     O_2   0.481833 0.650320 0.314646 -0.605717
O112  O     O_R   0.532310 0.647795 0.375004 -0.751892
H78   H     H_    0.479829 0.642662 0.384382 0.355381
C231  C     C_2   0.144884 0.740420 0.610323 1.035962
O113  O     O_2   0.179058 0.732023 0.580127 -0.506162
O114  O     O_R   0.069242 0.727562 0.610341 -0.732774
H79   H     H_    0.045019 0.739839 0.636009 0.311258
C232  C     C_2   0.852693 0.261649 0.390143 0.983541
O115  O     O_2   0.821490 0.256639 0.421538 -0.561806
O116  O     O_R   0.922780 0.292663 0.388264 -0.784346
H80   H     H_    0.941914 0.307577 0.414798 0.367271
Br1   Br    Br    0.360771 0.073395 0.611185 -0.460467
Br2   Br    Br    0.639040 0.926087 0.388808 -0.454103
Br3   Br    Br    0.091720 0.372335 0.610888 -0.472369
Br4   Br    Br    0.909191 0.627846 0.389236 -0.456121
Br5   Br    Br    0.638870 0.925781 0.611188 -0.464298
Br6   Br    Br    0.360570 0.072991 0.388808 -0.455462
Br7   Br    Br    0.910173 0.628548 0.610674 -0.486128
Br8   Br    Br    0.094113 0.373851 0.389180 -0.456491
Br9   Br    Br    0.863481 0.578541 0.111098 -0.464698
Br10  Br    Br    0.137902 0.424158 0.888844 -0.453422
Br11  Br    Br    0.583452 0.867503 0.110893 -0.483281
Br12  Br    Br    0.406931 0.126787 0.889142 -0.456036
Br13  Br    Br    0.135079 0.419061 0.111018 -0.426014
Br14  Br    Br    0.862355 0.576572 0.888847 -0.452738
Br15  Br    Br    0.410503 0.129112 0.110920 -0.471062
Br16  Br    Br    0.589611 0.871291 0.889254 -0.456343

loop_
_geom_bond_atom_site_label_1
_geom_bond_atom_site_label_2
_ccdc_geom_bond_type
O108  H76   S    
C76   C104  A    
C211  O73   D    
C45   C148  A    
C4    H36   S    
C228  O107  D    
C71   Br7   S    
C143  C175  A    
C70   Br6   S    
C79   C87   A    
C206  O63   D    
C127  O41   A    
C231  O113  D    
C6    H38   S    
C18   C50   A    
C79   C99   A    
C121  O29   A    
C31   C130  A    
C221  O94   S    
C123  O31   A    
C14   C102  A    
C29   C132  A    
C30   C131  A    
C2    C90   A    
C3    H35   S    
C16   C104  A    
O1    Zn1   S    
C1    H33   S    
C6    C94   A    
C162  C232  S    
C9    C97   A    
C139  C171  A    
C105  O5    A    
C112  O20   A    
C130  H2    S    
C156  H28   S    
C48   C50   A    
C222  O96   S    
C47   C146  A    
C199  C200  A    
C225  O102  S    
C75   C103  A    
C143  H15   S    
C36   C62   A    
C66   Br2   S    
C210  O72   S    
C16   H48   S    
C161  C231  S    
C171  C221  S    
C40   C58   A    
C39   C154  A    
C28   C133  A    
C117  O25   A    
C3    C8    A    
C205  O61   D    
C22   C139  A    
C83   C105  S    
C159  H31   S    
C190  C204  S    
C97   C197  A    
C57   C123  S    
C91   C195  A    
O72   H58   S    
C89   C193  A    
C164  C173  A    
C179  C213  S    
C72   C84   A    
C8    H40   S    
C112  O16   A    
C168  C169  A    
C49   C115  S    
C21   C28   A    
C22   C27   A    
C219  O89   D    
C67   Br3   S    
C68   Br4   S    
O88   H66   S    
C144  H16   S    
C220  O91   D    
C153  H25   S    
C94   C194  A    
C27   C134  A    
O20   Zn1   S    
C92   C196  A    
O30   Zn12  S    
O82   H63   S    
C23   C55   A    
C24   C56   A    
C55   C113  S    
C188  C206  S    
C117  O51   A    
C118  O52   A    
C37   C44   A    
C111  O19   A    
C38   C43   A    
C80   C88   A    
C155  C187  A    
C223  O97   D    
C70   C82   A    
C232  O116  S    
C195  C196  A    
C146  H18   S    
C147  C179  A    
O3    Zn7   S    
C202  O55   D    
C76   Br12  S    
O74   H59   S    
O41   Zn4   S    
C18   C31   A    
C15   C103  A    
C224  O99   D    
C213  O77   D    
C19   C30   A    
O16   Zn5   S    
O44   Zn5   S    
C218  O88   S    
O37   Zn8   S    
O38   Zn7   S    
C67   C83   A    
C209  O69   D    
C11   H43   S    
O40   Zn1   S    
O104  H74   S    
C9    H41   S    
C71   C91   A    
C222  O95   D    
C124  O32   A    
C157  H29   S    
C22   C54   A    
O21   Zn16  S    
C229  O109  D    
O48   Zn2   S    
O22   Zn15  S    
C154  C186  A    
C155  H27   S    
C17   C144  A    
C18   C143  A    
C113  O21   A    
C180  C189  A    
C158  C190  A    
C186  C208  S    
C115  O23   A    
O94   H69   S    
C170  C224  S    
C184  C185  A    
C146  C178  A    
C11   C99   A    
C203  O58   S    
O24   Zn9   S    
C78   Br14  S    
C12   H44   S    
C231  O114  S    
O3    Zn3   S    
C160  H32   S    
C77   C97   A    
O4    Zn4   S    
C82   C108  S    
C95   C195  A    
C33   C160  A    
C129  H1    S    
C34   C159  A    
C130  C162  A    
C128  O42   A    
C77   C85   A    
C67   C95   A    
C204  O60   S    
C37   C156  A    
C80   Br16  S    
C25   C57   A    
C38   C155  A    
C4    C7    A    
C69   C89   A    
C122  O30   A    
C32   C129  A    
C226  O104  S    
C2    H34   S    
C120  O28   A    
C71   C83   A    
C207  O66   S    
C29   C61   A    
C129  C161  A    
O23   Zn10  S    
C31   C63   A    
C69   C81   A    
C32   C64   A    
C166  C228  S    
C109  O17   A    
C183  C186  A    
C17   C49   A    
O29   Zn11  S    
C161  C176  A    
O51   Zn5   S    
O1    Zn5   S    
C162  C175  A    
O2    Zn2   S    
C219  O90   S    
C138  H10   S    
C177  C215  S    
C164  C230  S    
O62   H53   S    
C181  C211  S    
O110  H77   S    
C33   C63   A    
C111  O15   A    
C48   C145  A    
C144  C176  A    
O43   Zn6   S    
C34   C64   A    
C107  O7    A    
C168  C226  S    
C35   C61   A    
C37   C59   A    
C42   C151  A    
C39   C57   A    
C73   C85   A    
C125  O43   A    
C43   C150  A    
C36   C157  A    
O1    Zn12  S    
C38   C60   A    
C184  C210  S    
C75   C87   A    
O2    Zn11  S    
C125  O33   A    
C193  C194  A    
C126  O44   A    
C40   C153  A    
C2    C5    A    
C208  O68   S    
C128  O36   A    
C99   C199  A    
C100  C200  A    
C118  O26   A    
O7    Zn14  S    
C135  H7    S    
C17   C32   A    
C20   C141  A    
C73   Br9   S    
C151  C183  A    
O42   Zn3   S    
C24   C137  A    
C59   C125  S    
O47   Zn1   S    
O28   Zn13  S    
C221  O93   D    
C73   C101  A    
C51   C117  S    
C151  H23   S    
C197  C198  A    
C216  O84   S    
C140  C172  A    
C44   C54   A    
C148  C180  A    
C135  C167  A    
O49   Zn7   S    
C214  O80   S    
C124  O38   A    
C113  O47   A    
C13   H45   S    
C81   C107  S    
C114  O48   A    
C225  O101  D    
C115  O45   A    
C228  O108  S    
C106  O6    A    
C23   C138  A    
C69   Br5   S    
C210  O71   D    
O84   H64   S    
C150  C182  A    
C167  C225  S    
C212  O76   S    
C116  O46   A    
C68   C96   A    
C5    H37   S    
C154  H26   S    
C79   Br15  S    
C215  O82   S    
C72   C92   A    
O11   Zn10  S    
C134  H6    S    
O32   Zn10  S    
O80   H62   S    
C3    C91   A    
C23   C26   A    
C201  O54   S    
C41   C55   A    
C165  C227  S    
C42   C56   A    
C43   C53   A    
O78   H61   S    
C230  O112  S    
O39   Zn2   S    
C8    C96   A    
C84   C106  S    
O76   H60   S    
C134  C166  A    
O45   Zn3   S    
C131  H3    S    
O46   Zn4   S    
C74   C102  A    
C88   C110  S    
O3    Zn14  S    
C205  O62   S    
O4    Zn9   S    
C211  O74   S    
C177  C192  A    
C108  O8    A    
O5    Zn12  S    
C149  C181  A    
C150  H22   S    
O6    Zn11  S    
O17   Zn8   S    
C119  O49   A    
C174  C220  S    
O18   Zn7   S    
C114  O22   A    
C206  O64   S    
C181  C188  A    
O31   Zn9   S    
C39   C42   A    
C156  C188  A    
O27   Zn14  S    
O13   Zn4   S    
C132  H4    S    
O14   Zn3   S    
C68   C84   A    
C159  C191  A    
C160  C192  A    
C142  C174  A    
O35   Zn13  S    
O9    Zn16  S    
O68   H56   S    
C136  H8    S    
O10   Zn15  S    
O56   H50   S    
C137  H9    S    
C9    C14   A    
C132  C164  A    
C133  C165  A    
C11   C16   A    
C65   C81   A    
C46   C147  A    
C90   C194  A    
C12   C15   A    
C131  C163  A    
C148  H20   S    
C142  H14   S    
C15   H47   S    
C175  C217  S    
O3    Zn10  S    
C30   C62   A    
O4    Zn13  S    
C109  O13   A    
C110  O18   A    
C140  H12   S    
C218  O87   D    
O52   Zn6   S    
O2    Zn6   S    
C105  O9    A    
C93   C193  A    
O15   Zn6   S    
C185  C207  S    
C85   C111  S    
O92   H68   S    
C87   C109  S    
O36   Zn14  S    
C44   C149  A    
C213  O78   S    
C35   C158  A    
O58   H51   S    
O60   H52   S    
O1    Zn16  S    
O2    Zn15  S    
C126  O34   A    
C60   C126  S    
C101  C197  A    
C227  O105  D    
C203  O57   D    
O8    Zn13  S    
C12   C100  A    
C169  C223  S    
C119  O27   A    
O54   H49   S    
C96   C196  A    
C145  H17   S    
C189  C203  S    
O100  H72   S    
C217  O86   S    
C33   C48   A    
O19   Zn2   S    
C34   C47   A    
C21   C140  A    
C116  O24   A    
C35   C46   A    
O50   Zn8   S    
C4    C92   A    
C52   C118  S    
C21   C53   A    
O66   H55   S    
C54   C120  S    
O12   Zn9   S    
C138  C170  A    
C204  O59   D    
O96   H70   S    
C10   H42   S    
O114  H79   S    
C192  C202  S    
C158  H30   S    
C226  O103  D    
O90   H67   S    
C47   C49   A    
C41   C152  A    
C207  O65   D    
C220  O92   S    
C107  O11   A    
C65   Br1   S    
C102  C198  A    
C223  O98   S    
C66   C82   A    
C45   C51   A    
C133  H5    S    
C163  C229  S    
C46   C52   A    
C121  O39   A    
C127  O35   A    
C10   C98   A    
C25   C136  A    
C122  O40   A    
C26   C135  A    
C123  O37   A    
C173  C219  S    
O64   H54   S    
C202  O56   S    
C77   Br13  S    
C72   Br8   S    
O98   H71   S    
C75   Br11  S    
C152  C184  A    
C76   C88   A    
C137  C169  A    
C66   C94   A    
C187  C205  S    
C165  C172  A    
C172  C222  S    
C166  C171  A    
C209  O70   S    
C180  C214  S    
C80   C100  A    
C141  C173  A    
C70   C90   A    
C149  H21   S    
C63   C121  S    
C167  C170  A    
C20   C29   A    
C229  O110  S    
C176  C218  S    
O4    Zn8   S    
C98   C198  A    
C24   C25   A    
C61   C127  S    
C104  C200  A    
C141  H13   S    
O106  H75   S    
C136  C168  A    
C139  H11   S    
C191  C201  S    
C86   C112  S    
C78   C98   A    
C26   C58   A    
O102  H73   S    
C36   C45   A    
C103  C199  A    
C74   C86   A    
C178  C216  S    
O25   Zn12  S    
C120  O50   A    
C216  O83   D    
C28   C60   A    
O26   Zn11  S    
C40   C41   A    
C7    H39   S    
C108  O12   A    
C224  O100  S    
C13   C101  A    
C214  O79   D    
C1    C89   A    
C74   Br10  S    
C10   C13   A    
C5    C93   A    
C53   C119  S    
C19   C142  A    
C7    C95   A    
C212  O75   D    
C58   C124  S    
C183  C209  S    
C152  H24   S    
O116  H80   S    
C20   C52   A    
C27   C59   A    
C215  O81   D    
C62   C128  S    
C178  C191  A    
O70   H57   S    
C78   C86   A    
C232  O115  D    
C217  O85   D    
C179  C190  A    
C153  C185  A    
C64   C122  S    
C65   C93   A    
C50   C116  S    
C182  C187  A    
C201  O53   D    
C157  C189  A    
C110  O14   A    
C147  H19   S    
O112  H78   S    
C19   C51   A    
C227  O106  S    
C230  O111  D    
C145  C177  A    
C1    C6    A    
C106  O10   A    
C56   C114  S    
O33   Zn15  S    
C182  C212  S    
C208  O67   D    
C163  C174  A    
O34   Zn16  S    
O86   H65   S    
C14   H46   S    
