data_mof_unit_50202.cif
_audit_creation_date              2012-12-10T18:36:19-0500
_audit_creation_method            fapswitch 2.2
_symmetry_space_group_name_H-M    P1
_symmetry_Int_Tables_number       1
_space_group_crystal_system       triclinic
_cell_length_a                    15.011127
_cell_length_b                    15.401215
_cell_length_c                    19.170774
_cell_angle_alpha                 89.882832
_cell_angle_beta                  104.746458
_cell_angle_gamma                 82.281766
_cell_volume                      4244.23167267

loop_
_atom_site_label
_atom_site_type_symbol
_atom_type_description
_atom_site_fract_x
_atom_site_fract_y
_atom_site_fract_z
_atom_type_partial_charge
C1    C     C_R   0.441686 0.662205 0.488541 0.866586
C2    C     C_R   0.527526 0.186774 0.493110 -0.259016
C3    C     C_R   0.436432 0.900485 0.447428 0.089585
C4    C     C_R   0.546446 0.103035 0.468319 0.095102
C5    C     C_R   0.342879 0.934336 0.446127 0.118363
C6    C     C_R   0.638509 0.072393 0.464376 0.118194
C7    C     C_R   0.501835 0.958034 0.444580 0.053002
C8    C     C_R   0.476261 0.048126 0.451516 0.051873
C9    C     C_R   0.381146 0.081013 0.441446 -0.280830
C10   C     C_R   0.592934 0.928480 0.438367 -0.283284
C11   C     C_R   0.314206 0.025400 0.437379 -0.020606
C12   C     C_R   0.558167 0.337624 0.509080 0.848785
C13   C     C_R   0.660504 0.984641 0.446899 -0.023291
C14   C     C_R   0.845941 0.631776 0.611973 -0.378097
C15   C     C_R   0.154779 0.365011 0.391043 -0.342967
C16   C     C_R   0.502112 0.497767 0.634607 0.848865
C17   C     C_R   0.498733 0.500087 0.365665 0.848180
C18   C     C_R   0.754692 0.613732 0.590921 0.389606
C19   C     C_R   0.244166 0.388360 0.407221 0.367675
C20   C     C_R   0.794075 0.509315 0.508692 -0.122113
C21   C     C_R   0.207625 0.486555 0.494889 -0.120740
C22   C     C_R   0.887101 0.526570 0.526445 -0.002526
C23   C     C_R   0.405331 0.754788 0.473464 -0.055517
C24   C     C_R   0.115482 0.466928 0.479357 -0.004463
C25   C     C_R   0.911973 0.589092 0.579485 0.141806
C26   C     C_R   0.090302 0.404696 0.426180 0.135123
C27   C     C_R   0.955500 0.484594 0.493547 0.094215
C28   C     C_R   0.047842 0.506998 0.513907 0.094191
C29   C     C_R   0.069286 0.568883 0.567774 -0.243804
C30   C     C_R   0.934392 0.421613 0.440591 -0.248859
C31   C     C_R   0.002456 0.608895 0.599829 -0.220287
C32   C     C_R   0.000682 0.382688 0.407705 -0.209238
C33   C     C_R   0.423909 0.506092 0.732185 -0.209534
C34   C     C_R   0.591976 0.245247 0.502816 -0.056511
C35   C     C_R   0.577825 0.450220 0.273259 -0.208150
C36   C     C_R   0.423249 0.494660 0.803520 -0.163791
C37   C     C_R   0.578279 0.435825 0.202014 -0.165944
C38   C     C_R   0.506110 0.466079 0.855740 0.070718
C39   C     C_R   0.498799 0.464435 0.146630 0.071641
C40   C     C_R   0.590121 0.449151 0.835590 -0.207415
C41   C     C_R   0.418996 0.508146 0.163202 -0.210876
C42   C     C_R   0.591555 0.459156 0.763459 -0.013030
C43   C     C_R   0.418107 0.524475 0.234549 -0.006626
C44   C     C_R   0.507175 0.488661 0.711308 -0.076749
C45   C     C_R   0.281860 0.876587 0.457153 -0.225509
C46   C     C_R   0.498184 0.493713 0.290024 -0.066589
C47   C     C_R   0.500648 0.455029 0.071271 0.295401
C48   C     C_R   0.504425 0.456968 0.931262 0.295603
C49   C     C_3   0.279228 0.331487 0.295826 -0.818538
C50   C     C_3   0.669718 0.750650 0.614877 -0.800557
C51   C     C_R   0.681011 0.435052 0.744245 0.127280
C52   C     C_R   0.754789 0.483534 0.769793 -0.181893
C53   C     C_R   0.837565 0.463758 0.748644 -0.144520
C54   C     C_R   0.847619 0.394868 0.702679 -0.112516
C55   C     C_R   0.775302 0.344990 0.678425 -0.113128
C56   C     C_R   0.706039 0.130157 0.479605 -0.207844
C57   C     C_R   0.692335 0.364661 0.699295 -0.091006
C58   C     C_R   0.335246 0.578381 0.248605 0.138252
C59   C     C_R   0.344442 0.655855 0.286849 -0.129032
C60   C     C_R   0.265683 0.708620 0.296924 -0.128601
C61   C     C_R   0.177527 0.683798 0.270303 -0.114056
C62   C     C_R   0.167697 0.607139 0.231955 -0.132262
C63   C     C_R   0.246015 0.555282 0.220191 -0.143611
C64   C     C_R   0.215748 0.065095 0.426494 0.120421
C65   C     C_R   0.190310 0.125576 0.475218 -0.157374
C66   C     C_R   0.097597 0.163467 0.464439 -0.129615
C67   C     C_R   0.313384 0.787633 0.471778 -0.219065
C68   C     C_R   0.029953 0.142148 0.404593 -0.119483
C69   C     C_R   0.055013 0.083246 0.355239 -0.145246
C70   C     C_R   0.147485 0.044622 0.366117 -0.173649
C71   C     C_R   0.754181 0.947961 0.439846 0.120531
C72   C     C_R   0.808319 0.880397 0.487747 -0.157854
C73   C     C_R   0.895771 0.844264 0.480148 -0.130817
C74   C     C_R   0.929496 0.874941 0.424520 -0.100381
C75   C     C_R   0.875638 0.941554 0.376276 -0.130626
C76   C     C_R   0.788240 0.978024 0.383778 -0.172084
C77   C     C_R   0.682095 0.216742 0.496719 -0.216215
C78   C     C_R   0.464470 0.810327 0.458825 -0.265744
H1    H     H_    0.358720 0.528744 0.693076 0.150671
H2    H     H_    0.866960 0.400719 0.422699 0.132810
H3    H     H_    0.357516 0.508935 0.817611 0.150888
H4    H     H_    0.640697 0.402178 0.190361 0.147866
H5    H     H_    0.654486 0.426557 0.875630 0.153135
H6    H     H_    0.358371 0.533138 0.120374 0.151495
H7    H     H_    0.461905 0.207935 0.505409 0.147722
H8    H     H_    0.534058 0.781744 0.459857 0.157642
H9    H     H_    0.733417 0.261373 0.504113 0.147798
H10   H     H_    0.266162 0.744782 0.482079 0.157951
H11   H     H_    0.210810 0.900048 0.457728 0.154450
H12   H     H_    0.639313 0.425810 0.315552 0.145954
H13   H     H_    0.777036 0.109537 0.477450 0.150323
H14   H     H_    0.356838 0.150475 0.434727 0.143892
H15   H     H_    0.612991 0.862256 0.424338 0.151606
H16   H     H_    0.356552 0.298794 0.400766 0.226963
H17   H     H_    0.252712 0.267204 0.289961 0.227902
H18   H     H_    0.338294 0.328706 0.270515 0.255593
H19   H     H_    0.223421 0.383655 0.267260 0.244014
H20   H     H_    0.696628 0.635091 0.676438 0.219101
H21   H     H_    0.727368 0.780002 0.650983 0.216437
H22   H     H_    0.603889 0.775563 0.629023 0.250561
H23   H     H_    0.021739 0.656406 0.640671 0.142038
H24   H     H_    0.663247 0.771402 0.558155 0.240953
H25   H     H_    0.747342 0.537823 0.804641 0.128720
H26   H     H_    0.893638 0.502310 0.767410 0.135096
H27   H     H_    0.911459 0.380094 0.685932 0.129032
H28   H     H_    0.783330 0.291392 0.643134 0.124680
H29   H     H_    0.636437 0.326075 0.679603 0.100226
H30   H     H_    0.412246 0.676285 0.307551 0.107733
H31   H     H_    0.272830 0.769335 0.324586 0.147105
H32   H     H_    0.116765 0.724542 0.278601 0.122618
H33   H     H_    0.099280 0.588438 0.210577 0.130717
H34   H     H_    0.981232 0.335297 0.366813 0.146159
H35   H     H_    0.237161 0.497229 0.188849 0.121885
H36   H     H_    0.242106 0.142819 0.521714 0.130596
H37   H     H_    0.078246 0.209624 0.502336 0.139998
H38   H     H_    0.958233 0.171648 0.396242 0.119597
H39   H     H_    0.002844 0.067707 0.308393 0.121911
H40   H     H_    0.166057 0.999163 0.327417 0.128866
H41   H     H_    0.782998 0.856082 0.531065 0.131623
H42   H     H_    0.937288 0.792392 0.517295 0.139615
H43   H     H_    0.997152 0.846874 0.418608 0.120059
H44   H     H_    0.901336 0.964541 0.332766 0.122870
H45   H     H_    0.233510 0.532919 0.534148 0.137829
H46   H     H_    0.746915 0.029242 0.345809 0.130895
H47   H     H_    0.768556 0.461948 0.470284 0.136698
H48   H     H_    0.865026 0.678804 0.653227 0.149359
H49   H     H_    0.135382 0.316353 0.351318 0.169534
H50   H     H_    0.137315 0.588266 0.586740 0.134200
N1    N     N_R   0.584513 0.438832 0.984131 -0.182475
N2    N     N_R   0.420576 0.470854 0.018339 -0.183784
N3    N     N_R   0.582652 0.437907 0.053029 -0.181424
N4    N     N_R   0.422443 0.471697 0.949614 -0.184622
N5    N     N_R   0.731690 0.552730 0.540620 -0.111455
N6    N     N_R   0.268310 0.447270 0.459380 -0.119440
N7    N     N_2   0.311157 0.349763 0.371458 -0.254289
N8    N     N_2   0.686437 0.656016 0.623558 -0.251724
O1    O     O_R   0.383120 0.605620 0.479520 -0.614342
O2    O     O_R   0.616880 0.394380 0.520480 -0.618207
O3    O     O_R   0.531890 0.639510 0.505590 -0.588913
O4    O     O_R   0.468110 0.360490 0.494410 -0.626742
O5    O     O_R   0.425590 0.483060 0.588820 -0.622328
O6    O     O_R   0.574410 0.516940 0.411180 -0.625180
O7    O     O_R   0.574360 0.516950 0.614890 -0.592807
O8    O     O_R   0.425640 0.483050 0.385110 -0.571784
Zn1   Zn    Zn3+2 0.400660 0.477370 0.482600 0.956917
Zn2   Zn    Zn3+2 0.599340 0.522630 0.517400 0.958297

loop_
_geom_bond_atom_site_label_1
_geom_bond_atom_site_label_2
_ccdc_geom_bond_type
C25   C31   A    
O7    Zn2   S    
C66   C68   A    
C52   H25   S    
C26   C32   A    
C7    C10   A    
C75   H44   S    
C65   H36   S    
O6    Zn2   S    
N2    N4    A    
C4    C8    A    
C60   C61   A    
C7    C8    A    
C39   C41   A    
C53   C54   A    
C19   N6    A    
C15   C19   A    
C67   H10   S    
C2    H7    S    
C17   O8    A    
C31   H23   S    
O1    Zn1   S    
C28   C29   A    
C35   C37   A    
C24   C26   A    
C5    C11   A    
C3    C7    A    
C34   C77   A    
C71   C76   A    
C53   H26   S    
C19   N7    S    
H20   N8    S    
C33   C36   A    
C18   N5    A    
C73   C74   A    
C23   C67   A    
C14   C18   A    
C60   H31   S    
C43   C58   S    
C68   C69   A    
C56   H13   S    
C62   H33   S    
C8    C9    A    
C22   C25   A    
C45   C67   A    
C12   O4    A    
C18   N8    S    
C51   C57   A    
C64   C70   A    
C20   N5    A    
C30   C32   A    
C45   H11   S    
C16   C44   S    
C38   C48   S    
C1    O3    A    
O5    Zn1   S    
C42   C51   S    
C30   H2    S    
C2    C34   A    
C40   C42   A    
C49   N7    S    
C59   C60   A    
C23   C78   A    
C73   H42   S    
C15   H49   S    
C27   C30   A    
C41   C43   A    
C40   H5    S    
C61   C62   A    
C42   C44   A    
C61   H32   S    
C9    H14   S    
O2    Zn2   S    
C74   C75   A    
C47   N2    A    
C51   C52   A    
C76   H46   S    
O3    Zn2   S    
C17   C46   S    
C4    C6    A    
C11   C64   S    
C66   H37   S    
C33   H1    S    
C15   C26   A    
C13   C71   S    
C10   H15   S    
C58   C59   A    
C41   H6    S    
C5    C45   A    
C56   C77   A    
C47   N3    A    
C17   O6    A    
C21   H45   S    
C2    C4    A    
C75   C76   A    
C55   H28   S    
C62   C63   A    
C36   H3    S    
C16   O7    A    
H16   N7    S    
C50   H21   S    
C49   H17   S    
C9    C11   A    
C68   H38   S    
C49   H18   S    
C57   H29   S    
C20   C22   A    
C50   H24   S    
C22   C27   A    
C55   C57   A    
C12   O2    A    
C37   H4    S    
C21   C24   A    
C12   C34   S    
C21   N6    A    
C1    O1    A    
C52   C53   A    
C39   C47   S    
C58   C63   A    
N6    Zn1   S    
C54   C55   A    
C32   H34   S    
C54   H27   S    
C33   C44   A    
C24   C28   A    
C6    C56   A    
C72   C73   A    
C3    C5    A    
C10   C13   A    
O4    Zn1   S    
C1    C23   S    
C50   H22   S    
C59   H30   S    
C14   H48   S    
O8    Zn1   S    
C64   C65   A    
C36   C38   A    
C16   O5    A    
C20   H47   S    
C37   C39   A    
C50   N8    S    
C6    C13   A    
C38   C40   A    
C3    C78   A    
C78   H8    S    
C70   H40   S    
C72   H41   S    
C69   H39   S    
C14   C25   A    
C69   C70   A    
C48   N1    A    
C43   C46   A    
C49   H19   S    
C63   H35   S    
C35   H12   S    
C71   C72   A    
C74   H43   S    
C77   H9    S    
C29   C31   A    
C65   C66   A    
C29   H50   S    
C27   C28   A    
C48   N4    A    
N5    Zn2   S    
C35   C46   A    
N1    N3    A    
