data_mof_unit_41954.cif
_audit_creation_date              2012-12-10T18:37:00-0500
_audit_creation_method            fapswitch 2.2
_symmetry_space_group_name_H-M    P1
_symmetry_Int_Tables_number       1
_space_group_crystal_system       triclinic
_cell_length_a                    15.047677
_cell_length_b                    15.595874
_cell_length_c                    23.384791
_cell_angle_alpha                 92.251167
_cell_angle_beta                  106.029758
_cell_angle_gamma                 80.875421
_cell_volume                      5207.79612768

loop_
_atom_site_label
_atom_site_type_symbol
_atom_type_description
_atom_site_fract_x
_atom_site_fract_y
_atom_site_fract_z
_atom_type_partial_charge
C1    C     C_R   0.440472 0.662494 0.492373 0.859738
C2    C     C_R   0.549444 0.444349 0.300912 0.101617
C3    C     C_R   0.459076 0.563053 0.758162 -0.130330
C4    C     C_R   0.539089 0.446841 0.239892 -0.138392
C5    C     C_R   0.520798 0.498961 0.795089 0.253973
C6    C     C_R   0.470858 0.507153 0.203605 0.258124
C7    C     C_R   0.402941 0.756498 0.490080 -0.137235
C8    C     C_R   0.595749 0.244229 0.500605 -0.135091
C9    C     C_R   0.297056 0.884167 0.508548 0.131209
C10   C     C_R   0.699904 0.123611 0.471427 0.124962
C11   C     C_R   0.315599 0.792813 0.500247 0.170668
C12   C     C_R   0.559383 0.337522 0.506132 0.860137
C13   C     C_R   0.683728 0.211623 0.489653 0.170112
C14   C     C_R   0.463836 0.811331 0.483346 -0.320801
C15   C     C_R   0.531823 0.187736 0.497633 -0.314612
C16   C     C_R   0.502804 0.499560 0.610672 0.868649
C17   C     C_R   0.496879 0.500995 0.389209 0.871139
C18   C     C_R   0.443297 0.901261 0.487024 0.054692
C19   C     C_R   0.551222 0.099800 0.485415 0.051465
C20   C     C_R   0.353069 0.938515 0.491432 0.021224
C21   C     C_R   0.641680 0.065197 0.480827 0.023782
C22   C     C_R   0.510725 0.954909 0.485776 0.045461
C23   C     C_R   0.578463 0.436041 0.772337 -0.134622
C24   C     C_R   0.483229 0.045247 0.481510 0.043414
C25   C     C_R   0.387623 0.079050 0.471069 -0.234574
C26   C     C_R   0.606179 0.921485 0.493081 -0.235853
C27   C     C_R   0.322113 0.027761 0.476255 0.158697
C28   C     C_R   0.671610 0.974453 0.489685 0.159092
C29   C     C_R   0.837772 0.654146 0.581114 0.029970
C30   C     C_R   0.152403 0.359730 0.410624 0.069025
C31   C     C_R   0.756907 0.614698 0.577006 0.265650
C32   C     C_R   0.241593 0.386991 0.422097 0.235971
C33   C     C_R   0.792344 0.516179 0.503148 -0.134165
C34   C     C_R   0.410661 0.565557 0.227422 -0.135121
C35   C     C_R   0.206698 0.488307 0.494839 -0.120759
C36   C     C_R   0.883818 0.537380 0.516693 -0.027599
C37   C     C_R   0.114788 0.468069 0.482167 -0.047758
C38   C     C_R   0.903699 0.611148 0.552428 0.068435
C39   C     C_R   0.092433 0.396550 0.444840 0.119564
C40   C     C_R   0.435437 0.448491 0.105119 0.513470
C41   C     C_R   0.551990 0.559771 0.893070 0.512258
C42   C     C_R   0.955845 0.487616 0.495636 0.122272
C43   C     C_R   0.044171 0.516446 0.505236 0.114526
C44   C     C_R   0.058232 0.593977 0.536052 -0.239362
C45   C     C_R   0.573747 0.435503 0.711789 0.104860
C46   C     C_R   0.943752 0.407487 0.467887 -0.258263
C47   C     C_R   0.991474 0.638273 0.560821 -0.208991
C48   C     C_R   0.009622 0.363783 0.442143 -0.200547
C49   C     C_R   0.507213 0.576395 0.124747 0.502816
C50   C     C_R   0.479148 0.432492 0.873104 0.502660
C51   C     C_R   0.517283 0.577031 0.066220 -0.082531
C52   C     C_R   0.467615 0.432631 0.931320 -0.082160
C53   C     C_R   0.486714 0.507904 0.027753 -0.035729
C54   C     C_R   0.498236 0.501712 0.969812 -0.035670
C55   C     C_R   0.444745 0.444443 0.047291 -0.062394
C56   C     C_R   0.418562 0.564842 0.288386 0.106566
C57   C     C_R   0.540770 0.564859 0.950434 -0.061644
C58   C     C_R   0.557963 0.642094 0.045137 0.139377
C59   C     C_R   0.425832 0.368162 0.952153 0.139258
C60   C     C_R   0.569803 0.633337 0.987650 -0.152169
C61   C     C_R   0.414755 0.376514 0.009844 -0.152007
C62   C     C_3   0.588045 0.720251 0.083138 -0.317523
C63   C     C_3   0.623306 0.789214 0.053852 -0.939607
C64   C     C_3   0.394021 0.290906 0.913732 -0.317601
C65   C     C_3   0.355714 0.223394 0.942279 -0.940002
C66   C     C_3   0.232668 0.920758 0.546857 -0.439771
C67   C     C_R   0.509487 0.499891 0.673985 -0.100254
C68   C     C_3   0.268620 0.884036 0.610240 -0.887367
C69   C     C_3   0.765273 0.096317 0.431998 -0.438264
C70   C     C_3   0.735889 0.149019 0.374315 -0.896102
C71   C     C_3   0.305722 0.349247 0.384100 -0.366869
C72   C     C_3   0.278134 0.392725 0.322781 -0.824629
C73   C     C_3   0.717520 0.622173 0.630581 -0.291122
C74   C     C_3   0.629084 0.690356 0.624678 -0.743482
C75   C     C_3   0.864353 0.733676 0.620186 -0.409786
C76   C     C_3   0.791088 0.797146 0.640696 -0.881283
C77   C     C_3   0.117870 0.296001 0.360381 -0.422904
C78   C     C_R   0.488532 0.503477 0.325582 -0.097791
C79   C     C_3   0.037900 0.340998 0.309821 -0.843884
C80   C     C_3   0.635048 0.363625 0.688705 -0.438429
C81   C     C_3   0.579633 0.292331 0.658831 -0.821626
C82   C     C_3   0.355818 0.634068 0.312456 -0.438325
C83   C     C_3   0.407493 0.709242 0.338821 -0.822573
C84   C     C_3   0.383057 0.635932 0.660170 -0.428241
C85   C     C_3   0.282537 0.622018 0.653744 -0.856780
C86   C     C_3   0.626386 0.377947 0.337415 -0.425905
C87   C     C_3   0.722140 0.404032 0.343108 -0.847687
C88   C     C_3   0.219493 0.067473 0.454151 -0.437590
C89   C     C_R   0.452046 0.564415 0.697523 0.103782
C90   C     C_3   0.193655 0.146344 0.490904 -0.886112
C91   C     C_3   0.774273 0.933917 0.508888 -0.447812
C92   C     C_3   0.798583 0.860236 0.467926 -0.858485
C93   C     C_3   0.761164 0.267223 0.499285 -0.406837
C94   C     C_3   0.804760 0.281624 0.565518 -0.838528
C95   C     C_3   0.240942 0.736859 0.499763 -0.415706
C96   C     C_3   0.190228 0.714316 0.436157 -0.834791
H1    H     H_    0.362052 0.145357 0.456042 0.149564
H2    H     H_    0.568920 0.816477 0.013540 0.269673
H3    H     H_    0.639050 0.843210 0.085605 0.264922
H4    H     H_    0.526982 0.754478 0.097206 0.244970
H5    H     H_    0.645364 0.696435 0.123061 0.248844
H6    H     H_    0.409186 0.194253 0.982380 0.269628
H7    H     H_    0.290833 0.253042 0.953886 0.268078
H8    H     H_    0.337864 0.170417 0.910014 0.264773
H9    H     H_    0.337741 0.315925 0.873624 0.248827
H10   H     H_    0.454759 0.255181 0.900017 0.245099
H11   H     H_    0.271883 0.812765 0.610956 0.257567
H12   H     H_    0.633036 0.854478 0.505033 0.151824
H13   H     H_    0.339774 0.899892 0.631461 0.267599
H14   H     H_    0.221138 0.913435 0.637009 0.254154
H15   H     H_    0.230516 0.991255 0.552885 0.240630
H16   H     H_    0.159570 0.910093 0.525958 0.198109
H17   H     H_    0.661242 0.146575 0.350964 0.267600
H18   H     H_    0.745960 0.217317 0.383173 0.258046
H19   H     H_    0.779415 0.121595 0.344614 0.256408
H20   H     H_    0.839153 0.100091 0.456313 0.196978
H21   H     H_    0.762347 0.028543 0.417058 0.240648
H22   H     H_    0.012275 0.693513 0.587423 0.137109
H23   H     H_    0.231775 0.535409 0.527582 0.149265
H24   H     H_    0.993553 0.303882 0.419998 0.151316
H25   H     H_    0.264080 0.464431 0.326908 0.261628
H26   H     H_    0.336127 0.375896 0.301522 0.250556
H27   H     H_    0.215331 0.370473 0.292896 0.256950
H28   H     H_    0.378238 0.353966 0.404324 0.265754
H29   H     H_    0.310183 0.277771 0.380343 0.149141
H30   H     H_    0.614478 0.732426 0.585095 0.250079
H31   H     H_    0.565958 0.661361 0.622024 0.244465
H32   H     H_    0.637141 0.731868 0.664831 0.216231
H33   H     H_    0.709834 0.557482 0.643959 0.197130
H34   H     H_    0.768394 0.469616 0.469626 0.150122
H35   H     H_    0.772277 0.636788 0.670687 0.171601
H36   H     H_    0.726397 0.812927 0.604187 0.267054
H37   H     H_    0.778394 0.774365 0.681464 0.265784
H38   H     H_    0.818919 0.858980 0.654050 0.236166
H39   H     H_    0.922986 0.711289 0.659822 0.207307
H40   H     H_    0.889944 0.776171 0.593285 0.214374
H41   H     H_    0.057833 0.399674 0.294327 0.263270
H42   H     H_    0.021971 0.295693 0.271817 0.245189
H43   H     H_    0.973100 0.360776 0.323888 0.260961
H44   H     H_    0.171789 0.263868 0.339769 0.215742
H45   H     H_    0.625334 0.386380 0.801880 0.144739
H46   H     H_    0.095563 0.240420 0.377844 0.198857
H47   H     H_    0.120725 0.622465 0.542031 0.137004
H48   H     H_    0.883758 0.376659 0.465573 0.136778
H49   H     H_    0.601591 0.680540 0.970840 0.207041
H50   H     H_    0.382984 0.329336 0.026689 0.207107
H51   H     H_    0.552436 0.262185 0.691495 0.271222
H52   H     H_    0.519931 0.318794 0.621079 0.262435
H53   H     H_    0.625959 0.241391 0.641616 0.242583
H54   H     H_    0.667370 0.389875 0.657269 0.215095
H55   H     H_    0.694158 0.333670 0.725824 0.205403
H56   H     H_    0.359448 0.613106 0.198380 0.143582
H57   H     H_    0.470391 0.686142 0.375566 0.257275
H58   H     H_    0.429485 0.740045 0.303985 0.271867
H59   H     H_    0.360385 0.758762 0.356494 0.247715
H60   H     H_    0.293074 0.660322 0.276340 0.204454
H61   H     H_    0.328795 0.606910 0.346190 0.222393
H62   H     H_    0.270727 0.557871 0.633342 0.272239
H63   H     H_    0.267659 0.624906 0.697766 0.261045
H64   H     H_    0.232993 0.673670 0.625171 0.224703
H65   H     H_    0.394218 0.699559 0.681817 0.210339
H66   H     H_    0.393294 0.640423 0.615335 0.190390
H67   H     H_    0.467552 0.212510 0.508835 0.181749
H68   H     H_    0.725535 0.469688 0.362935 0.275053
H69   H     H_    0.777749 0.356891 0.371870 0.225772
H70   H     H_    0.735846 0.404474 0.298849 0.260373
H71   H     H_    0.618369 0.368890 0.382371 0.197922
H72   H     H_    0.622799 0.313857 0.315127 0.210413
H73   H     H_    0.415154 0.611369 0.776983 0.147368
H74   H     H_    0.585530 0.402557 0.220260 0.145120
H75   H     H_    0.218647 0.132521 0.539325 0.263792
H76   H     H_    0.224900 0.202446 0.481902 0.255774
H77   H     H_    0.116456 0.165274 0.478516 0.247003
H78   H     H_    0.526489 0.782218 0.471868 0.176805
H79   H     H_    0.171829 0.019474 0.452261 0.203571
H80   H     H_    0.205493 0.089188 0.407346 0.203200
H81   H     H_    0.765865 0.803005 0.472957 0.264475
H82   H     H_    0.774527 0.881119 0.420630 0.259548
H83   H     H_    0.875590 0.839761 0.480121 0.247979
H84   H     H_    0.822764 0.981749 0.513844 0.200812
H85   H     H_    0.789687 0.907556 0.554239 0.218413
H86   H     H_    0.751409 0.309039 0.588491 0.270472
H87   H     H_    0.841599 0.218853 0.587217 0.245732
H88   H     H_    0.856344 0.327082 0.570993 0.246015
H89   H     H_    0.688893 0.761530 0.042399 0.267784
H90   H     H_    0.819664 0.236995 0.481683 0.203678
H91   H     H_    0.735052 0.329271 0.474746 0.212839
H92   H     H_    0.239801 0.682412 0.411697 0.272925
H93   H     H_    0.139856 0.669815 0.437004 0.247460
H94   H     H_    0.150889 0.774398 0.411737 0.245369
H95   H     H_    0.271146 0.677896 0.527240 0.215909
H96   H     H_    0.186150 0.769223 0.519866 0.205859
N1    N     N_R   0.468052 0.512496 0.142370 -0.334841
N2    N     N_R   0.520035 0.495432 0.855859 -0.334555
N3    N     N_R   0.731690 0.552740 0.533440 -0.124966
N4    N     N_R   0.268310 0.447260 0.466560 -0.121692
O1    O     O_R   0.383120 0.605620 0.483150 -0.605951
O2    O     O_2   0.593540 0.619360 0.873980 -0.577250
O3    O     O_2   0.538152 0.636909 0.164839 -0.594905
O4    O     O_2   0.448238 0.371990 0.833000 -0.595889
O5    O     O_R   0.616880 0.394380 0.516850 -0.603923
O6    O     O_R   0.531890 0.639510 0.504600 -0.605567
O7    O     O_R   0.468110 0.360490 0.495400 -0.642720
O8    O     O_R   0.425590 0.483070 0.573110 -0.598337
O9    O     O_R   0.574410 0.516930 0.426890 -0.602889
O10   O     O_R   0.574360 0.516970 0.594570 -0.633256
O11   O     O_R   0.425640 0.483030 0.405430 -0.633207
O12   O     O_2   0.395509 0.388040 0.124689 -0.576387
Zn1   Zn    Zn3+2 0.400660 0.477370 0.485670 0.919341
Zn2   Zn    Zn3+2 0.599340 0.522630 0.514330 0.925839

loop_
_geom_bond_atom_site_label_1
_geom_bond_atom_site_label_2
_ccdc_geom_bond_type
C33   H34   S    
C58   C62   S    
C80   H55   S    
C66   C68   S    
C40   O12   S    
C69   H20   S    
C34   C56   A    
C8    C13   A    
C23   C45   A    
C72   H25   S    
C50   N2    A    
C73   C74   S    
C96   H92   S    
C36   C42   A    
C95   C96   S    
C77   H44   S    
C61   H50   S    
C73   H35   S    
C64   H9    S    
C48   H24   S    
C83   H58   S    
C87   H69   S    
C53   C54   A    
C70   H18   S    
C80   H54   S    
C90   H77   S    
C59   C64   S    
C93   C94   S    
C88   H79   S    
C4    H74   S    
C39   C48   A    
C84   C89   S    
C15   H67   S    
C35   C37   A    
C63   H2    S    
C16   O10   A    
C80   C81   S    
C75   H39   S    
C31   C73   S    
C87   H70   S    
C83   H59   S    
C58   C60   A    
C67   C89   A    
C33   C36   A    
C56   C78   A    
C31   N3    A    
C42   C46   A    
C12   O7    A    
C96   H94   S    
C14   C18   A    
C77   H46   S    
C52   C59   A    
C63   H3    S    
C85   H62   S    
C9    C66   S    
C30   C77   S    
C35   H23   S    
C7    C14   A    
C74   H32   S    
C63   H89   S    
C69   H21   S    
C90   H75   S    
C45   C67   A    
C50   C52   A    
C68   H11   S    
C66   H15   S    
C45   C80   S    
C44   C47   A    
C95   H95   S    
C62   H5    S    
C82   H60   S    
C93   H90   S    
C81   H52   S    
C77   C79   S    
C87   H68   S    
C70   H17   S    
C1    C7    S    
C34   H56   S    
C27   C88   S    
C94   H88   S    
C65   H6    S    
O6    Zn2   S    
C1    O6    A    
C52   C54   A    
C7    C11   A    
C32   C71   S    
C73   H33   S    
C40   N1    A    
C53   C55   A    
C10   C21   A    
C37   C39   A    
C46   C48   A    
C59   C61   A    
C71   H28   S    
C17   O11   A    
C29   C38   A    
C86   H72   S    
C24   C25   A    
N3    Zn2   S    
C4    C6    A    
C79   H43   S    
C26   H12   S    
C91   C92   S    
C51   C58   A    
C82   H61   S    
C50   O4    S    
C75   H40   S    
C3    H73   S    
C57   C60   A    
C46   H48   S    
C49   C51   A    
C6    C34   A    
C13   C93   S    
C47   H22   S    
C96   H93   S    
O8    Zn1   S    
C15   C19   A    
C75   C76   S    
C41   N2    A    
C2    C78   A    
C92   H83   S    
O10   Zn2   S    
C9    C20   A    
C74   H31   S    
C5    C23   A    
C8    C12   S    
C40   C55   A    
C91   H84   S    
C62   C63   S    
C16   C67   S    
C68   H14   S    
C12   O5    A    
C84   C85   S    
C56   C82   S    
C9    C11   A    
C38   C47   A    
C92   H82   S    
C35   N4    A    
C62   H4    S    
N4    Zn1   S    
C93   H91   S    
C25   H1    S    
C85   H64   S    
C21   C28   A    
C88   C90   S    
C8    C15   A    
C91   H85   S    
C43   C44   A    
C22   C24   A    
C37   C43   A    
C42   C43   A    
C65   H7    S    
C90   H76   S    
O5    Zn2   S    
C84   H66   S    
C86   C87   S    
C49   O3    S    
C11   C95   S    
C76   H38   S    
C79   H41   S    
C18   C22   A    
O7    Zn1   S    
C1    O1    A    
C86   H71   S    
C41   O2    S    
C3    C5    A    
C10   C13   A    
C76   H37   S    
C64   H10   S    
C29   C75   S    
C20   C27   A    
C70   H19   S    
C25   C27   A    
C94   H86   S    
C60   H49   S    
C26   C28   A    
C88   H80   S    
C72   H26   S    
C3    C89   A    
C66   H16   S    
C64   C65   S    
C36   C38   A    
C19   C24   A    
C41   C57   A    
C72   H27   S    
C29   C31   A    
C30   C32   A    
C76   H36   S    
C81   H51   S    
C83   H57   S    
C74   H30   S    
C49   N1    A    
O9    Zn2   S    
C44   H47   S    
C81   H53   S    
C2    C4    A    
C55   C61   A    
C17   O9    A    
C17   C78   S    
C30   C39   A    
C2    C86   S    
C28   C91   S    
C18   C20   A    
C68   H13   S    
C69   C70   S    
O1    Zn1   S    
C92   H81   S    
C32   N4    A    
C10   C69   S    
C71   C72   S    
C79   H42   S    
C33   N3    A    
C14   H78   S    
C82   C83   S    
C22   C26   A    
C23   H45   S    
O11   Zn1   S    
C71   H29   S    
C85   H63   S    
C65   H8    S    
C51   C53   A    
C94   H87   S    
C16   O8    A    
C6    N1    S    
C95   H96   S    
C84   H65   S    
C5    N2    S    
C19   C21   A    
C54   C57   A    
