data_mof_unit_56575.cif
_audit_creation_date              2012-12-11T16:22:22-0500
_audit_creation_method            fapswitch 2.2
_symmetry_space_group_name_H-M    P1
_symmetry_Int_Tables_number       1
_space_group_crystal_system       triclinic
_cell_length_a                    19.59962
_cell_length_b                    6.941074
_cell_length_c                    17.805134
_cell_angle_alpha                 90.117814
_cell_angle_beta                  108.154837
_cell_angle_gamma                 89.651432
_cell_volume                      2301.62602924

loop_
_atom_site_label
_atom_site_type_symbol
_atom_type_description
_atom_site_fract_x
_atom_site_fract_y
_atom_site_fract_z
_atom_type_partial_charge
O1    O     O_R   0.561700 0.369960 0.440190 -0.540299
O2    O     O_R   0.061700 0.630040 0.940190 -0.540894
O3    O     O_R   0.413790 0.033680 0.407460 -0.541999
O4    O     O_R   0.913790 0.966320 0.907460 -0.537941
O5    O     O_R   0.438300 0.869760 0.559810 -0.506766
O6    O     O_R   0.938300 0.130240 0.059810 -0.511445
C1    C     C_R   0.386769 0.204094 0.384689 0.744025
C2    C     C_R   0.886706 0.796410 0.884775 0.756685
O7    O     O_R   0.559630 0.039830 0.430710 -0.543937
O8    O     O_R   0.059630 0.960170 0.930710 -0.544342
O9    O     O_R   0.585190 0.875950 0.583220 -0.538958
O10   O     O_R   0.085190 0.124050 0.083220 -0.540394
C3    C     C_R   0.580885 0.208388 0.415581 0.682531
C4    C     C_R   0.080933 0.790519 0.915665 0.684452
O11   O     O_R   0.414810 0.363770 0.416780 -0.544712
O12   O     O_R   0.914810 0.636230 0.916780 -0.540979
O13   O     O_3   0.508210 0.205480 0.550010 -0.358985
O14   O     O_3   0.008210 0.794520 0.050010 -0.368707
V1    V     V_3+5 0.498480 0.928140 0.490720 1.433950
V2    V     V_3+5 0.998480 0.071860 0.990720 1.429565
O15   O     O_R   0.586210 0.546600 0.592540 -0.546125
O16   O     O_R   0.086210 0.453400 0.092540 -0.548889
C5    C     C_R   0.613517 0.715744 0.615385 0.738572
C6    C     C_R   0.113238 0.283725 0.115710 0.727380
O17   O     O_R   0.440370 0.540460 0.569290 -0.545717
O18   O     O_R   0.940370 0.459540 0.069290 -0.549225
C7    C     C_R   0.418439 0.710135 0.584172 0.739411
C8    C     C_R   0.921149 0.290425 0.087240 0.730904
V3    V     V_3+5 0.501520 0.428910 0.509280 1.417979
V4    V     V_3+5 0.001520 0.571090 0.009280 1.406154
O19   O     O_3   0.491790 0.701440 0.449990 -0.377426
O20   O     O_3   0.991790 0.298560 0.949990 -0.373832
C9    C     C_R   0.287895 0.902582 0.688338 -0.313650
C10   C     C_R   0.809525 0.086922 0.209768 -0.296703
H1    H     H_    0.262673 0.036693 0.696041 0.169334
H2    H     H_    0.793556 0.946945 0.223775 0.195871
C11   C     C_R   0.332703 0.897198 0.639821 0.442951
C12   C     C_R   0.861894 0.098535 0.171291 0.424821
C13   C     C_R   0.368915 0.723227 0.633262 -0.202121
C14   C     C_R   0.876012 0.277757 0.141246 -0.220041
C15   C     C_R   0.357331 0.559334 0.673811 -0.323461
C16   C     C_R   0.847719 0.444770 0.165599 -0.323547
C17   C     C_R   0.312226 0.565456 0.721348 0.433044
C18   C     C_R   0.805625 0.433203 0.216687 0.443276
C19   C     C_R   0.275768 0.737873 0.727971 -0.070623
C20   C     C_R   0.780401 0.253257 0.233067 -0.065639
C21   C     C_R   0.176829 0.601697 0.775025 -0.108512
C22   C     C_R   0.670479 0.371986 0.265857 -0.093789
H3    H     H_    0.173647 0.476586 0.737739 0.142512
H4    H     H_    0.662728 0.484393 0.221893 0.145734
C23   C     C_R   0.130189 0.614387 0.820523 -0.192793
C24   C     C_R   0.623347 0.363564 0.311005 -0.198618
C25   C     C_R   0.129844 0.778362 0.866881 -0.043381
C26   C     C_R   0.630017 0.216618 0.366999 -0.041262
C27   C     C_R   0.177705 0.928444 0.867456 -0.169467
C28   C     C_R   0.685125 0.079447 0.377461 -0.166221
H5    H     H_    0.179136 0.055810 0.903167 0.119599
H6    H     H_    0.692086 0.966110 0.420995 0.117360
C29   C     C_R   0.225694 0.913434 0.823660 -0.161231
C30   C     C_R   0.733717 0.091998 0.334311 -0.166116
H7    H     H_    0.263141 0.029461 0.827226 0.131832
H8    H     H_    0.777827 0.990911 0.346935 0.125646
C31   C     C_R   0.225915 0.750024 0.776663 0.125490
C32   C     C_R   0.727208 0.238044 0.277783 0.126268
C33   C     C_2   0.712751 0.896529 0.710173 -0.122181
C34   C     C_2   0.212673 0.102756 0.211147 -0.138291
C35   C     C_2   0.680460 0.726446 0.683350 -0.313736
C36   C     C_2   0.179749 0.272584 0.184169 -0.315246
H9    H     H_    0.688501 0.029157 0.681499 0.138019
H10   H     H_    0.189019 0.969992 0.182566 0.138103
H11   H     H_    0.702519 0.591380 0.710927 0.126021
H12   H     H_    0.201038 0.407561 0.212045 0.129034
C37   C     C_2   0.780105 0.921075 0.777856 -0.140297
C38   C     C_2   0.280084 0.079219 0.278887 -0.136496
C39   C     C_2   0.820389 0.774118 0.817120 -0.308355
C40   C     C_2   0.320481 0.226584 0.316916 -0.309100
H13   H     H_    0.796939 0.067694 0.795266 0.133223
H14   H     H_    0.296894 0.932827 0.297428 0.130606
H15   H     H_    0.804653 0.627123 0.800068 0.132264
H16   H     H_    0.304791 0.373420 0.298886 0.130390
O21   O     O_3   0.347941 0.064459 0.605403 -0.563913
C41   C     C_3   0.285363 0.156785 0.555981 0.089549
H17   H     H_    0.302829 0.295962 0.537507 0.143961
H18   H     H_    0.246349 0.195305 0.587333 0.117253
C42   C     C_3   0.249051 0.040003 0.481039 -0.343228
H19   H     H_    0.289718 0.995848 0.452669 0.203000
H20   H     H_    0.224689 0.907813 0.496561 0.179282
C43   C     C_3   0.190435 0.159093 0.422611 -0.833349
H21   H     H_    0.147238 0.195795 0.448479 0.226610
H22   H     H_    0.166904 0.075589 0.367662 0.242902
H23   H     H_    0.213054 0.294031 0.406983 0.230818
O22   O     O_3   0.900579 0.933955 0.166743 -0.565928
C44   C     C_3   0.966992 0.939853 0.228522 0.093214
H24   H     H_    0.959978 0.984713 0.285977 0.087800
H25   H     H_    0.003792 0.043029 0.213100 0.119720
C45   C     C_3   0.001834 0.739638 0.240221 -0.289339
H26   H     H_    0.969220 0.640118 0.263395 0.170370
H27   H     H_    0.004082 0.682747 0.183009 0.235484
C46   C     C_3   0.077920 0.743300 0.297806 -0.879900
H28   H     H_    0.112890 0.832030 0.273286 0.231772
H29   H     H_    0.100085 0.594446 0.306888 0.231076
H30   H     H_    0.077854 0.802556 0.355783 0.238197
H31   H     H_    0.384598 0.425380 0.670054 0.189877
H32   H     H_    0.860678 0.584993 0.147949 0.210146
O23   O     O_3   0.303561 0.399820 0.760294 -0.589790
C47   C     C_3   0.352120 0.399177 0.838135 0.061032
H33   H     H_    0.322193 0.350567 0.878308 0.137945
H34   H     H_    0.374508 0.543860 0.860112 0.112078
C48   C     C_3   0.413397 0.256676 0.843636 -0.301196
H35   H     H_    0.390866 0.113168 0.821829 0.205943
H36   H     H_    0.445397 0.307292 0.805930 0.195494
C49   C     C_3   0.462751 0.236401 0.928506 -0.837286
H37   H     H_    0.486822 0.377745 0.951257 0.233920
H38   H     H_    0.506680 0.132914 0.930388 0.236106
H39   H     H_    0.432279 0.181492 0.967111 0.229276
O24   O     O_3   0.792736 0.597646 0.253984 -0.583839
C50   C     C_3   0.847899 0.619901 0.327396 0.058235
H40   H     H_    0.869757 0.767523 0.329182 0.137838
H41   H     H_    0.894733 0.519820 0.336611 0.094813
C51   C     C_3   0.817385 0.594777 0.396249 -0.304258
H42   H     H_    0.764331 0.667666 0.382691 0.208664
H43   H     H_    0.809711 0.439294 0.405154 0.197583
C52   C     C_3   0.867861 0.676402 0.473010 -0.854908
H44   H     H_    0.921069 0.603677 0.488089 0.233964
H45   H     H_    0.844806 0.652199 0.521797 0.234878
H46   H     H_    0.874864 0.833781 0.467196 0.228445
H47   H     H_    0.093429 0.497069 0.818354 0.126001
H48   H     H_    0.581013 0.470496 0.301418 0.123132

loop_
_geom_bond_atom_site_label_1
_geom_bond_atom_site_label_2
_ccdc_geom_bond_type
C34   C36   D    
C44   H24   S    
C27   C29   A    
C9    C19   A    
O4    C2    A    
V1    O19   S    
C49   H38   S    
O21   C41   S    
C24   H48   S    
C52   H44   S    
C13   C15   A    
C42   H19   S    
O9    V1    S    
C38   C40   D    
C12   C14   A    
O3    C1    A    
C50   H41   S    
C21   C31   A    
C52   H45   S    
C47   H33   S    
C8    C14   S    
O12   V4    S    
C34   C38   S    
C45   C46   S    
C12   O22   S    
C33   C37   S    
O24   C50   S    
C30   H8    S    
C17   O23   S    
C5    C35   S    
O7    C3    A    
O13   V1    S    
O5    C7    A    
O7    V1    S    
O6    C8    A    
C7    C13   S    
C33   C35   D    
C45   H27   S    
C46   H30   S    
O3    V1    S    
O14   V4    S    
C35   H11   S    
C51   C52   S    
C24   C26   A    
C22   H4    S    
C2    O12   A    
V3    O19   S    
C15   C17   A    
C11   O21   S    
C16   C18   A    
C49   H37   S    
C51   H43   S    
O11   V3    S    
C25   C27   A    
O17   V3    S    
C26   C28   A    
C29   H7    S    
C42   H20   S    
C21   H3    S    
O8    C4    A    
C48   C49   S    
O8    V2    S    
C52   H46   S    
C21   C23   A    
C1    O11   A    
C18   C20   A    
O15   V3    S    
C19   C31   S    
C2    C39   S    
C9    C11   A    
C28   C30   A    
C20   C32   S    
C23   C25   A    
C46   H28   S    
C43   H23   S    
C36   H12   S    
C45   H26   S    
O10   V2    S    
O1    V3    S    
C27   H5    S    
C17   C19   A    
C10   C20   A    
C46   H29   S    
C43   H22   S    
O18   V4    S    
C44   C45   S    
C41   H18   S    
O15   C5    A    
O16   C6    A    
C50   C51   S    
O1    C3    A    
C37   C39   D    
C51   H42   S    
C3    C26   S    
V2    O20   S    
C42   C43   S    
O16   V4    S    
C10   C12   A    
O18   C8    A    
C40   H16   S    
C14   C16   A    
C16   H32   S    
C1    C40   S    
O5    V1    S    
O17   C7    A    
C41   C42   S    
O6    V2    S    
O23   C47   S    
O10   C6    A    
C29   C31   A    
O2    V4    S    
C30   C32   A    
C23   H47   S    
C48   H36   S    
C11   C13   A    
O13   V3    S    
V4    O20   S    
C34   H10   S    
C47   H34   S    
C33   H9    S    
O9    C5    A    
O22   C44   S    
C9    H1    S    
C10   H2    S    
C28   H6    S    
O14   V2    S    
O2    C4    A    
C22   C32   A    
C6    C36   S    
O4    V2    S    
C15   H31   S    
C22   C24   A    
C4    C25   S    
C43   H21   S    
C18   O24   S    
C44   H25   S    
C41   H17   S    
C38   H14   S    
C48   H35   S    
C37   H13   S    
C50   H40   S    
C39   H15   S    
C49   H39   S    
C47   C48   S    
