data_mof_unit_57974.cif
_audit_creation_date              2012-12-11T15:09:34-0500
_audit_creation_method            fapswitch 2.2
_symmetry_space_group_name_H-M    P1
_symmetry_Int_Tables_number       1
_space_group_crystal_system       triclinic
_cell_length_a                    20.920044
_cell_length_b                    7.12772
_cell_length_c                    13.997553
_cell_angle_alpha                 89.999816
_cell_angle_beta                  98.067384
_cell_angle_gamma                 90.000336
_cell_volume                      2066.55054151

loop_
_atom_site_label
_atom_site_type_symbol
_atom_type_description
_atom_site_fract_x
_atom_site_fract_y
_atom_site_fract_z
_atom_type_partial_charge
O1    O     O_R   0.447130 0.507140 0.597350 -0.537466
O2    O     O_R   0.552870 0.007140 0.402650 -0.537465
O3    O     O_R   0.578910 0.181280 0.586990 -0.539616
O4    O     O_R   0.421090 0.681280 0.413010 -0.539625
C1    C     C_R   0.604442 0.344537 0.607523 0.729483
C2    C     C_R   0.395557 0.844537 0.392478 0.729510
O5    O     O_R   0.449230 0.177860 0.608640 -0.539561
O6    O     O_R   0.550770 0.677860 0.391360 -0.539563
O7    O     O_R   0.422260 0.000770 0.424450 -0.534381
O8    O     O_R   0.577740 0.500770 0.575550 -0.534388
C3    C     C_R   0.433120 0.346005 0.635097 0.689674
C4    C     C_R   0.566880 0.846007 0.364902 0.689677
O9    O     O_3   0.491310 0.336980 0.439550 -0.373503
O10   O     O_3   0.508690 0.836980 0.560450 -0.373503
V1    V     V_3+5 0.501610 0.064760 0.511210 1.424868
V2    V     V_3+5 0.498390 0.564760 0.488790 1.424850
C5    C     C_R   0.619742 0.804302 0.121070 -0.116501
C6    C     C_R   0.380253 0.304186 0.878921 -0.116556
H1    H     H_    0.528564 0.798860 0.174394 0.110530
H2    H     H_    0.471430 0.298742 0.825599 0.110528
H3    H     H_    0.597042 0.778979 0.047803 0.161592
H4    H     H_    0.402948 0.278808 0.952185 0.161556
C7    C     C_R   0.607251 0.851085 0.288015 -0.024230
C8    C     C_R   0.392748 0.351076 0.711984 -0.024238
C9    C     C_R   0.920073 0.892367 0.305299 -0.167309
C10   C     C_R   0.079927 0.392423 0.694703 -0.167293
C11   C     C_R   0.882644 0.905462 0.379328 -0.122926
C12   C     C_R   0.117357 0.405540 0.620675 -0.122924
C13   C     C_R   0.815672 0.893099 0.359567 -0.136802
C14   C     C_R   0.184328 0.393155 0.640433 -0.136797
C15   C     C_R   0.784128 0.865113 0.264073 0.075546
C16   C     C_R   0.215871 0.365125 0.735923 0.075550
C17   C     C_R   0.822966 0.847044 0.188908 0.017032
C18   C     C_R   0.177032 0.347027 0.811088 0.016962
C19   C     C_R   0.715584 0.853661 0.241018 0.010589
C20   C     C_R   0.284415 0.353651 0.758977 0.010612
C21   C     C_R   0.687306 0.820791 0.143686 0.057539
C22   C     C_R   0.312690 0.320712 0.856303 0.057473
C23   C     C_R   0.726259 0.803945 0.070007 0.390937
C24   C     C_R   0.273734 0.303836 0.929974 0.390833
C25   C     C_R   0.793532 0.814569 0.093700 -0.305542
C26   C     C_R   0.206465 0.314498 0.906290 -0.305413
C27   C     C_R   0.673904 0.871116 0.311864 -0.184276
C28   C     C_R   0.326096 0.371146 0.688136 -0.184280
C29   C     C_R   0.580246 0.817070 0.192880 -0.196932
C30   C     C_R   0.419751 0.316986 0.807115 -0.196876
C31   C     C_R   0.890995 0.863004 0.210455 -0.045278
C32   C     C_R   0.109004 0.363013 0.789543 -0.045288
H5    H     H_    0.691445 0.895233 0.386900 0.093284
H6    H     H_    0.308557 0.395320 0.613104 0.093292
H7    H     H_    0.972021 0.906896 0.321842 0.100880
H8    H     H_    0.027980 0.406973 0.678162 0.100880
H9    H     H_    0.790358 0.905974 0.421040 0.104700
H10   H     H_    0.209643 0.406046 0.578961 0.104703
H11   H     H_    0.905662 0.927691 0.452682 0.118211
H12   H     H_    0.094339 0.427804 0.547324 0.118211
H13   H     H_    0.822972 0.792776 0.037150 0.124978
H14   H     H_    0.177032 0.292680 0.962849 0.125103
C33   C     C_1   0.166778 0.857363 0.167878 -0.201971
C34   C     C_1   0.833221 0.357363 0.832123 -0.202089
C35   C     C_1   0.219221 0.855328 0.218878 0.005300
C36   C     C_1   0.780778 0.355329 0.781124 0.005221
C37   C     C_1   0.280927 0.853983 0.278978 -0.003201
C38   C     C_1   0.719072 0.353985 0.721025 -0.003110
C39   C     C_1   0.333234 0.851398 0.330338 -0.208831
C40   C     C_1   0.666765 0.351399 0.669665 -0.208795
O11   O     O_R   0.922300 0.202240 0.924350 -0.534287
O12   O     O_R   0.077700 0.702240 0.075650 -0.534292
O13   O     O_R   0.050780 0.535130 0.891350 -0.539121
O14   O     O_R   0.949220 0.035130 0.108650 -0.539123
C41   C     C_R   0.067759 0.368377 0.865714 0.684869
C42   C     C_R   0.932242 0.868376 0.134287 0.684869
O15   O     O_R   0.921100 0.531560 0.912990 -0.539466
O16   O     O_R   0.078900 0.031560 0.087010 -0.539442
O17   O     O_R   0.947120 0.708470 0.097370 -0.538186
O18   O     O_R   0.052880 0.208470 0.902630 -0.538183
C43   C     C_R   0.895800 0.363610 0.893623 0.716774
C44   C     C_R   0.104199 0.863611 0.106377 0.716777
O19   O     O_3   0.008710 0.375800 0.060400 -0.373683
O20   O     O_3   0.991290 0.875800 0.939600 -0.373690
V3    V     V_3+5 0.998380 0.648080 0.988790 1.418089
V4    V     V_3+5 0.001620 0.148080 0.011210 1.418125
O21   O     O_3   0.697493 0.758414 0.977107 -0.558450
C45   C     C_3   0.720325 0.873653 0.906900 0.090188
H15   H     H_    0.766321 0.816542 0.887765 0.130801
H16   H     H_    0.727566 0.021914 0.931711 0.121800
C46   C     C_3   0.671024 0.873042 0.815983 -0.674903
H17   H     H_    0.625007 0.936365 0.831238 0.211498
H18   H     H_    0.689611 0.955431 0.758485 0.180166
H19   H     H_    0.661754 0.727030 0.789986 0.227130
O22   O     O_3   0.302479 0.258219 0.022866 -0.558418
C47   C     C_3   0.279826 0.373985 0.093018 0.090148
H20   H     H_    0.233735 0.317597 0.112172 0.130748
H21   H     H_    0.272825 0.522274 0.068141 0.121806
C48   C     C_3   0.329122 0.372945 0.183941 -0.674957
H22   H     H_    0.375245 0.435538 0.168659 0.211468
H23   H     H_    0.310671 0.455790 0.241396 0.180211
H24   H     H_    0.338147 0.226884 0.210010 0.227159

loop_
_geom_bond_atom_site_label_1
_geom_bond_atom_site_label_2
_ccdc_geom_bond_type
C14   C16   A    
C46   H17   S    
C37   C39   T    
C7    C29   A    
C11   C13   A    
C48   H22   S    
O11   C43   A    
C45   C46   S    
O2    C4    A    
C26   H14   S    
C2    O7    A    
C12   H12   S    
C48   H24   S    
C23   C25   A    
O5    C3    A    
C14   H10   S    
C4    C7    S    
O12   V3    S    
C16   C20   A    
C19   C21   A    
C45   H16   S    
C41   O18   A    
O20   V3    S    
C11   H11   S    
C3    C8    S    
C7    C27   A    
C34   C36   T    
O13   C41   A    
C36   C38   S    
C46   H19   S    
C2    C39   S    
C18   C26   A    
O1    C3    A    
C15   C17   A    
C19   C27   A    
C9    C31   A    
C10   C32   A    
C24   C26   A    
O6    V2    S    
O16   V4    S    
C42   O17   A    
C6    C30   A    
C33   C44   S    
O15   V3    S    
O12   C44   A    
C34   C43   S    
C33   C35   T    
C45   H15   S    
O20   V4    S    
O18   V4    S    
O22   C47   S    
O19   V3    S    
C27   H5    S    
O5    V1    S    
C47   C48   S    
C5    H3    S    
H1    C29   S    
C16   C18   A    
O4    V2    S    
C9    H7    S    
C10   H8    S    
O21   C45   S    
O6    C4    A    
C47   H21   S    
O1    V2    S    
C5    C21   A    
O2    V1    S    
O4    C2    A    
C46   H18   S    
C17   C31   A    
C15   C19   A    
C20   C28   A    
C18   C32   A    
C32   C41   S    
O3    V1    S    
C28   H6    S    
C6    H4    S    
C35   C37   S    
O17   V3    S    
C5    C29   A    
C1    C40   S    
O3    C1    A    
O19   V4    S    
C48   H23   S    
C9    C11   A    
C10   C12   A    
C17   C25   A    
C20   C22   A    
C6    C22   A    
C8    C30   A    
C1    O8    A    
C21   C23   A    
O8    V2    S    
C22   C24   A    
C13   H9    S    
C8    C28   A    
C12   C14   A    
C47   H20   S    
C24   O22   S    
O7    V1    S    
O14   V4    S    
C31   C42   S    
C23   O21   S    
O13   V3    S    
C25   H13   S    
O11   V4    S    
C13   C15   A    
O16   C44   A    
O9    V2    S    
O15   C43   A    
O10   V1    S    
O14   C42   A    
H2    C30   S    
C38   C40   T    
