data_mof_unit_38413.cif
_audit_creation_date              2013-03-05T16:40:44-0500
_audit_creation_method            fapswitch 2.2
_symmetry_space_group_name_H-M    P1
_symmetry_Int_Tables_number       1
_space_group_crystal_system       triclinic
_cell_length_a                    17.794751
_cell_length_b                    16.574284
_cell_length_c                    10.761597
_cell_angle_alpha                 90.04538
_cell_angle_beta                  98.460267
_cell_angle_gamma                 90.047011
_cell_volume                      3139.4331957

loop_
_atom_site_label
_atom_site_type_symbol
_atom_site_description
_atom_site_fract_x
_atom_site_fract_y
_atom_site_fract_z
_atom_type_partial_charge
O1    O     O_R   0.391260 0.567930 0.500000 -0.502889
O2    O     O_R   0.608740 0.432070 0.500000 -0.504066
O3    O     O_R   0.608740 0.567930 0.500000 -0.502515
O4    O     O_R   0.391260 0.432070 0.500000 -0.504024
C1    C     C_R   0.355699 0.499981 0.506233 0.953807
C2    C     C_R   0.644294 0.500056 0.493667 0.954482
O5    O     O_R   0.500000 0.567910 0.319660 -0.536945
O6    O     O_R   0.500000 0.432090 0.680340 -0.538747
O7    O     O_R   0.500000 0.567910 0.680340 -0.536501
O8    O     O_R   0.500000 0.432090 0.319660 -0.537156
C3    C     C_R   0.509513 0.500137 0.263934 0.856310
C4    C     C_R   0.490484 0.500098 0.736045 0.854735
Cu1   Cu    Cu3+1 0.500000 0.580420 0.500000 1.122457
Cu2   Cu    Cu3+1 0.500000 0.419580 0.500000 1.160215
C5    C     C_R   0.546779 0.648180 0.116065 0.294753
C6    C     C_R   0.453257 0.352659 0.884132 0.329491
C7    C     C_R   0.451166 0.647328 0.883847 0.293730
C8    C     C_R   0.548876 0.353539 0.115970 0.312923
C9    C     C_R   0.527075 0.722063 0.052987 0.273421
C10   C     C_R   0.476384 0.278554 0.942261 0.317495
C11   C     C_R   0.469363 0.721494 0.947273 0.272262
C12   C     C_R   0.526668 0.279003 0.058198 0.290797
C13   C     C_R   0.482458 0.574365 0.936952 -0.039256
C14   C     C_R   0.518020 0.426930 0.062648 -0.137471
C15   C     C_R   0.516585 0.574641 0.062985 -0.042094
C16   C     C_R   0.483114 0.426630 0.937310 -0.144943
C17   C     C_R   0.477894 0.500413 0.869840 -0.065450
C18   C     C_R   0.522162 0.500724 0.130125 -0.064257
C19   C     C_R   0.847222 0.573580 0.497482 0.265173
C20   C     C_R   0.155149 0.428095 0.537509 0.264812
C21   C     C_R   0.153200 0.573538 0.505779 0.264742
C22   C     C_R   0.844371 0.428866 0.458213 0.270837
C23   C     C_R   0.767020 0.574305 0.485236 0.282211
C24   C     C_R   0.234441 0.426772 0.533404 0.254189
C25   C     C_R   0.233409 0.574022 0.518109 0.285265
C26   C     C_R   0.765072 0.427474 0.462271 0.263411
C27   C     C_R   0.726660 0.500446 0.481136 -0.207800
C28   C     C_R   0.273318 0.500117 0.518532 -0.207425
C29   C     C_R   0.884758 0.500795 0.484080 -0.068493
C30   C     C_R   0.115215 0.500518 0.515421 -0.067658
C31   C     C_1   0.965999 0.500269 0.494868 0.225009
C32   C     C_1   0.033970 0.500190 0.504582 0.224323
C33   C     C_R   0.553463 0.830904 0.583220 0.335438
C34   C     C_R   0.446415 0.169071 0.416971 0.311111
C35   C     C_R   0.442788 0.830727 0.424642 0.333696
C36   C     C_R   0.555682 0.169219 0.578530 0.308672
C37   C     C_R   0.553184 0.744959 0.582980 0.450317
C38   C     C_R   0.446920 0.255031 0.416769 0.519157
C39   C     C_R   0.445687 0.744929 0.419421 0.451176
C40   C     C_R   0.553741 0.255107 0.581815 0.513255
N1    N     N_R   0.500000 0.701220 0.500000 -0.376446
N2    N     N_R   0.500000 0.298780 0.500000 -0.335965
C41   C     C_R   0.497995 0.874279 0.504167 -0.226187
C42   C     C_R   0.500964 0.125667 0.497911 -0.244566
C43   C     C_1   0.499028 0.963162 0.501862 0.029333
C44   C     C_1   0.499835 0.036793 0.500310 0.031265
S1    S     S_3+6 0.562216 0.187996 0.134614 0.129815
O9    O     O_2   0.499618 0.127036 0.133695 -0.188923
O10   O     O_2   0.622741 0.153762 0.066199 -0.193220
O11   O     O_3   0.600298 0.204428 0.285046 -0.495080
H1    H     H_    0.619983 0.151267 0.316733 0.365594
S2    S     S_3+6 0.415392 0.809912 0.900393 0.118617
O12   O     O_2   0.333835 0.787370 0.857428 -0.239399
O13   O     O_2   0.418033 0.868846 0.007176 -0.126580
O14   O     O_3   0.450670 0.854023 0.780953 -0.535245
H2    H     H_    0.418736 0.902470 0.760087 0.385104
S3    S     S_3+6 0.440830 0.186960 0.867498 0.148707
O15   O     O_2   0.503293 0.125827 0.869582 -0.172829
O16   O     O_2   0.380225 0.153690 0.936732 -0.175643
O17   O     O_3   0.402805 0.202111 0.716747 -0.490487
H3    H     H_    0.384084 0.148455 0.685474 0.367558
S4    S     S_3+6 0.579198 0.811727 0.100130 0.121287
O18   O     O_2   0.661146 0.791254 0.143624 -0.238153
O19   O     O_2   0.575602 0.870543 0.993179 -0.133776
O20   O     O_3   0.542664 0.854870 0.219216 -0.519226
H4    H     H_    0.573578 0.904083 0.240272 0.387025
O21   O     O_3   0.600591 0.645098 0.222426 -0.669822
H5    H     H_    0.596081 0.694597 0.272361 0.374927
O22   O     O_3   0.396288 0.351622 0.781918 -0.600682
H6    H     H_    0.370982 0.404992 0.773832 0.324316
O23   O     O_3   0.397774 0.643297 0.777031 -0.669986
H7    H     H_    0.401488 0.693093 0.727519 0.375359
O24   O     O_3   0.605673 0.353578 0.218371 -0.603523
H8    H     H_    0.630329 0.407343 0.226161 0.322549
O25   O     O_3   0.890276 0.642756 0.522625 -0.667983
H9    H     H_    0.861220 0.681978 0.566214 0.361772
O26   O     O_3   0.115117 0.359864 0.561671 -0.670682
H10   H     H_    0.147623 0.327266 0.625401 0.354671
O27   O     O_3   0.110567 0.643176 0.484165 -0.668224
H11   H     H_    0.139848 0.683221 0.442527 0.361829
O28   O     O_3   0.883962 0.361177 0.430365 -0.668915
H12   H     H_    0.851182 0.329818 0.365167 0.352287
O29   O     O_3   0.727144 0.645931 0.473089 -0.635611
H13   H     H_    0.757143 0.686810 0.434495 0.366939
O30   O     O_3   0.275129 0.355531 0.545715 -0.625399
H14   H     H_    0.240361 0.309255 0.525733 0.380339
O31   O     O_3   0.273742 0.645367 0.533932 -0.637491
H15   H     H_    0.243937 0.685528 0.574347 0.367069
O32   O     O_3   0.723897 0.356596 0.445698 -0.627416
H16   H     H_    0.758275 0.309885 0.463829 0.379606
O33   O     O_3   0.609321 0.870351 0.664796 -0.584022
H17   H     H_    0.596144 0.927623 0.674918 0.356817
O34   O     O_3   0.390618 0.129724 0.335112 -0.589731
H18   H     H_    0.402186 0.071756 0.328466 0.357105
O35   O     O_3   0.385722 0.870153 0.345873 -0.579600
H19   H     H_    0.379591 0.926071 0.374680 0.341648
O36   O     O_3   0.612381 0.129889 0.658232 -0.584190
H20   H     H_    0.617582 0.073335 0.631733 0.343348
S5    S     S_3+6 0.625040 0.703794 0.702106 0.116785
O37   O     O_2   0.610874 0.737655 0.825849 -0.251997
O38   O     O_2   0.632637 0.614389 0.717306 -0.271786
O39   O     O_3   0.709415 0.740013 0.674789 -0.446506
H21   H     H_    0.745375 0.727344 0.751578 0.386265
S6    S     S_3+6 0.374610 0.296285 0.298238 0.115102
O40   O     O_2   0.367719 0.385686 0.282178 -0.279371
O41   O     O_2   0.386923 0.261481 0.174022 -0.255520
O42   O     O_3   0.290421 0.261399 0.328394 -0.467815
H22   H     H_    0.253892 0.274133 0.252319 0.388634
S7    S     S_3+6 0.374041 0.703825 0.299767 0.115724
O43   O     O_2   0.386991 0.739944 0.176966 -0.243103
O44   O     O_2   0.367995 0.614478 0.281773 -0.275099
O45   O     O_3   0.289232 0.737333 0.329339 -0.453124
H23   H     H_    0.253163 0.724665 0.252616 0.385995
S8    S     S_3+6 0.627820 0.296588 0.697192 0.110933
O46   O     O_2   0.702699 0.270767 0.661648 -0.227602
O47   O     O_2   0.631107 0.385631 0.719709 -0.286104
O48   O     O_3   0.620333 0.252638 0.835326 -0.480971
H24   H     H_    0.665941 0.270409 0.892965 0.387693

loop_
_geom_bond_atom_site_label_1
_geom_bond_atom_site_label_2
_geom_bond_distance
_ccdc_geom_bond_type
O26   H10   0.990570 S    
O33   H17   0.987738 S    
C31   C32   1.198616 T    
C10   S3    1.788570 S    
O30   H14   0.988483 S    
C43   C44   1.220615 T    
O3    C2    1.297771 A    
C12   S1    1.789447 S    
O31   H15   0.990735 S    
C29   C31   1.433230 S    
C5    O21   1.381080 S    
O21   H5    0.990152 S    
C15   C18   1.418921 A    
C5    C9    1.419598 A    
C16   C17   1.418825 A    
C7    C13   1.416911 A    
O1    C1    1.297957 A    
C22   C26   1.418363 A    
C38   S6    1.808367 S    
C26   C27   1.418799 A    
C9    C11   1.416054 A    
C14   C16   1.399525 A    
C38   N2    1.403258 A    
S5    O38   1.495019 D    
O25   H9    0.990658 S    
S1    O10   1.502556 D    
C22   O28   1.381182 S    
C19   C23   1.413861 A    
C21   C30   1.397080 A    
C22   C29   1.398028 A    
O7    Cu1   1.951953 S    
S2    O13   1.503040 D    
Cu1   N1    2.002172 S    
C33   C41   1.403526 A    
Cu2   N2    2.002172 S    
O32   H16   0.988732 S    
C39   N1    1.402297 A    
C40   N2    1.402886 A    
O36   H20   0.987927 S    
O17   H3    0.990538 S    
C13   C17   1.418368 A    
C7    O23   1.380920 S    
C19   O25   1.382689 S    
O3    Cu1   1.946210 S    
O6    C4    1.299124 A    
C30   C32   1.433234 S    
C35   C41   1.403225 A    
C8    C12   1.412288 A    
Cu1   Cu2   2.665809 S    
C19   C29   1.397007 A    
C9    S4    1.784444 S    
O2    C2    1.298570 A    
S4    O20   1.679531 S    
O39   H21   0.990628 S    
C34   O34   1.388467 S    
C35   O35   1.387594 S    
S6    O40   1.494980 D    
S7    O44   1.495061 D    
C6    C16   1.421712 A    
C42   C44   1.473444 S    
C20   C24   1.418350 A    
C4    C17   1.489390 S    
S3    O15   1.502388 D    
C25   C28   1.416087 A    
C40   S8    1.807641 S    
C24   O30   1.381816 S    
S4    O19   1.503107 D    
O8    Cu2   1.951955 S    
S5    O39   1.682192 S    
O28   H12   0.990551 S    
S4    O18   1.503650 D    
S1    O11   1.682379 S    
C37   N1    1.402787 A    
O23   H7    0.990152 S    
C21   O27   1.382668 S    
C37   S5    1.806782 S    
C23   C27   1.416141 A    
O11   H1    0.990532 S    
S3    O16   1.502788 D    
O5    C3    1.295839 A    
O20   H4    0.990754 S    
C33   O33   1.388316 S    
S2    O12   1.503654 D    
O24   H8    0.990973 S    
C35   C39   1.424386 A    
C6    C10   1.412636 A    
C36   O36   1.387774 S    
C36   C42   1.403968 A    
C8    O24   1.381358 S    
C2    C27   1.491510 S    
C20   C30   1.398028 A    
O29   H13   0.990758 S    
C11   S2    1.784764 S    
S8    O48   1.678697 S    
C10   C12   1.424379 A    
C8    C14   1.421225 A    
O1    Cu1   1.945876 S    
C41   C43   1.473531 S    
O48   H24   0.990634 S    
S8    O47   1.495097 D    
S7    O45   1.682169 S    
O6    Cu2   1.951627 S    
S2    O14   1.678977 S    
C24   C28   1.418967 A    
C14   C18   1.418232 A    
O4    C1    1.298229 A    
C23   O29   1.379959 S    
S6    O41   1.500955 D    
S7    O43   1.499522 D    
O35   H19   0.988245 S    
C36   C40   1.424512 A    
S3    O17   1.682476 S    
C6    O22   1.381939 S    
C20   O26   1.381154 S    
C25   O31   1.380114 S    
O42   H22   0.990580 S    
S1    O9    1.502208 D    
C39   S7    1.806029 S    
C3    C18   1.489878 S    
C26   O32   1.381488 S    
C21   C25   1.413894 A    
C13   C15   1.402151 A    
O4    Cu2   1.946214 S    
O2    Cu2   1.945873 S    
O7    C4    1.296873 A    
C7    C11   1.419437 A    
S6    O42   1.681065 S    
C5    C15   1.417073 A    
O8    C3    1.300352 A    
O22   H6    0.990994 S    
C34   C42   1.404219 A    
O5    Cu1   1.951629 S    
O14   H2    0.990760 S    
S5    O37   1.499898 D    
O34   H18   0.987480 S    
O45   H23   0.990622 S    
O27   H11   0.990652 S    
C1    C28   1.491193 S    
C33   C37   1.424484 A    
C34   C38   1.424750 A    
S8    O46   1.501858 D    
