data_mof_unit_46217.cif
_audit_creation_date              2013-03-05T15:46:45-0500
_audit_creation_method            fapswitch 2.2
_symmetry_space_group_name_H-M    P1
_symmetry_Int_Tables_number       1
_space_group_crystal_system       triclinic
_cell_length_a                    10.216766
_cell_length_b                    10.832922
_cell_length_c                    12.287312
_cell_angle_alpha                 90.597521
_cell_angle_beta                  109.219524
_cell_angle_gamma                 95.713485
_cell_volume                      1276.4008065

loop_
_atom_site_label
_atom_site_type_symbol
_atom_site_description
_atom_site_fract_x
_atom_site_fract_y
_atom_site_fract_z
_atom_type_partial_charge
O1    O     O_R   0.936910 0.692950 0.509080 -0.560190
O2    O     O_R   0.138320 0.658600 0.480130 -0.607758
C1    C     C_R   0.053377 0.732505 0.495659 0.954421
O3    O     O_R   0.002900 0.525670 0.675280 -0.556527
O4    O     O_R   0.204310 0.491320 0.646330 -0.611076
C2    C     C_R   0.132306 0.505116 0.714087 0.860927
Zn1   Zn    Zn3+2 0.865520 0.522940 0.519330 1.044686
Zn2   Zn    Zn3+2 0.134480 0.477060 0.480670 0.943572
O5    O     O_R   0.861680 0.341400 0.519870 -0.624937
O6    O     O_R   0.063090 0.307050 0.490920 -0.619342
O7    O     O_R   0.795690 0.508680 0.353670 -0.633508
O8    O     O_R   0.997100 0.474330 0.324720 -0.611825
C3    C     C_R   0.950132 0.267933 0.510451 0.920345
C4    C     C_R   0.865740 0.487592 0.285988 0.859476
C5    C     C_R   0.731585 0.336007 0.989574 -0.167089
H1    H     H_    0.929016 0.347925 0.125651 0.158882
H2    H     H_    0.523156 0.251094 0.799706 0.150334
H3    H     H_    0.762518 0.271657 0.936868 0.141605
C6    C     C_R   0.787282 0.463260 0.164578 -0.058018
C7    C     C_R   0.152919 0.568285 0.913092 -0.168353
C8    C     C_R   0.232548 0.587203 0.028811 -0.146928
C9    C     C_R   0.365055 0.548040 0.068721 -0.191981
C10   C     C_R   0.416840 0.482683 0.993695 0.088668
C11   C     C_R   0.326331 0.445989 0.881960 0.091905
C12   C     C_R   0.555356 0.452351 0.025752 0.084392
C13   C     C_R   0.594863 0.369013 0.955210 0.187335
C14   C     C_R   0.496635 0.318310 0.852793 -0.211560
C15   C     C_R   0.363716 0.356054 0.816510 -0.184793
C16   C     C_R   0.656566 0.505118 0.125304 -0.244702
C17   C     C_R   0.827228 0.381263 0.095533 -0.194789
C18   C     C_R   0.201626 0.501919 0.838277 -0.123927
H4    H     H_    0.634521 0.576436 0.176721 0.152400
H5    H     H_    0.055235 0.608541 0.881616 0.199038
H6    H     H_    0.423035 0.567056 0.159097 0.134736
H7    H     H_    0.194084 0.637143 0.086746 0.153327
H8    H     H_    0.290022 0.312648 0.737455 0.166222
H9    H     H_    0.131230 0.108527 0.529401 0.190486
H10   H     H_    0.916534 0.897321 0.555138 0.231246
C19   C     C_2   0.089422 0.865146 0.503175 -0.375329
C20   C     C_2   0.007556 0.936248 0.534691 -0.121806
H11   H     H_    0.827013 0.096211 0.529364 0.167613
C21   C     C_2   0.927169 0.136856 0.525852 -0.363322
C22   C     C_2   0.030766 0.068303 0.532790 -0.169324
H12   H     H_    0.179877 0.904575 0.482278 0.162010
H13   H     H_    0.561146 0.420820 0.426478 0.095457
H14   H     H_    0.426339 0.584632 0.569984 0.242916
N1    N     N_2   0.313640 0.446500 0.454900 -0.230057
C23   C     C_2   0.429854 0.512718 0.509679 -0.058307
N2    N     N_2   0.686360 0.553430 0.545150 0.088982
C24   C     C_2   0.565274 0.491979 0.490695 -0.039482
H15   H     H_    0.317327 0.378190 0.397286 0.156537
S1    S     S_3+6 0.701183 0.664716 0.651915 0.085550
O9    O     O_2   0.613472 0.766781 0.600819 -0.336893
O10   O     O_2   0.652901 0.606333 0.744582 -0.320197
O11   O     O_3   0.868042 0.725891 0.710747 -0.538208
H16   H     H_    0.868105 0.785512 0.772495 0.357159

loop_
_geom_bond_atom_site_label_1
_geom_bond_atom_site_label_2
_geom_bond_distance
_ccdc_geom_bond_type
H9    C22   1.088390 S    
O4    Zn2   1.921348 S    
H10   C20   1.087980 S    
C10   C11   1.406267 A    
C19   H12   1.087371 S    
C8    H7    1.082756 S    
C5    H3    1.083710 S    
H11   C21   1.087463 S    
N1    C23   1.292892 D    
S1    O11   1.679784 S    
Zn2   O8    1.965343 S    
N2    S1    1.731217 S    
O11   H16   0.991048 S    
C23   C24   1.514058 S    
O2    C1    1.294107 A    
Zn2   N1    2.015047 S    
C1    C19   1.441629 S    
C8    C9    1.390980 A    
S1    O9    1.503684 D    
Zn1   O7    1.921348 S    
C15   H8    1.081679 S    
C13   C14   1.391710 A    
H13   C24   1.085150 S    
O3    Zn1   1.965343 S    
C7    H5    1.082516 S    
Zn2   O6    1.933284 S    
C3    C21   1.440700 S    
S1    O10   1.504159 D    
C2    C18   1.458017 S    
C16   H4    1.079301 S    
C10   C12   1.412148 A    
C12   C16   1.388254 A    
O4    C2    1.295830 A    
C9    H6    1.079041 S    
O7    C4    1.294774 A    
H14   C23   1.080881 S    
C11   C18   1.410223 A    
C21   C22   1.333207 D    
H1    C17   1.083076 S    
H2    C14   1.083900 S    
C19   C20   1.333453 D    
C7    C8    1.387344 A    
Zn1   N2    2.015135 S    
C5    C17   1.394263 A    
O3    C2    1.292554 A    
N2    C24   1.305007 D    
C14   C15   1.387758 A    
Zn1   O5    1.963216 S    
O5    C3    1.293669 A    
C9    C10   1.418857 A    
C5    C13   1.404143 A    
N1    H15   1.030701 S    
C12   C13   1.419797 A    
O1    Zn1   1.933282 S    
C6    C17   1.399912 A    
C4    C6    1.449119 S    
O6    C3    1.286904 A    
C20   C22   1.428297 S    
O2    Zn2   1.963214 S    
C11   C15   1.414839 A    
O8    C4    1.291352 A    
O1    C1    1.286793 A    
C7    C18   1.402924 A    
C6    C16   1.386672 A    
