data_mof_unit_66248.cif
_audit_creation_date              2012-12-10T19:53:13-0500
_audit_creation_method            fapswitch 2.2
_symmetry_space_group_name_H-M    P1
_symmetry_Int_Tables_number       1
_space_group_crystal_system       triclinic
_cell_length_a                    18.271857
_cell_length_b                    18.271849
_cell_length_c                    38.85791
_cell_angle_alpha                 90.0
_cell_angle_beta                  89.999989
_cell_angle_gamma                 90.000014
_cell_volume                      12973.1256157

loop_
_atom_site_label
_atom_site_type_symbol
_atom_type_description
_atom_site_fract_x
_atom_site_fract_y
_atom_site_fract_z
_atom_type_partial_charge
C1    C     C_R   0.500000 0.141160 0.500000 0.949714
C2    C     C_R   1.000000 0.500000 0.215142 0.347407
C3    C     C_3   0.050179 0.675599 0.390160 -0.261555
C4    C     C_3   0.324403 0.949810 0.609840 -0.261555
C5    C     C_3   0.949824 0.675600 0.609840 -0.261555
C6    C     C_3   0.675597 0.050190 0.609840 -0.261556
C7    C     C_3   0.050176 0.324400 0.609840 -0.261554
C8    C     C_3   0.824410 0.550211 0.890160 -0.261558
C9    C     C_3   0.449819 0.824401 0.890160 -0.261556
C10   C     C_3   0.175590 0.449789 0.890160 -0.261558
C11   C     C_3   0.550181 0.175598 0.890160 -0.261555
C12   C     C_3   0.824409 0.449792 0.109840 -0.261561
C13   C     C_R   0.500000 1.000000 0.784858 0.347406
C14   C     C_3   0.449800 0.175592 0.109839 -0.261557
C15   C     C_3   0.175591 0.550209 0.109840 -0.261562
C16   C     C_3   0.550204 0.824407 0.109840 -0.261555
C17   C     C_R   0.000000 0.500000 0.784859 0.347406
C18   C     C_R   0.000000 0.500000 0.715142 0.347408
C19   C     C_R   0.500000 1.000000 0.715142 0.347406
C20   C     C_R   1.000000 0.500000 0.284858 0.347407
C21   C     C_R   0.500000 0.999999 0.284858 0.347409
C22   C     C_R   0.500000 0.000000 0.432701 0.973008
C23   C     C_R   0.000000 0.500000 0.432701 0.973002
C24   C     C_R   0.500000 0.000000 0.567299 0.973005
C25   C     C_R   0.858840 0.500000 0.500000 0.949710
C26   C     C_R   0.000000 0.500000 0.567299 0.972998
C27   C     C_R   0.000000 0.500000 0.932701 0.973017
C28   C     C_R   0.500000 1.000000 0.932701 0.973002
C29   C     C_R   0.000000 0.500000 0.067299 0.973015
C30   C     C_R   0.500000 0.000000 0.067299 0.973013
C31   C     C_1   0.500000 0.217560 0.500000 -0.169152
C32   C     C_1   0.782440 0.500000 0.500000 -0.169154
C33   C     C_1   0.500000 0.782440 0.500000 -0.169152
C34   C     C_1   0.217560 0.500000 0.500000 -0.169154
C35   C     C_1   1.000000 0.717560 0.000000 -0.169150
C36   C     C_R   0.500000 0.858840 0.500000 0.949714
C37   C     C_1   0.282440 1.000000 0.000000 -0.169153
C38   C     C_1   1.000000 0.282440 0.000000 -0.169150
C39   C     C_1   0.717560 0.000000 0.000000 -0.169153
C40   C     C_1   0.500000 0.282298 0.500000 -0.174966
C41   C     C_1   0.717702 0.500000 0.500000 -0.174966
C42   C     C_1   0.500000 0.717702 0.500000 -0.174965
C43   C     C_1   0.282298 0.500000 0.500000 -0.174966
C44   C     C_1   0.000000 0.782298 0.000000 -0.174965
C45   C     C_1   0.217702 1.000000 0.000000 -0.174965
C46   C     C_1   1.000000 0.217702 0.000000 -0.174964
C47   C     C_R   0.141160 0.500000 0.500000 0.949710
C48   C     C_1   0.782298 0.000000 0.000000 -0.174965
C49   C     C_R   0.445320 0.038491 0.376853 0.460526
C50   C     C_R   0.961512 0.445317 0.376853 0.460528
C51   C     C_R   0.554680 0.961509 0.376853 0.460525
C52   C     C_R   0.038488 0.554682 0.376853 0.460528
C53   C     C_R   0.445320 0.961508 0.623147 0.460527
C54   C     C_R   0.961513 0.554683 0.623147 0.460528
C55   C     C_R   0.554680 0.038491 0.623147 0.460527
C56   C     C_R   0.038487 0.445317 0.623147 0.460528
C57   C     C_R   0.945324 0.538498 0.876853 0.460523
C58   C     C_R   1.000000 0.641160 0.000000 0.949721
C59   C     C_R   0.461511 0.945318 0.876853 0.460528
C60   C     C_R   0.054676 0.461502 0.876853 0.460524
C61   C     C_R   0.538489 0.054682 0.876853 0.460528
C62   C     C_R   0.945324 0.461503 0.123147 0.460525
C63   C     C_R   0.461504 0.054677 0.123147 0.460524
C64   C     C_R   0.054676 0.538497 0.123147 0.460524
C65   C     C_R   0.538496 0.945323 0.123147 0.460525
C66   C     C_R   0.447158 0.039948 0.340856 -0.263481
C67   C     C_R   0.960054 0.447156 0.340856 -0.263477
C68   C     C_R   0.552842 0.960051 0.340856 -0.263479
C69   C     C_R   0.358840 0.000000 0.000000 0.949715
C70   C     C_R   0.039946 0.552844 0.340856 -0.263477
C71   C     C_R   0.447158 0.960051 0.659144 -0.263477
C72   C     C_R   0.960055 0.552845 0.659144 -0.263476
C73   C     C_R   0.552842 0.039949 0.659144 -0.263476
C74   C     C_R   0.039945 0.447155 0.659144 -0.263477
C75   C     C_R   0.947163 0.539955 0.840856 -0.263476
C76   C     C_R   0.460053 0.947156 0.840856 -0.263477
C77   C     C_R   0.052837 0.460045 0.840856 -0.263476
C78   C     C_R   0.539947 0.052844 0.840856 -0.263477
C79   C     C_R   0.947162 0.460045 0.159143 -0.263476
C80   C     C_R   1.000000 0.358840 0.000000 0.949721
C81   C     C_R   0.460046 0.052838 0.159143 -0.263473
C82   C     C_R   0.052838 0.539955 0.159143 -0.263477
C83   C     C_R   0.539954 0.947161 0.159143 -0.263476
C84   C     C_R   0.500000 1.000000 0.322693 -0.054237
C85   C     C_R   1.000000 0.500000 0.322693 -0.054240
C86   C     C_R   0.500000 1.000000 0.677306 -0.054240
C87   C     C_R   0.000000 0.500000 0.677307 -0.054240
C88   C     C_R   0.000000 0.500000 0.822694 -0.054240
C89   C     C_R   0.500000 1.000000 0.822693 -0.054240
C90   C     C_R   1.000000 0.500000 0.177306 -0.054240
C91   C     C_R   0.641160 0.000000 0.000000 0.949715
C92   C     C_R   0.500000 1.000000 0.177306 -0.054240
C93   C     C_R   0.358706 0.500000 0.500000 0.927300
C94   C     C_R   0.500000 0.358706 0.500000 0.927300
C95   C     C_R   0.641294 0.500000 0.500000 0.927301
C96   C     C_R   0.500000 0.641294 0.500000 0.927301
C97   C     C_R   0.858706 0.000000 0.000000 0.927300
C98   C     C_R   1.000000 0.858706 0.000000 0.927300
C99   C     C_R   0.141294 0.000000 0.000000 0.927300
C100  C     C_R   0.000000 0.141294 0.000000 0.927300
C101  C     C_R   0.500000 0.000000 0.394954 -0.267915
C102  C     C_R   0.500000 1.000000 0.215141 0.347404
C103  C     C_R   0.000000 0.500000 0.394953 -0.267926
C104  C     C_R   0.500000 0.000000 0.605046 -0.267924
C105  C     C_R   0.000000 0.500000 0.605047 -0.267928
C106  C     C_R   1.000000 0.500000 0.894954 -0.267917
C107  C     C_R   0.500000 1.000000 0.894953 -0.267927
C108  C     C_R   1.000000 0.500000 0.105046 -0.267917
C109  C     C_R   0.500000 0.000000 0.105046 -0.267925
C110  C     C_3   0.324404 0.050196 0.390158 -0.261560
C111  C     C_3   0.949820 0.324401 0.390160 -0.261555
C112  C     C_3   0.675596 0.949808 0.390159 -0.261561
H1    H     H_    0.406978 0.072383 0.327195 0.175687
H2    H     H_    0.427621 0.906974 0.827195 0.175688
H3    H     H_    0.093014 0.427606 0.827195 0.175687
H4    H     H_    0.572379 0.093025 0.827195 0.175688
H5    H     H_    0.906985 0.427607 0.172804 0.175687
H6    H     H_    0.427609 0.093016 0.172805 0.175687
H7    H     H_    0.093014 0.572393 0.172804 0.175687
H8    H     H_    0.572391 0.906983 0.172805 0.175686
H9    H     H_    0.323352 0.990893 0.396833 0.156766
H10   H     H_    0.303995 0.058822 0.363523 0.150015
H11   H     H_    0.286078 0.078509 0.407846 0.185161
H12   H     H_    0.927622 0.406973 0.327195 0.175688
H13   H     H_    0.009122 0.323358 0.396839 0.156768
H14   H     H_    0.941207 0.303990 0.363524 0.150008
H15   H     H_    0.921506 0.286072 0.407846 0.185159
H16   H     H_    0.676644 0.009110 0.396836 0.156768
H17   H     H_    0.696005 0.941188 0.363524 0.150014
H18   H     H_    0.713923 0.921494 0.407846 0.185161
H19   H     H_    0.990878 0.676642 0.396839 0.156769
H20   H     H_    0.058793 0.696009 0.363525 0.150009
H21   H     H_    0.078493 0.713928 0.407846 0.185159
H22   H     H_    0.323357 0.009112 0.603161 0.156769
H23   H     H_    0.593022 0.927617 0.327195 0.175688
H24   H     H_    0.303994 0.941195 0.636475 0.150009
H25   H     H_    0.286076 0.921495 0.592153 0.185159
H26   H     H_    0.009125 0.676642 0.603160 0.156769
H27   H     H_    0.941211 0.696010 0.636475 0.150008
H28   H     H_    0.921510 0.713929 0.592154 0.185159
H29   H     H_    0.676643 0.990889 0.603161 0.156769
H30   H     H_    0.696006 0.058806 0.636475 0.150009
H31   H     H_    0.713924 0.078506 0.592153 0.185159
H32   H     H_    0.990875 0.323358 0.603160 0.156769
H33   H     H_    0.058789 0.303990 0.636475 0.150008
H34   H     H_    0.072378 0.593026 0.327195 0.175688
H35   H     H_    0.078490 0.286071 0.592154 0.185158
H36   H     H_    0.823356 0.490909 0.896838 0.156770
H37   H     H_    0.804002 0.558830 0.863525 0.150010
H38   H     H_    0.786086 0.578530 0.907847 0.185161
H39   H     H_    0.509120 0.823358 0.896840 0.156768
H40   H     H_    0.441205 0.803991 0.863525 0.150009
H41   H     H_    0.421504 0.786073 0.907846 0.185159
H42   H     H_    0.176645 0.509090 0.896838 0.156769
H43   H     H_    0.195998 0.441168 0.863525 0.150011
H44   H     H_    0.213914 0.421469 0.907847 0.185161
H45   H     H_    0.406978 0.927617 0.672805 0.175688
H46   H     H_    0.490880 0.176642 0.896840 0.156768
H47   H     H_    0.558794 0.196009 0.863525 0.150009
H48   H     H_    0.578495 0.213927 0.907846 0.185159
H49   H     H_    0.823356 0.509093 0.103162 0.156770
H50   H     H_    0.804001 0.441173 0.136475 0.150012
H51   H     H_    0.786085 0.421473 0.092153 0.185162
H52   H     H_    0.509100 0.176641 0.103157 0.156772
H53   H     H_    0.441189 0.196001 0.136474 0.150008
H54   H     H_    0.421480 0.213918 0.092153 0.185160
H55   H     H_    0.176644 0.490907 0.103162 0.156769
H56   H     H_    0.927624 0.593028 0.672805 0.175688
H57   H     H_    0.195999 0.558829 0.136475 0.150012
H58   H     H_    0.213914 0.578528 0.092153 0.185162
H59   H     H_    0.490903 0.823356 0.103160 0.156769
H60   H     H_    0.558821 0.803999 0.136475 0.150008
H61   H     H_    0.578524 0.786082 0.092153 0.185160
H62   H     H_    0.593022 0.072383 0.672805 0.175687
H63   H     H_    0.072376 0.406972 0.672805 0.175688
H64   H     H_    0.906987 0.572394 0.827195 0.175687
N1    N     N_R   0.545243 0.954847 0.267098 -0.180625
N2    N     N_R   0.545169 0.045226 0.767099 -0.180622
N3    N     N_R   0.954780 0.545175 0.767099 -0.180622
N4    N     N_R   0.454831 0.954774 0.767099 -0.180622
N5    N     N_R   0.045221 0.545175 0.232901 -0.180622
N6    N     N_R   0.545188 0.954792 0.232901 -0.180619
N7    N     N_R   0.954779 0.454825 0.232901 -0.180622
N8    N     N_R   0.454811 0.045207 0.232901 -0.180619
N9    N     N_R   0.045166 0.545230 0.267098 -0.180622
N10   N     N_R   0.454756 0.045152 0.267098 -0.180625
N11   N     N_R   0.954834 0.454770 0.267098 -0.180622
N12   N     N_R   0.545224 0.045172 0.732901 -0.180622
N13   N     N_R   0.045166 0.454770 0.732902 -0.180622
N14   N     N_R   0.454776 0.954828 0.732901 -0.180622
N15   N     N_R   0.954835 0.545230 0.732902 -0.180622
N16   N     N_R   0.045221 0.454825 0.767099 -0.180622
O1    O     O_R   0.560480 0.107240 0.500130 -0.620081
O2    O     O_R   0.392760 0.060480 0.000130 -0.620082
O3    O     O_R   0.939520 0.392760 0.000130 -0.620081
O4    O     O_R   0.607240 0.939520 0.000130 -0.620081
O5    O     O_R   0.060480 0.392760 0.999870 -0.620082
O6    O     O_R   0.392760 0.939520 0.999870 -0.620080
O7    O     O_R   0.939520 0.607240 0.999870 -0.620082
O8    O     O_R   0.607240 0.060480 0.999870 -0.620081
O9    O     O_R   0.560480 0.999920 0.449200 -0.601654
O10   O     O_R   0.000080 0.560480 0.449200 -0.601653
O11   O     O_R   0.439520 0.000080 0.449200 -0.601651
O12   O     O_R   0.892760 0.560480 0.500130 -0.620081
O13   O     O_R   0.999920 0.439520 0.449200 -0.601652
O14   O     O_R   0.560480 0.000080 0.550800 -0.601655
O15   O     O_R   0.000080 0.439520 0.550800 -0.601651
O16   O     O_R   0.439520 0.999920 0.550800 -0.601655
O17   O     O_R   0.999920 0.560480 0.550800 -0.601651
O18   O     O_R   0.060480 0.499920 0.949200 -0.601660
O19   O     O_R   0.500080 0.060480 0.949200 -0.601653
O20   O     O_R   0.939520 0.500080 0.949200 -0.601660
O21   O     O_R   0.499920 0.939520 0.949200 -0.601653
O22   O     O_R   0.060480 0.500080 0.050800 -0.601659
O23   O     O_R   0.439520 0.892760 0.500130 -0.620081
O24   O     O_R   0.500080 0.939520 0.050800 -0.601658
O25   O     O_R   0.939520 0.499920 0.050800 -0.601660
O26   O     O_R   0.499920 0.060480 0.050800 -0.601661
O27   O     O_R   0.392500 0.499870 0.471390 -0.617444
O28   O     O_R   0.500130 0.392500 0.471390 -0.617444
O29   O     O_R   0.607500 0.500130 0.471390 -0.617444
O30   O     O_R   0.499870 0.607500 0.471390 -0.617444
O31   O     O_R   0.392500 0.500130 0.528610 -0.617445
O32   O     O_R   0.500130 0.607500 0.528610 -0.617445
O33   O     O_R   0.607500 0.499870 0.528610 -0.617445
O34   O     O_R   0.107240 0.439520 0.500130 -0.620081
O35   O     O_R   0.499870 0.392500 0.528610 -0.617444
O36   O     O_R   0.892500 0.999870 0.971390 -0.617444
O37   O     O_R   0.000130 0.892500 0.971390 -0.617443
O38   O     O_R   0.107500 0.000130 0.971390 -0.617445
O39   O     O_R   0.999870 0.107500 0.971390 -0.617444
O40   O     O_R   0.892500 0.000130 0.028610 -0.617444
O41   O     O_R   0.000130 0.107500 0.028610 -0.617444
O42   O     O_R   0.107500 0.999870 0.028610 -0.617444
O43   O     O_R   0.999870 0.892500 0.028610 -0.617444
O44   O     O_3   0.394771 0.080598 0.394556 -0.587783
O45   O     O_R   0.560480 0.892760 0.499870 -0.620082
O46   O     O_3   0.919408 0.394765 0.394556 -0.587778
O47   O     O_3   0.605230 0.919403 0.394556 -0.587782
O48   O     O_3   0.080592 0.605235 0.394555 -0.587779
O49   O     O_3   0.394769 0.919402 0.605444 -0.587780
O50   O     O_3   0.919410 0.605237 0.605445 -0.587778
O51   O     O_3   0.605231 0.080598 0.605444 -0.587780
O52   O     O_3   0.080590 0.394763 0.605445 -0.587778
O53   O     O_3   0.894779 0.580609 0.894556 -0.587785
O54   O     O_3   0.419407 0.894766 0.894555 -0.587779
O55   O     O_3   0.105221 0.419390 0.894556 -0.587785
O56   O     O_R   0.892760 0.439520 0.499870 -0.620081
O57   O     O_3   0.580593 0.105234 0.894555 -0.587779
O58   O     O_3   0.894778 0.419392 0.105444 -0.587785
O59   O     O_3   0.419394 0.105225 0.105444 -0.587781
O60   O     O_3   0.105222 0.580608 0.105444 -0.587785
O61   O     O_3   0.580607 0.894776 0.105444 -0.587781
O62   O     O_R   0.439520 0.107240 0.499870 -0.620081
O63   O     O_R   0.107240 0.560480 0.499870 -0.620081
O64   O     O_R   0.060480 0.607240 0.000130 -0.620081
Zn1   Zn    Zn3+2 0.580810 0.000000 0.500000 0.982224
Zn2   Zn    Zn3+2 0.500000 0.500000 0.538260 0.991115
Zn3   Zn    Zn3+2 1.000000 0.000000 0.961740 0.991117
Zn4   Zn    Zn3+2 1.000000 0.000000 0.038260 0.991119
Zn5   Zn    Zn3+2 0.000000 0.580810 0.500000 0.982224
Zn6   Zn    Zn3+2 0.419190 0.000000 0.500000 0.982225
Zn7   Zn    Zn3+2 1.000000 0.419190 0.500000 0.982224
Zn8   Zn    Zn3+2 0.080810 0.500000 0.000000 0.982220
Zn9   Zn    Zn3+2 0.500000 0.080810 0.000000 0.982219
Zn10  Zn    Zn3+2 0.919190 0.500000 0.000000 0.982219
Zn11  Zn    Zn3+2 0.500000 0.919190 0.000000 0.982221
Zn12  Zn    Zn3+2 0.500000 0.500000 0.461740 0.991115

loop_
_geom_bond_atom_site_label_1
_geom_bond_atom_site_label_2
_ccdc_geom_bond_type
C16   H61   S    
C62   O58   S    
C63   O59   S    
C18   N13   A    
C66   H1    S    
C37   C69   S    
C17   C88   S    
C8    H38   S    
C26   O15   A    
C1    C31   S    
C25   O12   A    
C67   H12   S    
C10   H42   S    
C99   O38   A    
O36   Zn3   S    
C12   O58   S    
C21   N10   A    
C9    H40   S    
C28   O19   A    
O42   Zn4   S    
C48   C97   S    
C11   O57   S    
C22   C101  S    
C55   O51   S    
C22   O11   A    
C63   C81   A    
C35   C58   S    
C3    H19   S    
C33   C42   T    
C54   O50   S    
O22   Zn8   S    
C51   C68   A    
C53   O49   S    
O33   Zn2   S    
C49   O44   S    
C110  H9    S    
C49   C101  A    
C66   C84   A    
C110  H11   S    
C52   C103  A    
C65   C83   A    
C97   O40   A    
C62   C108  A    
C15   O60   S    
C28   C107  S    
C13   N2    A    
C98   O37   A    
O19   Zn9   S    
C33   C36   S    
O16   Zn6   S    
C31   C40   T    
C15   H57   S    
O21   Zn11  S    
C24   O14   A    
C73   H62   S    
C2    C90   S    
O3    Zn10  S    
C69   O2    A    
C79   C90   A    
C14   H53   S    
O35   Zn2   S    
C38   C46   T    
C12   H49   S    
C64   O60   S    
C81   C92   A    
C44   C98   S    
C23   C103  S    
C98   O43   A    
O63   Zn5   S    
C77   C88   A    
O43   Zn4   S    
C96   O32   A    
C65   O61   S    
C7    O52   S    
C111  H13   S    
O1    Zn1   S    
C32   C41   T    
C29   C108  S    
C58   O64   A    
C70   H34   S    
C112  H17   S    
C6    H30   S    
C50   C67   A    
C22   O9    A    
C92   C102  S    
C3    O48   S    
C30   O26   A    
O56   Zn7   S    
N2    N12   A    
C19   C86   S    
C25   C32   S    
C21   N1    A    
C57   C106  A    
C4    H25   S    
C9    H41   S    
C50   C103  A    
C17   N16   A    
C23   O13   A    
C14   H52   S    
C72   H56   S    
O23   Zn6   S    
C15   H55   S    
C100  O41   A    
C8    H36   S    
O2    Zn9   S    
C82   H7    S    
C26   C105  S    
C39   C91   S    
C7    H32   S    
C110  O44   S    
C11   H48   S    
C5    H27   S    
O7    Zn10  S    
C7    H35   S    
C68   H23   S    
C78   C89   A    
O18   Zn8   S    
C71   H45   S    
C18   N15   A    
C67   C85   A    
C111  O46   S    
C56   C74   A    
C49   C66   A    
C30   C109  S    
C11   H47   S    
O27   Zn12  S    
C102  N6    A    
C62   C79   A    
C5    H26   S    
C38   C80   S    
C57   O53   S    
C45   C99   S    
C10   H44   S    
C60   C77   A    
C99   O42   A    
N5    N9    A    
C14   O59   S    
O13   Zn7   S    
C27   C106  S    
C30   O24   A    
C55   C104  A    
C24   O16   A    
C27   O18   A    
C59   C107  A    
C3    H20   S    
C15   H58   S    
C20   N11   A    
C3    H21   S    
C2    N5    A    
C68   C84   A    
C83   H8    S    
C63   C109  A    
N13   N16   A    
C1    O1    A    
C95   O33   A    
O24   Zn11  S    
C47   O63   A    
C83   C92   A    
N7    N11   A    
C19   N12   A    
C71   C86   A    
O30   Zn12  S    
C16   O61   S    
C16   H60   S    
C5    O50   S    
C76   H2    S    
C21   C84   S    
C50   O46   S    
C61   C78   A    
C112  O47   S    
C65   C109  A    
C20   C85   S    
C111  H14   S    
C94   O28   A    
N3    N15   A    
C93   O31   A    
C95   O29   A    
C11   H46   S    
C6    H29   S    
C35   C44   T    
C64   C82   A    
C94   O35   A    
C91   O8    A    
O37   Zn3   S    
O26   Zn9   S    
O8    Zn9   S    
C59   C76   A    
O14   Zn1   S    
C8    O53   S    
O25   Zn10  S    
C96   O30   A    
C58   O7    A    
C12   H50   S    
O45   Zn1   S    
C69   O6    A    
C74   C87   A    
C42   C96   S    
C6    O51   S    
C14   H54   S    
C37   C45   T    
C53   C71   A    
O10   Zn5   S    
C4    O49   S    
C72   C87   A    
C60   C106  A    
C1    O62   A    
C5    H28   S    
C4    H22   S    
C36   O45   A    
C80   O3    A    
C46   C100  S    
C9    H39   S    
C54   C105  A    
C13   C89   S    
C75   H64   S    
C100  O39   A    
C78   H4    S    
C34   C43   T    
C40   C94   S    
C10   H43   S    
O31   Zn2   S    
O12   Zn5   S    
O17   Zn5   S    
C23   O10   A    
C34   C47   S    
O5    Zn8   S    
C13   N4    A    
O15   Zn7   S    
C76   C89   A    
O32   Zn2   S    
C18   C87   S    
C82   C90   A    
C4    H24   S    
C93   O27   A    
C102  N8    A    
O11   Zn6   S    
C57   C75   A    
C28   O21   A    
O64   Zn8   S    
C8    H37   S    
O6    Zn11  S    
C36   O23   A    
O29   Zn12  S    
N4    N14   A    
C110  H10   S    
C12   H51   S    
C111  H15   S    
C91   O4    A    
C16   H59   S    
C17   N3    A    
C29   O22   A    
C41   C95   S    
C47   O34   A    
O39   Zn3   S    
C80   O5    A    
C79   H5    S    
C29   O25   A    
C27   O20   A    
C43   C93   S    
N8    N10   A    
C59   O54   S    
C2    N7    A    
C81   H6    S    
C75   C88   A    
C56   O52   S    
C61   C107  A    
O9    Zn1   S    
C73   C86   A    
C112  H16   S    
C52   C70   A    
C52   O48   S    
C19   N14   A    
O20   Zn10  S    
C55   C73   A    
C25   O56   A    
C56   C105  A    
C74   H63   S    
C97   O36   A    
C54   C72   A    
O38   Zn3   S    
O62   Zn6   S    
C60   O55   S    
C61   O57   S    
C26   O17   A    
O40   Zn4   S    
C20   N9    A    
C112  H18   S    
O41   Zn4   S    
O4    Zn11  S    
C51   O47   S    
C10   O55   S    
C53   C104  A    
C24   C104  S    
C6    H31   S    
C77   H3    S    
C70   C85   A    
O34   Zn7   S    
C9    O54   S    
C51   C101  A    
N1    N6    A    
C64   C108  A    
C39   C48   T    
C7    H33   S    
O28   Zn12  S    
