data_mof_unit_28914.cif
_audit_creation_date              2012-12-10T18:49:59-0500
_audit_creation_method            fapswitch 2.2
_symmetry_space_group_name_H-M    P1
_symmetry_Int_Tables_number       1
_space_group_crystal_system       triclinic
_cell_length_a                    10.671396
_cell_length_b                    9.889063
_cell_length_c                    10.705536
_cell_angle_alpha                 89.056582
_cell_angle_beta                  89.675699
_cell_angle_gamma                 90.073147
_cell_volume                      1129.58406177

loop_
_atom_site_label
_atom_site_type_symbol
_atom_type_description
_atom_site_fract_x
_atom_site_fract_y
_atom_site_fract_z
_atom_type_partial_charge
C1    C     C_R   0.260111 0.500016 0.498660 0.853716
C2    C     C_3   0.624410 0.539040 0.924990 -0.381591
C3    C     C_R   0.064341 0.385716 0.455599 -0.204668
C4    C     C_R   0.064067 0.616112 0.534232 -0.209619
C5    C     C_R   0.935917 0.385716 0.455751 -0.217907
C6    C     C_R   0.935889 0.616154 0.534289 -0.199658
C7    C     C_R   0.872398 0.500592 0.496118 -0.010707
C8    C     C_R   0.127669 0.500503 0.496013 -0.005401
C9    C     C_R   0.597367 0.071004 0.550261 -0.086399
C10   C     C_R   0.597379 0.927521 0.550223 -0.077524
C11   C     C_R   0.402551 0.928971 0.449647 -0.086402
C12   C     C_R   0.402130 0.072424 0.450500 -0.101764
C13   C     C_R   0.501430 0.499969 0.257168 0.804655
C14   C     C_R   0.739871 0.500105 0.498773 0.862057
C15   C     C_R   0.495833 0.498527 0.741796 0.863332
C16   C     C_3   0.395664 0.606795 0.066937 0.257842
C17   C     C_3   0.478815 0.340558 0.069702 0.277347
C18   C     C_3   0.381184 0.578605 0.926093 -0.371015
C19   C     C_3   0.467811 0.348897 0.924844 -0.481789
C20   C     C_3   0.627313 0.543301 0.069075 -0.451551
C21   C     C_3   0.498154 0.497165 0.119484 0.042290
C22   C     C_3   0.493093 0.493904 0.877510 0.088198
H1    H     H_    0.324719 0.875725 0.408671 0.125417
H2    H     H_    0.323899 0.126906 0.410548 0.128863
H3    H     H_    0.294104 0.521049 0.908262 0.121172
H4    H     H_    0.374923 0.314471 0.890349 0.169726
H5    H     H_    0.365768 0.671587 0.870555 0.197474
H6    H     H_    0.533350 0.278419 0.877286 0.177430
H7    H     H_    0.653624 0.643117 0.105205 0.180024
H8    H     H_    0.704391 0.479416 0.105954 0.159763
H9    H     H_    0.113753 0.296887 0.423743 0.144635
H10   H     H_    0.113040 0.705200 0.565899 0.151500
H11   H     H_    0.886668 0.296767 0.424196 0.154956
H12   H     H_    0.886814 0.705234 0.566026 0.145295
N1    N     N_R   0.499970 0.857200 0.499970 -0.079420
N2    N     N_R   0.499970 0.142800 0.499970 -0.088490
O1    O     O_R   0.316750 0.614620 0.499990 -0.633291
O2    O     O_R   0.316750 0.385380 0.499990 -0.629015
O3    O     O_R   0.499970 0.614670 0.314790 -0.629274
O4    O     O_R   0.499970 0.385330 0.314790 -0.643616
O5    O     O_R   0.683220 0.614710 0.500010 -0.623421
O6    O     O_R   0.683220 0.385290 0.500010 -0.637375
O7    O     O_R   0.500010 0.614660 0.685200 -0.633741
O8    O     O_R   0.500010 0.385340 0.685200 -0.621484
Zn1   Zn    Zn3+2 0.499980 0.653120 0.500000 0.919517
Zn2   Zn    Zn3+2 0.499980 0.346880 0.500000 0.913484
C23   C     C_3   0.430313 0.764159 0.081592 -0.352364
C24   C     C_3   0.523567 0.846523 0.997642 -0.355744
C25   C     C_3   0.474041 0.898363 0.871568 -0.883947
H13   H     H_    0.370564 0.909579 0.872048 0.250742
H14   H     H_    0.516337 0.998474 0.848338 0.232307
H15   H     H_    0.502468 0.829513 0.796435 0.287559
H16   H     H_    0.543280 0.937042 0.052095 0.187366
H17   H     H_    0.618029 0.805990 0.986483 0.210162
H18   H     H_    0.342292 0.822508 0.074077 0.195841
H19   H     H_    0.458567 0.784051 0.178383 0.186709
C26   C     C_3   0.597263 0.241848 0.088180 -0.404379
C27   C     C_3   0.648587 0.201105 0.216889 -0.286046
C28   C     C_3   0.752485 0.095357 0.207501 -0.975532
H20   H     H_    0.716455 0.000379 0.167379 0.260823
H21   H     H_    0.831000 0.134499 0.148615 0.266421
H22   H     H_    0.789003 0.071777 0.302327 0.259282
H23   H     H_    0.691560 0.289992 0.261814 0.244243
H24   H     H_    0.572194 0.156955 0.274171 0.258775
H25   H     H_    0.575538 0.146835 0.040853 0.191113
H26   H     H_    0.678638 0.279808 0.032992 0.188830
C29   C     C_3   0.267033 0.593000 0.142550 -0.469882
C30   C     C_3   0.146310 0.632624 0.071774 -0.378116
C31   C     C_3   0.038117 0.659680 0.162098 -0.868760
H27   H     H_    0.019229 0.568683 0.221484 0.275816
H28   H     H_    0.060754 0.746366 0.222753 0.261559
H29   H     H_    0.952119 0.684470 0.108493 0.242559
H30   H     H_    0.161476 0.724199 0.012256 0.220112
H31   H     H_    0.117067 0.548509 0.010934 0.218433
H32   H     H_    0.251880 0.493522 0.186450 0.173582
H33   H     H_    0.272696 0.657624 0.226541 0.219284
C32   C     C_3   0.352225 0.274257 0.119603 -0.418331
C33   C     C_3   0.333149 0.122972 0.097141 -0.381226
C34   C     C_3   0.198348 0.080686 0.128649 -0.927557
H34   H     H_    0.176352 0.101678 0.227978 0.254117
H35   H     H_    0.131189 0.136491 0.068015 0.264787
H36   H     H_    0.185273 0.971079 0.113318 0.251896
H37   H     H_    0.351919 0.100678 0.997896 0.242798
H38   H     H_    0.397113 0.063503 0.157936 0.228715
H39   H     H_    0.335954 0.288372 0.220313 0.220311
H40   H     H_    0.273146 0.325308 0.071331 0.196556
H41   H     H_    0.653738 0.635785 0.880827 0.177604
H42   H     H_    0.696166 0.465500 0.893047 0.150168
H43   H     H_    0.675398 0.124282 0.590771 0.128754
H44   H     H_    0.675283 0.873033 0.591004 0.121088

loop_
_geom_bond_atom_site_label_1
_geom_bond_atom_site_label_2
_ccdc_geom_bond_type
C16   C21   S    
C1    C8    S    
C26   H26   S    
C4    C8    A    
C20   H8    S    
C32   C33   S    
O4    Zn2   S    
C15   O8    A    
C30   H31   S    
O6    Zn2   S    
C31   H28   S    
C19   H4    S    
C13   O4    A    
C33   H37   S    
C15   C22   S    
C30   C31   S    
C25   H14   S    
C5    H11   S    
C2    C22   S    
C9    N2    A    
C2    H42   S    
C10   N1    A    
C12   N2    A    
C9    C10   A    
C1    O1    A    
O3    Zn1   S    
C32   H39   S    
C28   H20   S    
C18   H3    S    
C16   C23   S    
O8    Zn2   S    
C5    C7    A    
C20   H7    S    
C7    C14   S    
C27   H24   S    
C24   H16   S    
C28   H21   S    
C13   O3    A    
C2    C20   S    
C29   C30   S    
C19   C22   S    
C4    C6    A    
C3    C8    A    
C9    H43   S    
C34   H35   S    
C33   C34   S    
C27   C28   S    
C17   C21   S    
C6    H12   S    
C31   H29   S    
C24   H17   S    
C23   C24   S    
C25   H15   S    
C17   C32   S    
C13   C21   S    
C2    H41   S    
C16   C29   S    
C3    H9    S    
C19   H6    S    
O7    Zn1   S    
C4    H10   S    
C1    O2    A    
C14   O5    A    
C24   C25   S    
C32   H40   S    
C29   H32   S    
O1    Zn1   S    
N1    Zn1   S    
C23   H18   S    
C27   H23   S    
C28   H22   S    
C18   C22   S    
C18   H5    S    
C26   H25   S    
C3    C5    A    
C34   H36   S    
C11   C12   A    
C6    C7    A    
C12   H2    S    
C14   O6    A    
C11   N1    A    
C30   H30   S    
C15   O7    A    
N2    Zn2   S    
C26   C27   S    
C11   H1    S    
C17   C19   S    
C31   H27   S    
O2    Zn2   S    
C34   H34   S    
C33   H38   S    
C20   C21   S    
C10   H44   S    
C16   C18   S    
C25   H13   S    
O5    Zn1   S    
C29   H33   S    
C17   C26   S    
C23   H19   S    
