data_mof_unit_21586.cif
_audit_creation_date              2012-12-11T20:44:20-0500
_audit_creation_method            fapswitch 2.2
_symmetry_space_group_name_H-M    P1
_symmetry_Int_Tables_number       1
_space_group_crystal_system       triclinic
_cell_length_a                    8.338601
_cell_length_b                    18.925097
_cell_length_c                    18.779675
_cell_angle_alpha                 100.554962
_cell_angle_beta                  93.303445
_cell_angle_gamma                 91.861502
_cell_volume                      2905.81424438

loop_
_atom_site_label
_atom_site_type_symbol
_atom_type_description
_atom_site_fract_x
_atom_site_fract_y
_atom_site_fract_z
_atom_type_partial_charge
Ba1   Ba    Ba6+2 0.153030 0.533740 0.468880 1.682036
Ba2   Ba    Ba6+2 0.657140 0.466250 0.531070 1.678257
C1    C     C_3   0.363423 0.747876 0.221478 -0.048490
C2    C     C_3   0.374439 0.705287 0.283709 0.396967
C3    C     C_3   0.513329 0.687785 0.635918 0.301648
C4    C     C_3   0.563233 0.767377 0.656282 -0.410682
C5    C     C_3   0.906537 0.280502 0.684030 0.363021
C6    C     C_3   0.912589 0.210426 0.712511 -0.351323
C7    C     C_3   0.411191 0.269899 0.708555 0.340528
C8    C     C_3   0.418164 0.212106 0.755857 -0.288294
C9    C     C_R   0.919993 0.200744 0.481591 -0.152816
C10   C     C_R   0.986767 0.267652 0.469765 0.017606
C11   C     C_R   0.161052 0.183716 0.552411 -0.160626
C12   C     C_3   0.899190 0.723347 0.304208 0.366587
C13   C     C_R   0.230115 0.246908 0.536570 0.033951
C14   C     C_R   0.668377 0.813976 0.441359 -0.165726
C15   C     C_R   0.604440 0.744968 0.443959 -0.005284
C16   C     C_R   0.864463 0.801062 0.537307 -0.146329
C17   C     C_R   0.826565 0.726696 0.524589 0.052447
C18   C     C_R   0.005249 0.156063 0.524299 -0.001871
C19   C     C_R   0.147590 0.285740 0.491063 -0.199587
C20   C     C_R   0.793288 0.846400 0.492685 0.007605
C21   C     C_R   0.693599 0.699454 0.478957 -0.242657
C22   C     C_R   0.157873 0.042679 0.614136 -0.078573
C23   C     C_3   0.944169 0.794856 0.281832 -0.194476
C24   C     C_R   0.267052 0.991287 0.626749 -0.067326
C25   C     C_R   0.257467 0.923797 0.582072 -0.073822
C26   C     C_R   0.128431 0.905681 0.530600 -0.100950
C27   C     C_R   0.002420 0.952786 0.527836 0.015699
C28   C     C_R   0.037972 0.027029 0.556635 0.041298
C29   C     C_R   0.841763 0.927171 0.503869 -0.014756
C30   C     C_R   0.725665 0.981155 0.502663 0.040900
C31   C     C_R   0.775410 0.056283 0.517537 0.004979
C32   C     C_R   0.938739 0.080305 0.535017 -0.024813
C33   C     C_R   0.558500 0.963695 0.490168 -0.081368
C34   C     C_3   0.743041 0.274189 0.298688 0.295193
C35   C     C_R   0.449777 0.015618 0.480686 -0.088685
C36   C     C_R   0.498700 0.087215 0.498075 -0.046753
C37   C     C_R   0.656130 0.106586 0.524089 -0.065963
C38   C     C_2   0.616149 0.510916 0.296368 -0.129771
C39   C     C_3   0.687233 0.569008 0.261151 -0.077189
C40   C     C_2   0.645357 0.554669 0.180281 -0.095069
C41   C     C_2   0.508138 0.516101 0.153333 -0.042648
C42   C     C_2   0.413719 0.481299 0.204209 -0.131881
C43   C     C_1   0.473597 0.481505 0.271368 0.039113
C44   C     C_R   0.340382 0.503313 0.934926 0.494527
C45   C     C_3   0.824515 0.202304 0.281823 -0.485055
C46   C     C_R   0.450084 0.510067 0.075789 0.458105
C47   C     C_R   0.378662 0.531556 0.811511 -0.111053
C48   C     C_R   0.328915 0.526981 0.738489 0.011785
C49   C     C_R   0.084294 0.461658 0.755562 0.001478
C50   C     C_R   0.133553 0.465438 0.829152 -0.135918
C51   C     C_R   0.282675 0.500011 0.857780 -0.039377
C52   C     C_R   0.183273 0.491567 0.710755 -0.270685
C53   C     C_3   0.090535 0.697347 0.701332 0.371127
C54   C     C_3   0.086494 0.680762 0.777907 -0.353240
C55   C     C_3   0.269503 0.318331 0.249985 0.236114
C56   C     C_3   0.252640 0.236815 0.240268 -0.388675
H1    H     H_    0.310102 0.651988 0.266150 0.050884
H2    H     H_    0.886324 0.189340 0.331225 0.099584
H3    H     H_    0.733230 0.158423 0.260097 0.082521
H4    H     H_    0.914015 0.203989 0.240658 0.119182
H5    H     H_    0.184684 0.664740 0.674333 0.052611
H6    H     H_    0.999607 0.714869 0.809592 0.121787
H7    H     H_    0.207762 0.690489 0.806550 0.079838
H8    H     H_    0.048434 0.623538 0.775124 0.099158
H9    H     H_    0.337975 0.332420 0.205147 0.019725
H10   H     H_    0.146490 0.339149 0.247468 0.099691
H11   H     H_    0.235216 0.754034 0.206313 0.123557
H12   H     H_    0.372667 0.213274 0.240527 0.099077
H13   H     H_    0.184852 0.214480 0.187926 0.089217
H14   H     H_    0.187973 0.221504 0.285609 0.114353
H15   H     H_    0.503126 0.695886 0.295438 -0.103824
H16   H     H_    0.613832 0.658505 0.609893 0.033590
H17   H     H_    0.407089 0.681373 0.596654 0.068917
H18   H     H_    0.682311 0.774396 0.686963 0.127647
H19   H     H_    0.570453 0.790952 0.606648 0.066422
H20   H     H_    0.474046 0.796992 0.690299 0.119400
H21   H     H_    0.875601 0.838049 0.313243 0.060349
H22   H     H_    0.819196 0.273334 0.636068 0.081304
H23   H     H_    0.027463 0.293818 0.667118 -0.076530
H24   H     H_    0.794324 0.197092 0.731948 0.136340
H25   H     H_    0.941194 0.166068 0.668916 0.063380
H26   H     H_    0.006127 0.215306 0.757897 0.111822
H27   H     H_    0.283626 0.270751 0.688848 -0.147620
H28   H     H_    0.329940 0.222448 0.798303 0.088294
H29   H     H_    0.540250 0.211303 0.782478 0.133178
H30   H     H_    0.928957 0.729067 0.363555 0.029201
H31   H     H_    0.388246 0.158386 0.721851 0.080308
H32   H     H_    0.804235 0.183842 0.454389 0.088633
H33   H     H_    0.239369 0.156531 0.583809 0.069768
H34   H     H_    0.611499 0.843589 0.403544 0.063789
H35   H     H_    0.949446 0.822633 0.581986 0.058536
H36   H     H_    0.651057 0.644271 0.475796 0.060701
H37   H     H_    0.160597 0.092359 0.653012 0.056577
H38   H     H_    0.360382 0.004270 0.670149 0.067760
H39   H     H_    0.346582 0.884860 0.588889 0.085894
H40   H     H_    0.767674 0.713623 0.292967 -0.069695
H41   H     H_    0.120479 0.853299 0.496555 0.129842
H42   H     H_    0.505771 0.911348 0.490001 0.078199
H43   H     H_    0.324676 0.000644 0.465006 0.081840
H44   H     H_    0.412571 0.127214 0.493970 0.086034
H45   H     H_    0.686529 0.160557 0.551704 0.127848
H46   H     H_    0.716797 0.581925 0.146082 0.089978
H47   H     H_    0.297199 0.455095 0.185616 0.093227
H48   H     H_    0.492570 0.559181 0.831614 0.102627
H49   H     H_    0.056497 0.441304 0.863423 0.116855
H50   H     H_    0.683852 0.492106 0.339940 0.074261
H51   H     H_    0.073305 0.809107 0.296016 0.139281
H52   H     H_    0.144688 0.488625 0.654222 0.071160
H53   H     H_    0.635951 0.267576 0.329652 0.028244
N1    N     N_R   0.483577 0.537375 0.960887 -0.237069
N2    N     N_R   0.537079 0.540779 0.029667 -0.242340
N3    N     N_R   0.306912 0.475735 0.049937 -0.234051
N4    N     N_R   0.253241 0.472344 0.980962 -0.232729
O1    O     O_2   0.114910 0.675240 0.550030 -0.487970
O2    O     O_3   0.351939 0.344899 0.317384 -0.645451
O3    O     O_3   0.984173 0.666720 0.266174 -0.598767
O4    O     O_2   0.695400 0.324710 0.449950 -0.456394
O5    O     O_3   0.942410 0.413600 0.456340 -0.459926
O6    O     O_3   0.455050 0.372170 0.581390 -0.485927
O7    O     O_3   0.853643 0.329160 0.334841 -0.589373
O8    O     O_3   0.370790 0.538810 0.587440 -0.494183
O9    O     O_3   0.868570 0.409120 0.620070 -0.495479
O10   O     O_2   0.751454 0.461239 0.748979 -0.445736
O11   O     O_3   0.857319 0.334113 0.739248 -0.575632
O12   O     O_3   0.867890 0.586390 0.543600 -0.458987
O13   O     O_3   0.439510 0.461180 0.412500 -0.473816
O14   O     O_2   0.623160 0.539640 0.674980 -0.423795
O15   O     O_3   0.475552 0.662163 0.698695 -0.647797
O16   O     O_2   0.546819 0.249732 0.513927 -0.503140
O17   O     O_3   0.513817 0.251466 0.651501 -0.626489
O18   O     O_3   0.355250 0.627820 0.418550 -0.475419
O19   O     O_2   0.292764 0.755964 0.485606 -0.504165
O20   O     O_3   0.939085 0.677216 0.665350 -0.624410
O21   O     O_3   0.302255 0.743388 0.344373 -0.606504
O22   O     O_2   0.187140 0.460320 0.325000 -0.452804
O23   O     O_3   0.941730 0.590880 0.379870 -0.475126
O24   O     O_2   0.008509 0.526078 0.247289 -0.445064
P1    P     P_3+3 0.943060 0.664750 0.570190 0.980635
P2    P     P_3+3 0.360910 0.439170 0.334000 0.986397
P3    P     P_3+3 0.906442 0.586206 0.286686 0.999990
P4    P     P_3+3 0.867240 0.335250 0.429760 1.007615
P5    P     P_3+3 0.891162 0.418013 0.715327 0.996241
P6    P     P_3+3 0.389990 0.719453 0.422640 0.933330
P7    P     P_3+3 0.448182 0.568389 0.677196 0.948603
P8    P     P_3+3 0.434260 0.279097 0.573037 0.902057
C57   C     C_3   0.129151 0.777920 0.705720 -0.377360
H54   H     H_    0.022351 0.809430 0.721234 0.104088
H55   H     H_    0.229798 0.797040 0.746738 0.087472
H56   H     H_    0.165859 0.788399 0.652684 0.100729
C58   C     C_3   0.437173 0.706932 0.154073 -0.451076
H57   H     H_    0.370368 0.654564 0.135122 0.121921
H58   H     H_    0.428645 0.738009 0.109333 0.141784
H59   H     H_    0.565373 0.697145 0.166253 0.125415
C59   C     C_3   0.444229 0.823248 0.244974 -0.382353
H60   H     H_    0.570250 0.819802 0.265934 0.112935
H61   H     H_    0.443252 0.852173 0.198562 0.115365
H62   H     H_    0.378300 0.855427 0.288549 0.129814
C60   C     C_2   0.460988 0.343540 0.751306 0.556756
H63   H     H_    0.457063 0.389296 0.724233 -0.012917
O25   O     O_2   0.505434 0.353026 0.815614 -0.574749
C61   C     C_3   0.233586 0.344374 0.461977 -0.228104
H64   H     H_    0.357534 0.330047 0.448911 0.159910
H65   H     H_    0.174943 0.351199 0.409958 0.112115
H66   H     H_    0.233569 0.395937 0.501022 0.136493
C62   C     C_3   0.906612 0.793127 0.200860 -0.415128
H67   H     H_    0.964251 0.747657 0.167339 0.155064
H68   H     H_    0.775270 0.787488 0.187485 0.125924
H69   H     H_    0.952039 0.844181 0.186540 0.118249
C63   C     C_2   0.681823 0.293846 0.228157 0.519352
H70   H     H_    0.601643 0.256496 0.190631 -0.068727
O26   O     O_2   0.722205 0.351121 0.211845 -0.573260

loop_
_geom_bond_atom_site_label_1
_geom_bond_atom_site_label_2
_ccdc_geom_bond_type
C13   P8    S    
C63   H70   S    
C19   C61   S    
C44   N1    A    
O15   P7    S    
C6    H25   S    
O4    P4    D    
C39   C40   S    
C34   O7    S    
C61   H64   S    
C57   H56   S    
C53   C54   S    
C45   H4    S    
N3    N4    A    
C55   C56   S    
C5    C6    S    
C62   H68   S    
C42   H47   S    
C23   C62   S    
C63   O26   D    
C1    C58   S    
C15   C21   A    
C44   N4    A    
C6    H24   S    
C46   N3    A    
C26   C27   A    
C1    H11   S    
C35   C36   A    
C22   C24   A    
C16   C17   A    
C36   C37   A    
O24   P3    D    
C47   C51   A    
C56   H13   S    
C4    H20   S    
O10   P5    D    
C54   H7    S    
Ba2   O14   S    
C52   H52   S    
C34   C45   S    
Ba1   Ba2   S    
C3    H16   S    
C7    H27   S    
C45   H2    S    
C8    H28   S    
C8    H31   S    
C17   P1    S    
C12   O3    S    
C53   H5    S    
C54   H6    S    
O16   P8    D    
Ba1   O1    S    
C7    C8    S    
O21   P6    S    
C23   H51   S    
C38   H50   S    
C18   C32   S    
Ba2   O12   S    
C48   P7    S    
C5    O11   S    
C16   C20   A    
C11   H33   S    
C43   P2    S    
Ba2   P4    S    
O20   P1    S    
O5    P4    S    
O7    P4    S    
C55   H9    S    
C27   C29   A    
Ba1   O18   S    
N1    N2    A    
C5    H22   S    
C12   H40   S    
C62   H69   S    
C24   H38   S    
C38   C43   D    
C9    C18   A    
C8    H29   S    
C20   C29   S    
C28   C32   A    
C49   C50   A    
C30   C33   A    
C61   H66   S    
C57   H54   S    
C50   H49   S    
O23   P3    S    
C22   H37   S    
C62   H67   S    
Ba2   O5    S    
C17   C21   A    
C14   C15   A    
C4    H19   S    
C7    O17   S    
C7    C60   S    
C49   P5    S    
C10   C19   A    
Ba1   O5    S    
C59   H60   S    
C3    H17   S    
C15   P6    S    
C41   C42   S    
Ba1   O8    S    
C27   C28   A    
C54   H8    S    
C2    H1    S    
C29   C30   A    
C58   H59   S    
Ba2   O4    S    
C41   C46   S    
C34   H53   S    
O6    P8    S    
C31   C32   A    
O14   P7    D    
C31   C37   A    
C50   C51   A    
C4    H18   S    
C2    H15   S    
Ba1   P1    S    
Ba1   O13   S    
C38   C39   S    
C5    H23   S    
C58   H58   S    
C14   H34   S    
O8    P7    S    
C11   C13   A    
C24   C25   A    
O18   P6    S    
O12   P1    S    
C55   H10   S    
C33   H42   S    
Ba1   O22   S    
O2    P2    S    
C26   H41   S    
C55   O2    S    
O13   P2    S    
Ba2   O6    S    
O19   P6    D    
O22   P2    D    
C25   H39   S    
C34   C63   S    
C14   C20   A    
C11   C18   A    
C33   C35   A    
C6    H26   S    
O17   P8    S    
C59   H62   S    
C56   H12   S    
C42   C43   D    
Ba1   O12   S    
C57   H55   S    
O3    P3    S    
C40   H46   S    
C45   H3    S    
C9    C10   A    
C21   H36   S    
C37   H45   S    
C47   H48   S    
Ba2   O9    S    
C10   P4    S    
C2    O21   S    
C49   C52   A    
C30   C31   A    
C59   H61   S    
C12   H30   S    
C39   P3    S    
C48   C52   A    
C60   H63   S    
C35   H43   S    
C9    H32   S    
C56   H14   S    
C53   C57   S    
C3    C4    S    
C53   O20   S    
C44   C51   S    
O11   P5    S    
C1    C59   S    
C12   C23   S    
C22   C28   A    
C23   H21   S    
Ba1   P2    S    
C3    O15   S    
C13   C19   A    
C58   H57   S    
C36   H44   S    
C47   C48   A    
C40   C41   D    
C25   C26   A    
C16   H35   S    
O9    P5    S    
C61   H65   S    
Ba2   O8    S    
Ba1   O23   S    
C1    C2    S    
C60   O25   D    
C46   N2    A    
O1    P1    D    
Ba2   O13   S    
