data_mof_unit_51873.cif
_audit_creation_date              2012-10-26T19:52:25-0400
_audit_creation_method            fapswitch 2.2
_symmetry_space_group_name_H-M    P1
_symmetry_Int_Tables_number       1
_space_group_crystal_system       triclinic
_cell_length_a                    9.589341
_cell_length_b                    10.90466
_cell_length_c                    13.403579
_cell_angle_alpha                 93.498334
_cell_angle_beta                  73.791723
_cell_angle_gamma                 91.546447
_cell_volume                      1343.30321395

loop_
_atom_site_label
_atom_site_type_symbol
_atom_type_description
_atom_site_fract_x
_atom_site_fract_y
_atom_site_fract_z
_atom_type_partial_charge
C1    C     C_R   0.502035 0.737688 0.500811 0.601217
C2    C     C_R   0.372544 0.517233 0.815954 0.007790
C3    C     C_R   0.377155 0.932802 0.511413 0.039614
C4    C     C_R   0.422013 0.505358 0.700435 0.590798
C5    C     C_R   0.504517 0.871711 0.507537 0.051555
C6    C     C_R   0.626904 0.942698 0.517936 0.099857
C7    C     C_R   0.620263 0.071410 0.519181 -0.127991
C8    C     C_R   0.495580 0.130025 0.511002 -0.013170
C9    C     C_R   0.371617 0.059106 0.515212 -0.012227
C10   C     C_3   0.272038 0.056560 0.447723 -0.232099
C11   C     C_3   0.278482 0.917702 0.442588 0.117102
C12   C     C_R   0.427207 0.552457 0.983793 -0.003396
C13   C     C_R   0.934021 0.397110 0.469222 0.118803
C14   C     C_R   0.909372 0.593198 0.547647 0.024552
C15   C     C_R   0.055641 0.591054 0.552190 0.338827
C16   C     C_R   0.498234 0.262523 0.501586 0.542509
C17   C     C_R   0.080312 0.396391 0.468495 0.142878
C18   C     C_3   0.111904 0.314686 0.369405 -0.021443
C19   C     C_3   0.953018 0.320636 0.371760 -0.215686
C20   C     C_R   0.577218 0.509057 0.300791 0.541583
C21   C     C_R   0.793585 0.588667 0.028209 -0.101052
C22   C     C_R   0.618572 0.536480 0.189645 0.010386
C23   C     C_R   0.465570 0.567064 0.875281 0.008712
C24   C     C_R   0.232301 0.472974 0.869540 0.227716
C25   C     C_R   0.188262 0.478025 0.977368 -0.105635
C26   C     C_R   0.283641 0.515956 0.033893 -0.161861
C27   C     C_3   0.322976 0.291896 0.217529 -0.284674
C28   C     C_3   0.487252 0.806785 0.776969 -0.280280
C29   C     C_3   0.845969 0.947005 0.580565 -0.321573
C30   C     C_R   0.536450 0.568630 0.036706 0.031206
C31   C     C_R   0.680901 0.595034 0.980307 0.036846
C32   C     C_R   0.707660 0.634899 0.879552 -0.090535
C33   C     C_R   0.594978 0.633941 0.831403 0.148428
C34   C     C_R   0.507782 0.553612 0.143152 -0.096745
C35   C     C_R   0.763152 0.554233 0.131291 -0.126531
Cl1   Cl    Cl    0.365572 0.854350 0.314515 -0.636880
Cl2   Cl    Cl    0.105286 0.698889 0.639226 -0.651715
Cl3   Cl    Cl    0.106154 0.405034 0.808081 -0.579090
Cu1   Cu    Cu3+1 0.359330 0.500020 0.500010 1.079854
Cu2   Cu    Cu3+1 0.640670 0.499980 0.499990 0.971099
H1    H     H_    0.851388 0.546278 0.166220 0.124043
H2    H     H_    0.895765 0.230636 0.384831 0.107425
H3    H     H_    0.904791 0.608534 0.985533 0.147964
H4    H     H_    0.398914 0.557247 0.191487 0.142610
H5    H     H_    0.241671 0.512847 0.116653 0.125640
H6    H     H_    0.080587 0.446389 0.018259 0.148188
H7    H     H_    0.220586 0.460868 0.284580 0.272781
H8    H     H_    0.373986 0.331406 0.141655 0.147911
H9    H     H_    0.282649 0.198460 0.201099 0.167903
H10   H     H_    0.405634 0.284427 0.260542 0.161771
H11   H     H_    0.702493 0.759404 0.726382 0.253649
H12   H     H_    0.715325 0.125686 0.521412 0.143345
H13   H     H_    0.508273 0.874865 0.716475 0.152936
H14   H     H_    0.482056 0.856962 0.852642 0.150747
H15   H     H_    0.380878 0.762024 0.780444 0.176294
H16   H     H_    0.816677 0.846974 0.449439 0.273235
H17   H     H_    0.922512 0.880866 0.595185 0.173468
H18   H     H_    0.776758 0.983603 0.657039 0.167109
H19   H     H_    0.910515 0.022423 0.536872 0.129373
H20   H     H_    0.163444 0.091371 0.492336 0.100716
H21   H     H_    0.323669 0.097695 0.372205 0.164014
H22   H     H_    0.173044 0.873440 0.480376 0.166065
H23   H     H_    0.841291 0.668896 0.584319 0.153323
H24   H     H_    0.140164 0.220370 0.379366 0.125377
H25   H     H_    0.931785 0.372208 0.308482 0.167258
H26   H     H_    0.812659 0.674276 0.841457 0.153445
N1    N     N_R   0.852320 0.499070 0.499340 -0.264345
N2    N     N_R   0.148230 0.499110 0.499340 -0.212820
N3    N     N_2   0.203750 0.367831 0.277774 -0.527184
N4    N     N_2   0.602588 0.717077 0.751776 -0.492889
N5    N     N_2   0.757840 0.885262 0.520476 -0.512197
O1    O     O_R   0.381190 0.680360 0.500000 -0.435619
O2    O     O_R   0.618780 0.680320 0.499990 -0.497119
O3    O     O_R   0.323230 0.500000 0.650990 -0.402573
O4    O     O_R   0.560820 0.499960 0.650980 -0.480774
O5    O     O_R   0.381220 0.319680 0.500010 -0.494078
O6    O     O_R   0.618810 0.319640 0.500000 -0.520372
O7    O     O_R   0.439180 0.500040 0.349020 -0.508771
O8    O     O_R   0.676770 0.500000 0.349010 -0.516600

loop_
_geom_bond_atom_site_label_1
_geom_bond_atom_site_label_2
_ccdc_geom_bond_type
C27   H8    S    
Cu1   N2    S    
C10   H20   S    
C11   H22   S    
C7    C8    A    
C22   C35   A    
C21   C31   A    
C12   C23   A    
C1    C5    S    
C11   Cl1   S    
C7    H12   S    
C18   C19   S    
C30   C31   A    
C15   N2    A    
Cu2   O2    S    
C16   O6    A    
Cu1   O3    S    
C15   Cl2   S    
C4    O4    A    
C26   H5    S    
C21   H3    S    
H7    N3    S    
C29   H19   S    
C8    C9    A    
C23   C33   A    
Cu2   N1    S    
C24   Cl3   S    
Cu1   O1    S    
H11   N4    S    
C9    C10   S    
C4    O3    A    
C27   N3    S    
C19   H2    S    
C18   N3    S    
C8    C16   S    
C28   H15   S    
C6    N5    S    
C22   C34   A    
C1    O1    A    
C30   C34   A    
Cu1   O7    S    
C34   H4    S    
C24   C25   A    
Cu1   Cu2   S    
C13   C19   S    
C25   C26   A    
C12   C26   A    
C2    C4    S    
C3    C9    A    
C31   C32   A    
C14   N1    A    
H16   N5    S    
C17   C18   S    
Cu2   O8    S    
Cu1   O5    S    
C33   N4    S    
C29   H17   S    
C2    C24   A    
C10   H21   S    
C32   H26   S    
C13   N1    A    
C17   N2    A    
C28   H14   S    
C20   O8    A    
C12   C30   A    
C16   O5    A    
C28   N4    S    
C20   C22   S    
C3    C5    A    
C28   H13   S    
C27   H10   S    
C6    C7    A    
C21   C35   A    
C20   O7    A    
Cu2   O4    S    
C13   C17   A    
C1    O2    A    
C32   C33   A    
C18   H24   S    
C5    C6    A    
C14   H23   S    
C19   H25   S    
Cu2   O6    S    
C35   H1    S    
C3    C11   S    
C10   C11   S    
C29   H18   S    
C2    C23   A    
C14   C15   A    
C25   H6    S    
C27   H9    S    
C29   N5    S    
