data_mof_unit_24601.cif
_audit_creation_date              2012-12-11T15:27:09-0500
_audit_creation_method            fapswitch 2.2
_symmetry_space_group_name_H-M    P1
_symmetry_Int_Tables_number       1
_space_group_crystal_system       triclinic
_cell_length_a                    13.986438
_cell_length_b                    13.991721
_cell_length_c                    27.440185
_cell_angle_alpha                 90.022489
_cell_angle_beta                  90.01802
_cell_angle_gamma                 119.915518
_cell_volume                      4654.41285536

loop_
_atom_site_label
_atom_site_type_symbol
_atom_type_description
_atom_site_fract_x
_atom_site_fract_y
_atom_site_fract_z
_atom_type_partial_charge
C1    C     C_R   0.235528 0.786651 0.569004 0.539139
C2    C     C_R   0.213626 0.449382 0.569146 0.539651
C3    C     C_R   0.550921 0.764317 0.569131 0.539411
C4    C     C_3   0.722785 0.769656 0.786174 -0.182399
C5    C     C_3   0.248285 0.947803 0.787582 -0.190580
C6    C     C_3   0.050431 0.293543 0.786618 -0.191062
C7    C     C_3   0.696588 0.749358 0.730524 -0.056631
C8    C     C_3   0.262708 0.943445 0.731396 -0.066208
C9    C     C_3   0.058714 0.323288 0.731410 -0.064247
C10   C     C_1   0.703875 0.859187 0.859782 -0.080993
C11   C     C_1   0.139572 0.845583 0.859197 -0.079036
C12   C     C_1   0.154033 0.293782 0.859252 -0.079644
C13   C     C_1   0.618487 0.805029 0.659930 -0.077710
C14   C     C_1   0.193650 0.813394 0.659501 -0.074993
C15   C     C_1   0.188345 0.383112 0.659948 -0.075030
C16   C     C_1   0.593795 0.791030 0.617492 -0.031931
C17   C     C_1   0.208248 0.802828 0.617172 -0.030062
C18   C     C_1   0.198248 0.407472 0.617545 -0.029327
C19   C     C_R   0.106764 0.219921 0.949031 0.552365
C20   C     C_R   0.779669 0.886741 0.949204 0.552458
C21   C     C_R   0.113109 0.893213 0.949006 0.552115
C22   C     C_R   0.613211 0.808256 0.385535 -0.015933
C23   C     C_R   0.191505 0.804849 0.385558 -0.015907
C24   C     C_R   0.195126 0.386597 0.385562 -0.015943
C25   C     C_R   0.594060 0.882071 0.358355 -0.114841
C26   C     C_R   0.117896 0.712017 0.358318 -0.114793
C27   C     C_R   0.287992 0.405751 0.358333 -0.114864
C28   C     C_R   0.628055 0.905932 0.309813 0.273777
C29   C     C_R   0.094120 0.722148 0.309750 0.273747
C30   C     C_R   0.277799 0.371774 0.309772 0.273804
C31   C     C_R   0.680668 0.852950 0.288554 0.045870
C32   C     C_R   0.146973 0.827614 0.288538 0.045899
C33   C     C_R   0.172243 0.319127 0.288564 0.045860
C34   C     C_R   0.233276 0.787189 0.431544 0.545534
C35   C     C_R   0.212797 0.446039 0.431540 0.545951
C36   C     C_R   0.553885 0.766643 0.431528 0.545887
C37   C     C_R   0.708015 0.786368 0.316824 -0.180390
C38   C     C_R   0.213266 0.921405 0.316876 -0.180391
C39   C     C_R   0.078438 0.291739 0.316883 -0.180461
C40   C     C_R   0.674338 0.764017 0.365208 -0.156994
C41   C     C_R   0.235544 0.910077 0.365280 -0.156916
C42   C     C_R   0.089826 0.325435 0.365280 -0.156960
C43   C     C_R   0.661984 0.764755 0.208057 -0.118126
C44   C     C_R   0.235395 0.897411 0.208165 -0.118211
C45   C     C_R   0.102536 0.337929 0.208143 -0.118027
C46   C     C_R   0.680683 0.771901 0.158109 -0.132720
C47   C     C_R   0.228335 0.909095 0.158218 -0.132836
C48   C     C_R   0.090969 0.319303 0.158185 -0.132777
C49   C     C_R   0.769511 0.971450 0.163305 -0.128426
C50   C     C_R   0.028752 0.797999 0.163177 -0.128397
C51   C     C_R   0.201935 0.230427 0.163245 -0.128305
C52   C     C_R   0.753111 0.964281 0.213298 -0.079374
C53   C     C_R   0.035818 0.788675 0.213164 -0.079402
C54   C     C_R   0.211148 0.246718 0.213243 -0.079400
C55   C     C_R   0.700220 0.860963 0.235971 0.063998
C56   C     C_R   0.139097 0.839198 0.235954 0.064006
C57   C     C_R   0.160616 0.299602 0.235985 0.064024
C58   C     C_R   0.736211 0.875411 0.135641 0.020903
C59   C     C_R   0.124835 0.860980 0.135635 0.020865
C60   C     C_R   0.139077 0.263792 0.135646 0.020922
C61   C     C_R   0.106011 0.220465 0.086514 0.545782
C62   C     C_R   0.779608 0.885660 0.086525 0.545607
C63   C     C_R   0.114448 0.894074 0.086527 0.545841
C64   C     C_3   0.532533 0.776915 0.741315 -0.224537
C65   C     C_3   0.202311 0.740585 0.740283 -0.231328
C66   C     C_3   0.261003 0.463716 0.741071 -0.234723
C67   C     C_3   0.717273 0.943531 0.725343 -0.075644
C68   C     C_3   0.058101 0.792779 0.723590 -0.076171
C69   C     C_3   0.209581 0.267927 0.723706 -0.074760
C70   C     C_3   0.742903 0.957230 0.781128 -0.212341
C71   C     C_3   0.047055 0.810757 0.778998 -0.211085
C72   C     C_3   0.197190 0.242136 0.779473 -0.210401
C73   C     C_1   0.732528 0.871375 0.901706 -0.025182
C74   C     C_1   0.127945 0.861927 0.901245 -0.025231
C75   C     C_1   0.137755 0.265800 0.901272 -0.025177
C76   C     C_3   0.641774 0.817829 0.712618 0.085655
C77   C     C_3   0.180270 0.823995 0.712059 0.081539
C78   C     C_3   0.178050 0.358993 0.712436 0.082172
C79   C     C_3   0.555366 0.792380 0.796960 -0.222974
C80   C     C_3   0.183012 0.745300 0.795693 -0.228250
C81   C     C_3   0.250370 0.440063 0.796651 -0.226423
C82   C     C_3   0.680564 0.844670 0.807299 0.048600
C83   C     C_3   0.153857 0.836437 0.806675 0.048009
C84   C     C_3   0.163795 0.317799 0.806801 0.050708
Cr1   Cr    Cr6+3 0.164410 0.584450 0.499910 1.010695
Cr2   Cr    Cr6+3 0.415550 0.579960 0.499910 1.010251
Cr3   Cr    Cr6+3 0.420040 0.835590 0.499910 1.010209
Cr4   Cr    Cr6+3 0.156760 0.076070 0.017830 1.020766
Cr5   Cr    Cr6+3 0.923930 0.080690 0.017830 1.020858
Cr6   Cr    Cr6+3 0.919310 0.843240 0.017830 1.020722
H1    H     H_    0.524798 0.846319 0.811756 0.109402
H2    H     H_    0.114826 0.663930 0.808072 0.111865
H3    H     H_    0.331787 0.459035 0.811729 0.109922
H4    H     H_    0.473709 0.689123 0.732920 0.120534
H5    H     H_    0.287483 0.756816 0.733762 0.108235
H6    H     H_    0.248087 0.534369 0.733160 0.107485
H7    H     H_    0.508962 0.711467 0.815743 0.111070
H8    H     H_    0.258671 0.761906 0.816011 0.111610
H9    H     H_    0.225606 0.495118 0.815217 0.113066
H10   H     H_    0.813734 0.810037 0.791448 0.089551
H11   H     H_    0.230584 0.015319 0.796069 0.098507
H12   H     H_    0.988778 0.204592 0.791435 0.094207
H13   H     H_    0.544526 0.914167 0.373575 0.135112
H14   H     H_    0.085958 0.630504 0.373507 0.135126
H15   H     H_    0.369551 0.455321 0.373525 0.134957
H16   H     H_    0.618607 0.684397 0.224964 0.114486
H17   H     H_    0.315743 0.934495 0.225174 0.114732
H18   H     H_    0.065510 0.381336 0.225111 0.114630
H19   H     H_    0.655431 0.697176 0.137341 0.122342
H20   H     H_    0.303084 0.958745 0.137543 0.122376
H21   H     H_    0.041416 0.344608 0.137462 0.122293
H22   H     H_    0.783772 0.039374 0.234428 0.119875
H23   H     H_    0.960655 0.744100 0.234198 0.119965
H24   H     H_    0.255685 0.216016 0.234323 0.119726
H25   H     H_    0.814589 0.052493 0.146875 0.130750
H26   H     H_    0.947697 0.761902 0.146660 0.130921
H27   H     H_    0.238020 0.185373 0.146755 0.130810
H28   H     H_    0.750978 0.747689 0.300701 0.107613
H29   H     H_    0.251815 0.002946 0.300793 0.107591
H30   H     H_    0.996841 0.248769 0.300788 0.107622
H31   H     H_    0.491479 0.823610 0.729660 0.091250
H32   H     H_    0.146497 0.656086 0.726481 0.098252
H33   H     H_    0.346094 0.489816 0.728892 0.107135
H34   H     H_    0.690748 0.707753 0.385818 0.133181
H35   H     H_    0.291649 0.982648 0.385943 0.133311
H36   H     H_    0.017234 0.309047 0.385931 0.133218
H37   H     H_    0.667620 0.984478 0.718311 0.137480
H38   H     H_    0.005334 0.702344 0.717220 0.139044
H39   H     H_    0.299224 0.304237 0.715627 0.134832
H40   H     H_    0.718105 0.015074 0.796809 0.104064
H41   H     H_    0.975411 0.735402 0.794349 0.104334
H42   H     H_    0.276809 0.254532 0.794193 0.103587
H43   H     H_    0.832643 0.993826 0.788599 0.107419
H44   H     H_    0.030700 0.879950 0.785157 0.106639
H45   H     H_    0.134391 0.154706 0.786965 0.106834
H46   H     H_    0.777065 0.784893 0.711896 0.112926
H47   H     H_    0.240615 0.001367 0.714063 0.132050
H48   H     H_    0.999214 0.249088 0.710909 0.132533
H49   H     H_    0.688259 0.693012 0.807885 0.130296
H50   H     H_    0.325326 0.967387 0.807486 0.124416
H51   H     H_    0.020035 0.339864 0.808600 0.123417
O1    O     O_R   0.137310 0.468260 0.552980 -0.512251
O2    O     O_R   0.531740 0.669050 0.552980 -0.513309
O3    O     O_R   0.330950 0.862690 0.552980 -0.513000
O4    O     O_R   0.180530 0.983530 0.965090 -0.511818
O5    O     O_R   0.016470 0.197000 0.965090 -0.511877
O6    O     O_R   0.803000 0.819470 0.965090 -0.511915
O7    O     O_R   0.174120 0.688790 0.549730 -0.500933
O8    O     O_R   0.311210 0.485330 0.549730 -0.501355
O9    O     O_R   0.514670 0.825880 0.549730 -0.500779
O10   O     O_R   0.139940 0.470480 0.446230 -0.519838
O11   O     O_R   0.529520 0.669460 0.446230 -0.519968
O12   O     O_R   0.330540 0.860060 0.446230 -0.519802
O13   O     O_R   0.176560 0.690850 0.450770 -0.508984
O14   O     O_R   0.309150 0.485710 0.450770 -0.508880
O15   O     O_R   0.514290 0.823440 0.450770 -0.508731
O16   O     O_3   0.333333 0.666667 0.499990 -0.265134
O17   O     O_3   1.000000 0.000000 0.017910 -0.221022
O18   O     O_R   0.149710 0.171070 0.967700 -0.496650
O19   O     O_R   0.828930 0.978640 0.967700 -0.496829
O20   O     O_R   0.021360 0.850290 0.967700 -0.496566
O21   O     O_R   0.178510 0.985930 0.071830 -0.520800
O22   O     O_R   0.014070 0.192580 0.071830 -0.520737
O23   O     O_R   0.807420 0.821490 0.071830 -0.520770
O24   O     O_R   0.147830 0.173300 0.066650 -0.501457
O25   O     O_R   0.826700 0.974530 0.066650 -0.501725
O26   O     O_R   0.025470 0.852170 0.066650 -0.501549
O27   O     O_3   0.593705 0.963825 0.280191 -0.570831
C85   C     C_3   0.615546 0.065362 0.301116 -0.007280
H52   H     H_    0.662339 0.131226 0.273913 0.143241
H53   H     H_    0.667790 0.089166 0.334602 0.108188
C86   C     C_3   0.506418 0.061919 0.311410 -0.252286
H54   H     H_    0.460119 0.047083 0.276803 0.165374
H55   H     H_    0.455803 0.993173 0.336643 0.177557
C87   C     C_3   0.524294 0.169356 0.333655 -0.499823
H56   H     H_    0.574634 0.189340 0.367388 0.153151
H57   H     H_    0.443369 0.161346 0.342908 0.133422
H58   H     H_    0.566195 0.237142 0.306932 0.136802
O28   O     O_3   0.036506 0.630030 0.280085 -0.570823
C88   C     C_3   0.934859 0.550489 0.300870 -0.007422
H59   H     H_    0.869095 0.531511 0.273557 0.143322
H60   H     H_    0.910830 0.578889 0.334306 0.108132
C89   C     C_3   0.938387 0.444906 0.311234 -0.252142
H61   H     H_    0.953910 0.413738 0.276706 0.165775
H62   H     H_    0.006758 0.462853 0.336742 0.177299
C90   C     C_3   0.830615 0.355274 0.333059 -0.499785
H63   H     H_    0.809824 0.385363 0.366656 0.153202
H64   H     H_    0.838722 0.282481 0.342440 0.133423
H65   H     H_    0.763300 0.329459 0.306027 0.136539
O29   O     O_3   0.369867 0.406225 0.280087 -0.570746
C91   C     C_3   0.449807 0.384471 0.300882 -0.007366
H66   H     H_    0.468936 0.337733 0.273596 0.143398
H67   H     H_    0.421724 0.332268 0.334349 0.108095
C92   C     C_3   0.555190 0.493607 0.311174 -0.252121
H68   H     H_    0.585965 0.540182 0.276630 0.166025
H69   H     H_    0.537093 0.543875 0.336718 0.177210
C93   C     C_3   0.645311 0.475823 0.332906 -0.500089
H70   H     H_    0.615654 0.425181 0.366544 0.153131
H71   H     H_    0.718019 0.556718 0.342193 0.133376
H72   H     H_    0.671100 0.434323 0.305849 0.136621
C94   C     C_3   0.824255 0.004464 0.693948 -0.296774
C95   C     C_3   0.813210 0.070488 0.652066 -0.453458
H73   H     H_    0.750347 0.015324 0.625390 0.166583
H74   H     H_    0.789382 0.129858 0.666206 0.138116
H75   H     H_    0.893398 0.117210 0.632829 0.139577
H76   H     H_    0.894569 0.063130 0.716671 0.124957
H77   H     H_    0.848294 0.946786 0.678139 0.147148
C96   C     C_3   0.012930 0.851993 0.690547 -0.300184
C97   C     C_3   0.938785 0.778057 0.649509 -0.455636
H78   H     H_    0.985884 0.755433 0.624097 0.165583
H79   H     H_    0.869158 0.701494 0.664590 0.135028
H80   H     H_    0.904864 0.822457 0.628632 0.140532
H81   H     H_    0.964903 0.880501 0.712089 0.123756
H82   H     H_    0.081058 0.925928 0.673351 0.153842
C98   C     C_3   0.147145 0.161767 0.692018 -0.298160
C99   C     C_3   0.214791 0.161673 0.648124 -0.455141
H83   H     H_    0.240075 0.234928 0.624791 0.166206
H84   H     H_    0.289854 0.160981 0.660501 0.137077
H85   H     H_    0.164824 0.087230 0.625519 0.139791
H86   H     H_    0.126879 0.087579 0.713932 0.126241
H87   H     H_    0.068163 0.151182 0.678246 0.149114
C100  C     C_3   0.635519 0.624970 0.714466 -0.277119
C101  C     C_3   0.562014 0.538812 0.752211 -0.450888
H88   H     H_    0.505585 0.460038 0.733486 0.126345
H89   H     H_    0.612853 0.521572 0.777938 0.137853
H90   H     H_    0.512076 0.565941 0.772940 0.145481
H91   H     H_    0.584742 0.612754 0.681507 0.160419
H92   H     H_    0.698161 0.602642 0.703220 0.127280
C102  C     C_3   0.385374 0.984767 0.718226 -0.291678
C103  C     C_3   0.459526 0.108458 0.727267 -0.463257
H93   H     H_    0.432636 0.156417 0.704638 0.142788
H94   H     H_    0.458188 0.129119 0.766213 0.144686
H95   H     H_    0.545795 0.133317 0.717276 0.137358
H96   H     H_    0.417604 0.940294 0.740076 0.139251
H97   H     H_    0.393391 0.969431 0.679158 0.164338
C104  C     C_3   0.024611 0.412151 0.722883 -0.290401
C105  C     C_3   0.899876 0.364737 0.725748 -0.463522
H98   H     H_    0.858777 0.308133 0.694726 0.146244
H99   H     H_    0.866154 0.319699 0.760477 0.145675
H100  H     H_    0.881078 0.432942 0.723593 0.135737
H101  H     H_    0.063846 0.477974 0.750787 0.140260
H102  H     H_    0.052215 0.451175 0.686531 0.161336

loop_
_geom_bond_atom_site_label_1
_geom_bond_atom_site_label_2
_ccdc_geom_bond_type
C58   C62   S    
C63   O21   A    
C92   H69   S    
C80   H2    S    
C96   H81   S    
Cr6   O26   S    
C2    C18   S    
C24   C42   A    
C94   C95   S    
C15   C18   T    
C101  H88   S    
C69   C98   S    
C99   H85   S    
C98   C99   S    
C6    C9    S    
C91   H67   S    
C101  H90   S    
Cr5   O17   S    
C87   H57   S    
C88   H59   S    
C25   C28   A    
C9    H48   S    
C45   C57   A    
C33   C39   A    
C95   H74   S    
Cr5   O19   S    
C50   C59   A    
C61   O24   A    
C35   O14   A    
C37   C40   A    
Cr2   O11   S    
C89   H62   S    
C5    C83   S    
C10   C73   T    
Cr4   O18   S    
C92   C93   S    
C52   H22   S    
C39   H30   S    
C70   H40   S    
C97   H80   S    
C104  C105  S    
C12   C84   S    
C103  H95   S    
C85   H52   S    
C14   C77   S    
C104  H102  S    
C102  H96   S    
C93   H71   S    
C62   O25   A    
C45   H18   S    
C97   H79   S    
C62   O23   A    
C37   H28   S    
Cr1   O7    S    
C88   H60   S    
C96   C97   S    
Cr3   O9    S    
C68   C96   S    
C70   H43   S    
C33   C57   S    
C94   H76   S    
C24   C27   A    
C48   C60   A    
C32   C38   A    
Cr3   O3    S    
C87   H58   S    
C44   C47   A    
C4    H49   S    
C68   H38   S    
C79   H1    S    
C88   C89   S    
Cr1   O13   S    
C26   H14   S    
C49   C52   A    
C2    O8    A    
C63   O26   A    
C92   H68   S    
C65   C80   S    
C105  H98   S    
C46   C58   A    
C9    C104  S    
C85   H53   S    
C14   C17   T    
C69   C78   S    
C100  C101  S    
C35   O10   A    
C71   H44   S    
C4    C7    S    
C40   H34   S    
C98   H87   S    
Cr2   O16   S    
C86   H55   S    
Cr2   O2    S    
C72   H42   S    
C39   C42   A    
C71   C83   S    
C34   O13   A    
C64   C76   S    
Cr5   O5    S    
C66   C78   S    
C5    H11   S    
C50   C53   A    
C21   O20   A    
C95   H73   S    
C66   C81   S    
Cr6   O20   S    
C91   H66   S    
C24   C35   S    
C85   C86   S    
C41   H35   S    
C6    C84   S    
C99   H83   S    
C38   C41   A    
Cr2   O8    S    
C7    C100  S    
C42   H36   S    
C25   H13   S    
C72   H45   S    
C81   H9    S    
C11   C83   S    
C47   C59   A    
C21   C74   S    
C95   H75   S    
C103  H93   S    
C49   C58   A    
C31   C37   A    
Cr6   O23   S    
C60   C61   S    
C43   H16   S    
C21   O4    A    
C104  H101  S    
C102  H97   S    
C93   H72   S    
C89   H61   S    
Cr1   O10   S    
O29   C91   S    
C102  C103  S    
C67   C94   S    
C67   H37   S    
C5    C8    S    
C65   C77   S    
C81   H3    S    
C8    C102  S    
C44   C56   A    
C53   H23   S    
C87   H56   S    
C13   C76   S    
C100  H92   S    
Cr4   O4    S    
C23   C34   S    
C22   C40   A    
C44   H17   S    
Cr3   O12   S    
C97   H78   S    
C94   H77   S    
C20   O6    A    
C3    O2    A    
Cr2   O14   S    
C65   H32   S    
C6    H51   S    
C103  H94   S    
C72   C84   S    
C38   H29   S    
C43   C55   A    
O27   C85   S    
C49   H25   S    
C22   C25   A    
C19   O5    A    
Cr4   O17   S    
C5    H50   S    
C105  H99   S    
C20   O19   A    
C8    C77   S    
C2    O1    A    
C64   C79   S    
C105  H100  S    
C90   H64   S    
C81   C84   S    
C86   H54   S    
C36   O15   A    
C86   C87   S    
C66   H6    S    
C45   C48   A    
C68   C77   S    
C3    O9    A    
C96   H82   S    
C30   C33   A    
C80   H8    S    
C61   O22   A    
C59   C63   S    
C79   H7    S    
C28   C31   A    
C36   O11   A    
C99   H84   S    
C11   C74   T    
Cr1   O1    S    
C79   C82   S    
C52   C55   A    
C7    C76   S    
C51   C60   A    
C29   C32   A    
C47   H20   S    
C22   C36   S    
C28   O27   S    
C1    C17   S    
C23   C41   A    
C89   C90   S    
C67   C70   S    
C19   O18   A    
C51   C54   A    
C90   H65   S    
C4    H10   S    
C13   C16   T    
C91   C92   S    
C64   H4    S    
C7    H46   S    
C1    O3    A    
C98   H86   S    
Cr6   O6    S    
Cr5   O22   S    
C101  H89   S    
C100  H91   S    
C68   C71   S    
Cr4   O21   S    
C54   H24   S    
C30   O29   S    
C19   C75   S    
C80   C83   S    
C51   H27   S    
C23   C26   A    
C10   C82   S    
C20   C73   S    
C50   H26   S    
C9    C78   S    
C6    H12   S    
C93   H70   S    
C70   C82   S    
C43   C46   A    
C53   C56   A    
Cr5   O25   S    
C34   O12   A    
C12   C75   T    
C71   H41   S    
O28   C88   S    
C15   C78   S    
Cr3   O16   S    
C65   H5    S    
C48   H21   S    
C4    C82   S    
Cr6   O17   S    
C26   C29   A    
C69   H39   S    
Cr4   O24   S    
C29   O28   S    
C46   H19   S    
Cr1   O16   S    
C27   H15   S    
C66   H33   S    
C8    H47   S    
C1    O7    A    
C67   C76   S    
C69   C72   S    
C31   C55   S    
C90   H63   S    
Cr3   O15   S    
C32   C56   S    
C3    C16   S    
C64   H31   S    
C27   C30   A    
C54   C57   A    
