data_mof_unit_7374.cif
_audit_creation_date              2012-10-26T21:19:40-0400
_audit_creation_method            fapswitch 2.2
_symmetry_space_group_name_H-M    P1
_symmetry_Int_Tables_number       1
_space_group_crystal_system       triclinic
_cell_length_a                    10.971633
_cell_length_b                    15.100106
_cell_length_c                    14.019795
_cell_angle_alpha                 89.308818
_cell_angle_beta                  92.296296
_cell_angle_gamma                 93.760649
_cell_volume                      2315.73280547

loop_
_atom_site_label
_atom_site_type_symbol
_atom_type_description
_atom_site_fract_x
_atom_site_fract_y
_atom_site_fract_z
_atom_type_partial_charge
C1    C     C_R   0.500315 0.329383 0.500633 0.546364
C2    C     C_R   0.431945 0.814260 0.435381 0.121465
C3    C     C_R   0.510769 0.232001 0.501119 0.000165
C4    C     C_R   0.508610 0.766297 0.497169 0.025251
C5    C     C_R   0.566569 0.194487 0.423924 -0.076251
C6    C     C_R   0.598754 0.811138 0.555285 -0.093810
C7    C     C_R   0.580043 0.103001 0.419201 0.001574
C8    C     C_R   0.614294 0.903877 0.552999 0.013136
C9    C     C_R   0.536938 0.048235 0.494193 -0.073433
C10   C     C_R   0.536763 0.951357 0.491289 -0.073238
C11   C     C_R   0.519026 0.584334 0.108704 0.062993
C12   C     C_R   0.500179 0.669693 0.499297 0.550355
C13   C     C_R   0.412211 0.450181 0.892133 0.079915
C14   C     C_R   0.534064 0.577682 0.209986 0.157500
C15   C     C_R   0.413401 0.448350 0.790250 0.142887
C16   C     C_R   0.262689 0.501901 0.498345 0.559411
C17   C     C_R   0.737669 0.497100 0.502203 0.577798
C18   C     C_R   0.476252 0.424436 0.204880 0.234377
C19   C     C_R   0.571965 0.562390 0.791412 0.247606
C20   C     C_R   0.485318 0.426407 0.104868 -0.096010
C21   C     C_R   0.578393 0.560855 0.892146 -0.142036
C22   C     C_R   0.501032 0.506221 0.053679 0.013271
C23   C     C_R   0.871987 0.491216 0.506177 0.020272
C24   C     C_R   0.498506 0.505043 0.944779 0.023278
C25   C     C_R   0.135508 0.430619 0.166969 0.071954
C26   C     C_R   0.841611 0.430234 0.825791 0.105705
C27   C     C_R   0.124562 0.473697 0.254613 0.103764
C28   C     C_R   0.864007 0.437217 0.727726 0.145060
C29   C     C_R   0.109889 0.423364 0.338582 0.035167
C30   C     C_R   0.898974 0.519902 0.685996 0.062346
C31   C     C_R   0.117744 0.330620 0.337160 0.128212
C32   C     C_R   0.909328 0.596564 0.743243 0.034346
C33   C     C_R   0.126808 0.287211 0.250196 0.127196
C34   C     C_R   0.128770 0.504621 0.496475 0.003899
C35   C     C_R   0.893721 0.589141 0.842865 0.036916
C36   C     C_R   0.131200 0.336953 0.163606 0.033935
C37   C     C_R   0.859768 0.506034 0.884956 0.057494
C38   C     C_R   0.928339 0.459010 0.425576 -0.026373
C39   C     C_R   0.072661 0.537013 0.577090 0.011285
C40   C     C_2   0.127476 0.293291 0.068946 0.261466
C41   C     C_2   0.841521 0.501717 0.990154 0.208723
C42   C     C_2   0.639725 0.065700 0.336736 0.252477
C43   C     C_2   0.711430 0.950183 0.614370 0.247909
C44   C     C_2   0.608308 0.650178 0.258977 0.284634
C45   C     C_R   0.945731 0.521474 0.586782 0.001250
C46   C     C_2   0.314563 0.395399 0.736969 0.235870
C47   C     C_2   0.855798 0.410159 0.348263 0.260908
C48   C     C_2   0.147287 0.585902 0.653057 0.297409
C49   C     C_R   0.056227 0.464802 0.421429 -0.043116
C50   C     C_R   0.483072 0.084759 0.571646 -0.059563
C51   C     C_R   0.446766 0.906400 0.433234 -0.052764
C52   C     C_R   0.468842 0.175244 0.575971 0.085979
Cu1   Cu    Cu3+1 0.500000 0.499990 0.596430 0.974625
Cu2   Cu    Cu3+1 0.500000 0.500010 0.403570 0.998549
H1    H     H_    0.477390 0.363936 0.067337 0.156880
H2    H     H_    0.727800 0.021724 0.610211 0.129506
H3    H     H_    0.610161 0.690184 0.046093 0.247746
H4    H     H_    0.460987 0.671103 0.005195 0.242841
H5    H     H_    0.320017 0.332466 0.921840 0.275415
H6    H     H_    0.236301 0.424235 0.927182 0.295348
H7    H     H_    0.675994 0.634412 0.313802 0.128134
H8    H     H_    0.329554 0.368913 0.668860 0.154184
H9    H     H_    0.366188 0.313431 0.217557 0.219626
H10   H     H_    0.515685 0.298432 0.231048 0.240147
H11   H     H_    0.688722 0.615406 0.695433 0.259049
H12   H     H_    0.644501 0.605649 0.928518 0.101976
H13   H     H_    0.673190 0.681884 0.789404 0.205158
H14   H     H_    0.076084 0.521434 0.070821 0.246534
H15   H     H_    0.229922 0.522941 0.088152 0.249731
H16   H     H_    0.718336 0.349713 0.895662 0.269771
H17   H     H_    0.867577 0.323615 0.912401 0.285102
H18   H     H_    0.048068 0.588250 0.215832 0.229341
H19   H     H_    0.202839 0.597382 0.232619 0.248372
H20   H     H_    0.915202 0.314121 0.698911 0.269940
H21   H     H_    0.765864 0.330104 0.672628 0.263371
H22   H     H_    0.179602 0.303205 0.471499 0.215612
H23   H     H_    0.447993 0.041754 0.628174 0.166753
H24   H     H_    0.026163 0.286521 0.453434 0.260154
H25   H     H_    0.863049 0.721757 0.709752 0.253781
H26   H     H_    0.013936 0.712356 0.732000 0.267307
H27   H     H_    0.053075 0.166294 0.208321 0.282799
H28   H     H_    0.208500 0.173253 0.225984 0.268875
H29   H     H_    0.005764 0.690063 0.896889 0.253742
H30   H     H_    0.857818 0.714846 0.878679 0.245509
H31   H     H_    0.872088 0.425459 0.273848 0.130952
H32   H     H_    0.142966 0.564710 0.727126 0.133026
H33   H     H_    0.324670 0.232364 0.626561 0.236738
H34   H     H_    0.385684 0.943512 0.387766 0.161467
H35   H     H_    0.459813 0.251080 0.693602 0.249033
H36   H     H_    0.280643 0.730066 0.421499 0.261471
H37   H     H_    0.372447 0.732849 0.326653 0.280853
H38   H     H_    0.600816 0.236815 0.367183 0.219693
H39   H     H_    0.658330 0.773300 0.601205 0.165849
H40   H     H_    0.091174 0.327346 0.006558 0.163462
H41   H     H_    0.842997 0.562318 0.031057 0.141305
H42   H     H_    0.653965 0.995381 0.334022 0.139329
N1    N     N_R   0.500000 0.500020 0.258690 -0.244791
N2    N     N_3   0.854922 0.359035 0.669925 -0.600262
N3    N     N_3   0.110455 0.278767 0.423468 -0.561297
N4    N     N_3   0.935318 0.681790 0.699064 -0.610191
N5    N     N_3   0.126145 0.192191 0.251804 -0.540532
N6    N     N_3   0.914893 0.665775 0.902427 -0.671814
N7    N     N_3   0.403809 0.205163 0.654203 -0.614188
N8    N     N_3   0.334875 0.771554 0.377751 -0.593811
N9    N     N_R   0.500000 0.499980 0.741310 -0.242946
N10   N     N_3   0.521141 0.670913 0.064905 -0.569874
N11   N     N_3   0.320983 0.398751 0.942749 -0.626208
N12   N     N_3   0.447979 0.340335 0.248556 -0.548190
N13   N     N_3   0.626723 0.637348 0.742137 -0.565905
N14   N     N_3   0.149909 0.481672 0.080787 -0.651964
N15   N     N_3   0.801575 0.344773 0.862953 -0.611342
N16   N     N_3   0.121575 0.568461 0.258866 -0.612503
O1    O     O_R   0.500010 0.371450 0.581430 -0.555361
O2    O     O_2   0.825576 0.431580 0.033369 -0.544523
O3    O     O_2   0.674257 0.113179 0.270676 -0.475102
O4    O     O_2   0.774973 0.908883 0.670327 -0.501207
O5    O     O_2   0.595700 0.728077 0.239046 -0.491206
O6    O     O_2   0.211116 0.384517 0.765764 -0.565751
O7    O     O_2   0.781607 0.349597 0.367700 -0.491636
O8    O     O_2   0.213621 0.650982 0.632783 -0.482486
O9    O     O_R   0.499990 0.628550 0.418570 -0.536341
O10   O     O_R   0.500010 0.371460 0.418560 -0.440401
O11   O     O_R   0.499990 0.628540 0.581440 -0.446049
O12   O     O_R   0.319640 0.500000 0.581430 -0.507168
O13   O     O_R   0.680360 0.500000 0.418570 -0.504304
O14   O     O_R   0.319640 0.500010 0.418560 -0.484662
O15   O     O_R   0.680360 0.499990 0.581440 -0.515668
O16   O     O_2   0.165770 0.220101 0.058609 -0.516303

loop_
_geom_bond_atom_site_label_1
_geom_bond_atom_site_label_2
_ccdc_geom_bond_type
H18   N16   S    
C52   N7    S    
C23   C45   A    
H29   N6    S    
C21   H12   S    
C27   C29   A    
H30   N6    S    
C30   C45   S    
C8    C43   S    
H37   N8    S    
C13   N11   S    
C35   N6    S    
C48   O8    D    
C38   C49   A    
C29   C49   S    
Cu1   Cu2   S    
H22   N3    S    
Cu2   O14   S    
C17   C23   S    
C46   H8    S    
C33   N5    S    
C47   H31   S    
C19   C21   A    
C11   C14   A    
C40   O16   D    
C33   C36   A    
C46   O6    D    
C7    C42   S    
C1    O10   A    
Cu1   O15   S    
C16   C34   S    
H13   N13   S    
C12   O9    A    
H17   N15   S    
C50   C52   A    
C31   C33   A    
Cu2   N1    S    
C18   N1    A    
C31   N3    S    
C4    C12   S    
C9    C10   S    
C41   O2    D    
C18   C20   A    
C39   C45   A    
C47   O7    D    
H3    N10   S    
Cu2   O10   S    
H26   N4    S    
C1    O1    A    
C20   H1    S    
C10   C51   A    
Cu1   O1    S    
H10   N12   S    
C19   N13   S    
Cu2   O13   S    
C34   C39   A    
C32   C35   A    
H25   N4    S    
C36   C40   S    
C4    C6    A    
Cu1   O11   S    
C5    C7    A    
C17   O15   A    
H27   N5    S    
H21   N2    S    
H5    N11   S    
C32   N4    S    
C13   C24   A    
C1    C3    S    
C2    C4    A    
C43   O4    D    
H15   N14   S    
C42   O3    D    
C2    N8    S    
C6    H39   S    
H36   N8    S    
C11   N10   S    
H14   N14   S    
H11   N13   S    
C38   C47   S    
H6    N11   S    
C25   N14   S    
H33   N7    S    
C19   N9    A    
Cu2   O9    S    
C20   C22   A    
C27   N16   S    
C13   C15   A    
C22   C24   S    
C50   H23   S    
C14   N1    A    
C14   C44   S    
C28   N2    S    
H19   N16   S    
C7    C9    A    
C34   C49   A    
H20   N2    S    
C35   C37   A    
C9    C50   A    
C40   H40   S    
C3    C5    A    
Cu1   O12   S    
C51   H34   S    
C6    C8    A    
C3    C52   A    
C26   C37   A    
C44   H7    S    
C25   C27   A    
C23   C38   A    
C11   C22   A    
C26   C28   A    
C2    C51   A    
C42   H42   S    
C15   N9    A    
C28   C30   A    
C16   O12   A    
C29   C31   A    
C30   C32   A    
C17   O13   A    
C41   H41   S    
C12   O11   A    
C44   O5    D    
H28   N5    S    
C48   H32   S    
C37   C41   S    
C18   N12   S    
C5    H38   S    
H16   N15   S    
C25   C36   A    
Cu1   N9    S    
C43   H2    S    
C8    C10   A    
C21   C24   A    
H24   N3    S    
C15   C46   S    
H4    N10   S    
H9    N12   S    
C16   O14   A    
C26   N15   S    
H35   N7    S    
C39   C48   S    
