data_mof_unit_35596.cif
_audit_creation_date              2012-12-11T14:34:06-0500
_audit_creation_method            fapswitch 2.2
_symmetry_space_group_name_H-M    P1
_symmetry_Int_Tables_number       1
_space_group_crystal_system       triclinic
_cell_length_a                    13.812639
_cell_length_b                    13.974093
_cell_length_c                    27.409774
_cell_angle_alpha                 90.062601
_cell_angle_beta                  90.043468
_cell_angle_gamma                 119.651718
_cell_volume                      4597.78992854

loop_
_atom_site_label
_atom_site_type_symbol
_atom_type_description
_atom_site_fract_x
_atom_site_fract_y
_atom_site_fract_z
_atom_type_partial_charge
C1    C     C_R   0.234008 0.786975 0.568925 0.545338
C2    C     C_1   0.709531 0.863642 0.859775 -0.074207
C3    C     C_2   0.797798 0.652641 0.324772 0.570879
C4    C     C_2   0.331214 0.135992 0.326809 0.559811
C5    C     C_2   0.964154 0.044258 0.357582 0.559632
C6    C     C_2   0.790097 0.035481 0.698789 0.540564
C7    C     C_2   0.951351 0.770216 0.689284 0.541082
C8    C     C_2   0.224186 0.183896 0.690141 0.536362
C9    C     C_1   0.113622 0.879129 0.852880 -0.073538
C10   C     C_1   0.115569 0.233032 0.852527 -0.074703
C11   C     C_1   0.628209 0.814342 0.659035 -0.030981
C12   C     C_1   0.176822 0.817035 0.656694 -0.036362
C13   C     C_1   0.180613 0.362496 0.657101 -0.038307
C14   C     C_1   0.600375 0.795761 0.616868 0.023192
C15   C     C_1   0.199403 0.805225 0.615528 0.019933
C16   C     C_1   0.194158 0.396050 0.615855 0.021915
C17   C     C_R   0.067661 0.154672 0.096681 0.559806
C18   C     C_R   0.212858 0.447231 0.569056 0.546519
C19   C     C_R   0.779818 0.885748 0.089589 0.542998
C20   C     C_R   0.115560 0.894564 0.089026 0.549889
C21   C     C_R   0.069622 0.160880 0.943134 0.540380
C22   C     C_R   0.779969 0.887209 0.950606 0.540766
C23   C     C_R   0.090735 0.929322 0.943325 0.538547
C24   C     C_R   0.623023 0.899175 0.363536 -0.109307
C25   C     C_R   0.118164 0.712800 0.358367 -0.117888
C26   C     C_R   0.254017 0.463323 0.346701 -0.106798
C27   C     C_R   0.657533 0.920380 0.315257 0.024101
C28   C     C_R   0.098320 0.725770 0.310055 0.025527
C29   C     C_R   0.552458 0.765101 0.569138 0.544339
C30   C     C_R   0.236755 0.423689 0.299429 0.030266
C31   C     C_R   0.696920 0.940486 0.214286 0.046007
C32   C     C_R   0.076118 0.750064 0.209866 0.038942
C33   C     C_R   0.201113 0.346281 0.203286 0.043974
C34   C     C_R   0.232057 0.787131 0.431866 0.543554
C35   C     C_R   0.211261 0.443221 0.432484 0.540418
C36   C     C_R   0.555944 0.767426 0.432029 0.539230
C37   C     C_R   0.662209 0.007326 0.238265 -0.114230
C38   C     C_R   0.029284 0.644746 0.230762 -0.108167
C39   C     C_R   0.275487 0.457745 0.213585 -0.116558
C40   C     C_3   0.667383 0.738163 0.789312 -0.219811
C41   C     C_R   0.642419 0.997054 0.288295 -0.133358
C42   C     C_R   0.039304 0.632887 0.280476 -0.109695
C43   C     C_R   0.293656 0.495750 0.261243 -0.137943
C44   C     C_R   0.711646 0.945607 0.163228 0.116385
C45   C     C_R   0.071011 0.763589 0.159090 0.114363
C46   C     C_R   0.181219 0.307740 0.154982 0.144206
C47   C     C_R   0.745424 0.875695 0.140785 0.002738
C48   C     C_R   0.124747 0.871167 0.139938 0.005638
C49   C     C_R   0.099639 0.196878 0.145898 0.008301
C50   C     C_R   0.677131 0.758509 0.367965 -0.087360
C51   C     C_3   0.245241 0.948463 0.783836 -0.217558
C52   C     C_R   0.227824 0.910905 0.368852 -0.088511
C53   C     C_R   0.120591 0.281881 0.376998 -0.099763
C54   C     C_R   0.716708 0.781252 0.320032 0.022047
C55   C     C_R   0.209668 0.926926 0.320038 0.012224
C56   C     C_R   0.101493 0.238818 0.329264 0.025601
C57   C     C_R   0.699304 0.857672 0.292646 0.035500
C58   C     C_R   0.145369 0.832554 0.290330 0.051214
C59   C     C_R   0.160467 0.311482 0.290256 0.068661
C60   C     C_R   0.763201 0.722323 0.297280 0.075866
C61   C     C_R   0.257158 0.033628 0.299437 0.062243
C62   C     C_3   0.048578 0.303120 0.784727 -0.217561
C63   C     C_R   0.027623 0.125859 0.319142 0.063926
C64   C     C_R   0.778116 0.730443 0.246793 -0.132877
C65   C     C_R   0.240471 0.043795 0.249961 -0.127278
C66   C     C_R   0.012428 0.088486 0.270768 -0.117483
C67   C     C_R   0.752433 0.799370 0.219386 -0.042576
C68   C     C_R   0.182929 0.950508 0.220497 -0.032587
C69   C     C_R   0.067245 0.161231 0.232357 -0.019442
C70   C     C_3   0.560940 0.846582 0.738159 -0.211311
C71   C     C_3   0.135710 0.728469 0.738796 -0.211320
C72   C     C_3   0.269397 0.404986 0.739343 -0.209787
C73   C     C_3   0.646323 0.725293 0.733521 -0.242359
C74   C     C_R   0.717470 0.866858 0.242148 0.008748
C75   C     C_R   0.133228 0.844352 0.240332 0.022609
C76   C     C_R   0.143240 0.272768 0.241975 0.029464
C77   C     C_R   0.763313 0.802386 0.169325 -0.159178
C78   C     C_R   0.178459 0.962899 0.170870 -0.157561
C79   C     C_R   0.045291 0.124302 0.184267 -0.185316
C80   C     C_R   0.624430 0.812277 0.388468 -0.023010
C81   C     C_R   0.187982 0.804746 0.386804 0.000438
C82   C     C_R   0.195526 0.393371 0.384990 0.011704
C83   C     C_3   0.769774 0.929586 0.722873 -0.020554
C84   C     C_3   0.262504 0.931031 0.729459 -0.239388
C85   C     C_3   0.057474 0.853854 0.714520 -0.020253
C86   C     C_3   0.137836 0.205898 0.713664 -0.020229
C87   C     C_3   0.789422 0.942933 0.779157 -0.220897
C88   C     C_3   0.038032 0.865024 0.769699 -0.222489
C89   C     C_3   0.119016 0.171466 0.768344 -0.221863
C90   C     C_1   0.735949 0.873641 0.902174 -0.026852
C91   C     C_1   0.103012 0.900384 0.894465 -0.019997
C92   C     C_1   0.096871 0.201298 0.894146 -0.024142
C93   C     C_3   0.651575 0.830285 0.711815 0.037350
C94   C     C_3   0.156621 0.830906 0.708279 0.034906
C95   C     C_3   0.065388 0.336416 0.730105 -0.238723
C96   C     C_3   0.164796 0.327812 0.708520 0.034877
C97   C     C_3   0.584051 0.862546 0.793854 -0.212643
C98   C     C_3   0.117499 0.744847 0.793475 -0.211516
C99   C     C_3   0.253053 0.366347 0.793297 -0.208279
C100  C     C_3   0.687473 0.852081 0.806920 0.049082
C101  C     C_3   0.128165 0.859481 0.801340 0.044951
C102  C     C_3   0.133973 0.268097 0.801113 0.046153
C103  C     C_3   0.584724 0.969488 0.110744 -0.307339
C104  C     C_3   0.900106 0.617268 0.123713 -0.306178
C105  C     C_3   0.350724 0.395773 0.107148 -0.300234
Cr1   Cr    Cr6+3 0.164410 0.584450 0.499910 1.048225
Cr2   Cr    Cr6+3 0.415550 0.579960 0.499910 1.055713
Cr3   Cr    Cr6+3 0.420040 0.835590 0.499910 1.051633
Cr4   Cr    Cr6+3 0.155170 0.075460 0.019960 1.005270
Cr5   Cr    Cr6+3 0.924540 0.079710 0.019960 1.001409
Cr6   Cr    Cr6+3 0.920290 0.844830 0.019960 0.996236
H1    H     H_    0.597895 0.945008 0.804976 0.140840
H2    H     H_    0.740917 0.728822 0.798222 0.130548
H3    H     H_    0.255852 0.031961 0.788910 0.136006
H4    H     H_    0.962178 0.234207 0.790370 0.136846
H5    H     H_    0.584812 0.943110 0.379856 0.150561
H6    H     H_    0.086713 0.630145 0.372474 0.136157
H7    H     H_    0.311289 0.549925 0.353832 0.109609
H8    H     H_    0.647356 0.065760 0.218387 0.158142
H9    H     H_    0.986932 0.570836 0.208838 0.157056
H10   H     H_    0.319271 0.516774 0.184935 0.150086
H11   H     H_    0.611347 0.046320 0.305596 0.142658
H12   H     H_    0.033584 0.678993 0.805142 0.138520
H13   H     H_    0.004118 0.550681 0.295542 0.135722
H14   H     H_    0.351497 0.582093 0.268204 0.114333
H15   H     H_    0.790769 0.749534 0.152765 0.132433
H16   H     H_    0.216622 0.045842 0.156266 0.136209
H17   H     H_    0.984730 0.039031 0.176464 0.107373
H18   H     H_    0.810864 0.683353 0.228772 0.134912
H19   H     H_    0.278123 0.125181 0.233707 0.138021
H20   H     H_    0.955537 0.002345 0.262933 0.141977
H21   H     H_    0.556939 0.918119 0.722854 0.167988
H22   H     H_    0.062922 0.652527 0.724542 0.172531
H23   H     H_    0.315836 0.341620 0.803005 0.145072
H24   H     H_    0.345513 0.408257 0.724181 0.170532
H25   H     H_    0.677865 0.692320 0.388058 0.179524
H26   H     H_    0.276350 0.979510 0.392920 0.181749
H27   H     H_    0.079207 0.230632 0.408183 0.164207
H28   H     H_    0.832147 0.909723 0.707235 0.145327
H29   H     H_    0.082158 0.934583 0.697087 0.154755
H30   H     H_    0.058219 0.153257 0.694054 0.161303
H31   H     H_    0.806441 0.025471 0.791931 0.142450
H32   H     H_    0.953996 0.799761 0.781627 0.138823
H33   H     H_    0.176677 0.142519 0.780748 0.133113
H34   H     H_    0.477423 0.773226 0.731923 0.096373
H35   H     H_    0.864315 0.936502 0.788401 0.078305
H36   H     H_    0.040939 0.944535 0.776004 0.075768
H37   H     H_    0.032856 0.102018 0.772832 0.081752
H38   H     H_    0.563266 0.652134 0.726204 0.122657
H39   H     H_    0.335354 0.917767 0.725982 0.122783
H40   H     H_    0.080589 0.422121 0.726445 0.122095
H41   H     H_    0.709544 0.709574 0.715781 0.161124
H42   H     H_    0.282750 0.006713 0.708515 0.165860
H43   H     H_    0.987779 0.282110 0.709512 0.156013
H44   H     H_    0.594351 0.671370 0.808620 0.124397
H45   H     H_    0.208684 0.715378 0.735564 0.096045
H46   H     H_    0.310601 0.944726 0.806201 0.126608
H47   H     H_    0.058552 0.373754 0.807262 0.126772
H48   H     H_    0.756716 0.073944 0.113886 0.276106
H49   H     H_    0.581201 0.911303 0.082212 0.142904
H50   H     H_    0.572631 0.034345 0.093147 0.145123
H51   H     H_    0.516227 0.924825 0.137380 0.159281
H52   H     H_    0.058338 0.681086 0.094047 0.255848
H53   H     H_    0.875476 0.669734 0.102836 0.170824
H54   H     H_    0.860777 0.600413 0.160300 0.142243
H55   H     H_    0.868250 0.537655 0.104175 0.143659
H56   H     H_    0.283840 0.490701 0.737846 0.096148
H57   H     H_    0.196309 0.372224 0.084623 0.296366
H58   H     H_    0.344496 0.317510 0.094368 0.165599
H59   H     H_    0.402207 0.423030 0.140826 0.147797
H60   H     H_    0.393387 0.459603 0.078708 0.142130
H61   H     H_    0.870637 0.633396 0.384950 0.339463
H62   H     H_    0.464012 0.217384 0.371247 0.352741
H63   H     H_    0.861683 0.003023 0.415643 0.349953
H64   H     H_    0.865074 0.144076 0.644162 0.342116
H65   H     H_    0.839945 0.740794 0.635618 0.344336
H66   H     H_    0.260937 0.112198 0.634716 0.342989
H67   H     H_    0.509920 0.799766 0.814085 0.108891
H68   H     H_    0.180056 0.737112 0.816217 0.113765
H69   H     H_    0.267423 0.435989 0.817632 0.112080
N1    N     N_2   0.691301 0.019854 0.135350 -0.534423
N2    N     N_2   0.020199 0.670030 0.127519 -0.526242
N3    N     N_2   0.240985 0.381454 0.116069 -0.518595
O1    O     O_R   0.137150 0.468200 0.553200 -0.504377
O2    O     O_R   0.140110 0.470540 0.446010 -0.509719
O3    O     O_R   0.529460 0.669570 0.446010 -0.511096
O4    O     O_R   0.330430 0.859890 0.446010 -0.506319
O5    O     O_R   0.176710 0.690910 0.450560 -0.505508
O6    O     O_R   0.309090 0.485800 0.450560 -0.489450
O7    O     O_R   0.514200 0.823290 0.450560 -0.500813
O8    O     O_3   0.333333 0.666667 0.499990 -0.285099
O9    O     O_R   0.176750 0.985260 0.074180 -0.527831
O10   O     O_R   0.014740 0.191490 0.074180 -0.505477
O11   O     O_R   0.808510 0.823250 0.074180 -0.528452
O12   O     O_R   0.531800 0.668950 0.553200 -0.504255
O13   O     O_R   0.146100 0.172630 0.068980 -0.488964
O14   O     O_R   0.827370 0.973470 0.068980 -0.512924
O15   O     O_R   0.026530 0.853900 0.068980 -0.488372
O16   O     O_3   1.000000 0.000000 0.020040 -0.276921
O17   O     O_R   0.148270 0.170520 0.969620 -0.494240
O18   O     O_R   0.829480 0.977750 0.969620 -0.517302
O19   O     O_R   0.022250 0.851730 0.969620 -0.482396
O20   O     O_2   0.784531 0.566758 0.306852 -0.533705
O21   O     O_R   0.849518 0.687136 0.370286 -0.667954
O22   O     O_2   0.319683 0.216813 0.322316 -0.519436
O23   O     O_R   0.331050 0.862850 0.553200 -0.502391
O24   O     O_R   0.418459 0.142644 0.355225 -0.714315
O25   O     O_2   0.962903 0.956148 0.358249 -0.488092
O26   O     O_R   0.902301 0.065817 0.391765 -0.707221
O27   O     O_2   0.746947 0.087179 0.714826 -0.540381
O28   O     O_R   0.858012 0.073256 0.657487 -0.693765
O29   O     O_2   0.899629 0.675237 0.703883 -0.541473
O30   O     O_R   0.912046 0.802907 0.649233 -0.683795
O31   O     O_2   0.316577 0.219635 0.708383 -0.546142
O32   O     O_R   0.197249 0.121952 0.647159 -0.688260
O33   O     O_R   0.179100 0.982980 0.967000 -0.503607
O34   O     O_R   0.017020 0.196120 0.967000 -0.486846
O35   O     O_R   0.803880 0.820900 0.967000 -0.511081
O36   O     O_R   0.173970 0.688730 0.549930 -0.493354
O37   O     O_R   0.311270 0.485240 0.549930 -0.495088
O38   O     O_R   0.514760 0.826030 0.549930 -0.491999

loop_
_geom_bond_atom_site_label_1
_geom_bond_atom_site_label_2
_ccdc_geom_bond_type
C41   H11   S    
C89   H37   S    
C104  N2    S    
C79   H17   S    
C33   C46   A    
C87   H35   S    
C89   C102  S    
H63   O26   S    
C3    O20   D    
C32   C45   A    
H66   O32   S    
Cr3   O4    S    
C17   O10   A    
C95   C96   S    
C67   C77   A    
C24   C27   A    
C73   C93   S    
C8    O32   S    
C18   O37   A    
C43   H14   S    
C32   C75   A    
C83   H28   S    
C7    O29   D    
C66   H20   S    
C42   H13   S    
C4    O22   D    
C71   C94   S    
C54   C60   A    
C25   C28   A    
C29   O38   A    
Cr2   O3    S    
C33   C39   A    
C105  H58   S    
Cr4   O13   S    
Cr5   O18   S    
C36   O7    A    
C38   C42   A    
C8    O31   D    
Cr6   O15   S    
C11   C14   T    
C19   C47   S    
C103  H49   S    
C45   C48   A    
C66   C69   A    
C17   O13   A    
Cr4   O9    S    
C83   C93   S    
C55   C61   A    
C40   C73   S    
C5    C63   S    
C69   C76   A    
C2    C90   T    
C71   H22   S    
C85   C94   S    
C48   C78   A    
H61   O21   S    
Cr5   O34   S    
Cr6   O16   S    
C104  H54   S    
C24   C80   A    
C56   C59   A    
C58   C75   A    
C62   H47   S    
C40   H44   S    
C1    C15   S    
Cr6   O35   S    
C32   C38   A    
C23   C91   S    
C88   H32   S    
C36   O3    A    
C52   C55   A    
C38   H9    S    
C3    C60   S    
Cr4   O33   S    
Cr1   O36   S    
C22   O35   A    
C63   C66   A    
C2    C100  S    
C35   O6    A    
C9    C101  S    
C21   O34   A    
C62   C95   S    
C72   C99   S    
Cr5   O14   S    
C25   C81   A    
C3    O21   S    
Cr3   O7    S    
C52   C81   A    
Cr1   O8    S    
C78   H16   S    
Cr6   O19   S    
Cr2   O12   S    
C35   C82   S    
C45   N2    S    
C65   H19   S    
C23   O33   A    
C68   C78   A    
C98   H12   S    
C71   C98   S    
C19   O14   A    
C51   H3    S    
C103  H50   S    
C105  H59   S    
C23   O19   A    
C53   H27   S    
C64   C67   A    
C10   C102  S    
C70   C93   S    
Cr3   O23   S    
C36   C80   S    
C17   C49   S    
C67   C74   A    
C97   H1    S    
C31   C74   A    
C39   C43   A    
C6    O28   S    
C13   C96   S    
C29   O12   A    
C104  H55   S    
C4    C61   S    
C51   H46   S    
C105  N3    S    
C31   C37   A    
C99   H23   S    
C50   C80   A    
C53   C82   A    
C68   C75   A    
C72   C96   S    
C46   N3    S    
C104  H53   S    
C61   C65   A    
C84   H42   S    
C27   C41   A    
C33   C76   A    
C40   H2    S    
C37   H8    S    
C12   C15   T    
C18   O1    A    
C35   O2    A    
H57   N3    S    
Cr1   O1    S    
C30   C59   A    
Cr2   O6    S    
Cr5   O10   S    
C70   H21   S    
C52   H26   S    
C22   C90   S    
C56   C63   A    
Cr3   O8    S    
C70   H34   S    
C84   C94   S    
H48   N1    S    
C34   O5    A    
C1    O23   A    
C85   H29   S    
C20   O15   A    
C20   C48   S    
C86   C96   S    
C16   C18   S    
C34   C81   S    
C70   C97   S    
C24   H5    S    
H64   O28   S    
C73   H41   S    
C27   C57   A    
C72   H56   S    
C46   C49   A    
C30   C43   A    
Cr4   O16   S    
C31   C44   A    
C95   H40   S    
C47   C77   A    
C21   O17   A    
C1    O36   A    
C97   C100  S    
C85   C88   S    
C4    O24   S    
C87   C100  S    
C53   C56   A    
H52   N2    S    
C103  H51   S    
C6    C83   S    
C105  H60   S    
C22   O18   A    
C73   H38   S    
Cr5   O16   S    
C103  N1    S    
C88   C101  S    
C21   C92   S    
C26   H7    S    
Cr1   O2    S    
C7    O30   S    
C86   C89   S    
C25   H6    S    
C83   C87   S    
C40   C100  S    
C44   C47   A    
C26   C30   A    
C6    O27   D    
C28   C58   A    
C64   H18   S    
C51   C101  S    
C89   H33   S    
C5    O26   S    
C20   O9    A    
C39   H10   S    
C98   C101  S    
C60   C64   A    
C95   H43   S    
C13   C16   T    
Cr1   O5    S    
C62   H4    S    
C50   C54   A    
C50   H25   S    
C5    O25   D    
Cr3   O38   S    
C12   C94   S    
C11   C93   S    
C97   H67   S    
C7    C85   S    
C72   H24   S    
C71   H45   S    
C44   N1    S    
C28   C42   A    
C88   H36   S    
C8    C86   S    
C87   H31   S    
C37   C41   A    
C34   O4    A    
C69   C79   A    
Cr6   O11   S    
C10   C92   T    
Cr2   O37   S    
H62   O24   S    
C49   C79   A    
C99   H69   S    
C99   C102  S    
C9    C91   T    
C19   O11   A    
C26   C82   A    
C55   C58   A    
Cr2   O8    S    
H65   O30   S    
Cr4   O17   S    
C14   C29   S    
C65   C68   A    
C98   H68   S    
C59   C76   A    
C54   C57   A    
C77   H15   S    
C86   H30   S    
C84   H39   S    
C62   C102  S    
C57   C74   A    
C51   C84   S    
