data_mof_unit_28427.cif
_audit_creation_date              2012-12-11T18:13:24-0500
_audit_creation_method            fapswitch 2.2
_symmetry_space_group_name_H-M    P1
_symmetry_Int_Tables_number       1
_space_group_crystal_system       triclinic
_cell_length_a                    8.169693
_cell_length_b                    12.659866
_cell_length_c                    18.699806
_cell_angle_alpha                 99.461604
_cell_angle_beta                  91.134452
_cell_angle_gamma                 98.609193
_cell_volume                      1884.30566115

loop_
_atom_site_label
_atom_site_type_symbol
_atom_type_description
_atom_site_fract_x
_atom_site_fract_y
_atom_site_fract_z
_atom_type_partial_charge
Ba1   Ba    Ba6+2 0.852780 0.548340 0.465070 1.636737
Ba2   Ba    Ba6+2 0.337060 0.451750 0.534940 1.636042
C1    C     C_3   0.580967 0.900252 0.252460 -0.415814
C2    C     C_3   0.632839 0.820445 0.297723 0.342572
C3    C     C_3   0.460375 0.274359 0.314022 0.310999
C4    C     C_3   0.435515 0.236774 0.232512 -0.401115
C5    C     C_3   0.059461 0.236610 0.736623 0.359038
C6    C     C_3   0.094019 0.218890 0.814091 -0.242635
C7    C     C_3   0.555261 0.177833 0.702343 0.336330
C8    C     C_3   0.605448 0.099698 0.749278 -0.400324
C9    C     C_R   0.993676 0.446836 0.047806 0.006979
C10   C     C_R   0.892362 0.393165 0.095105 0.033287
C11   C     C_R   0.729488 0.345831 0.071929 -0.082309
C12   C     C_3   0.129767 0.761488 0.264988 0.365499
C13   C     C_R   0.667919 0.351026 0.002506 -0.087073
C14   C     C_R   0.768845 0.402180 0.954378 0.032833
C15   C     C_R   0.932277 0.450552 0.976940 0.014478
C16   C     C_R   0.709130 0.403927 0.883855 -0.111608
C17   C     C_R   0.811750 0.450535 0.833781 -0.043899
C18   C     C_R   0.974905 0.502223 0.856772 -0.004189
C19   C     C_R   0.034098 0.502256 0.928738 -0.006868
C20   C     C_R   0.757642 0.444904 0.760854 -0.007929
C21   C     C_R   0.866626 0.486102 0.711714 -0.297486
C22   C     C_R   0.024030 0.543367 0.733883 0.046395
C23   C     C_3   0.109971 0.785986 0.188614 -0.364381
C24   C     C_R   0.079177 0.553303 0.808012 -0.043937
C25   C     C_R   0.156388 0.495758 0.071031 -0.007648
C26   C     C_R   0.215901 0.495325 0.142887 -0.005128
C27   C     C_R   0.111260 0.444893 0.191778 -0.043821
C28   C     C_R   0.953606 0.388932 0.165181 -0.040785
C29   C     C_R   0.236211 0.610065 0.834829 -0.038088
C30   C     C_R   0.297621 0.605605 0.904851 0.033258
C31   C     C_R   0.196607 0.551484 0.952037 0.006413
C32   C     C_R   0.258180 0.547482 0.022831 0.014027
C33   C     C_R   0.460453 0.653015 0.928046 -0.081359
C34   C     C_3   0.234468 0.787632 0.619583 0.281100
C35   C     C_R   0.522443 0.647113 0.997274 -0.088349
C36   C     C_R   0.421790 0.595523 0.045301 0.031498
C37   C     C_R   0.379607 0.546088 0.165686 -0.044731
C38   C     C_R   0.482025 0.592902 0.115611 -0.109905
C39   C     C_R   0.434510 0.550522 0.238412 -0.001378
C40   C     C_R   0.326400 0.508231 0.287419 -0.298610
C41   C     C_R   0.167031 0.454176 0.265745 0.042542
C42   C     C_R   0.764449 0.182936 0.530056 -0.275708
C43   C     C_R   0.428527 0.807401 0.469709 -0.286541
C44   C     C_R   0.402203 0.984594 0.444732 -0.105980
C45   C     C_3   0.247118 0.910051 0.635379 -0.341204
C46   C     C_R   0.337677 0.875993 0.440502 -0.012969
C47   C     C_R   0.577839 0.848284 0.509316 0.067819
C48   C     C_R   0.642367 0.960514 0.517398 -0.058947
C49   C     C_R   0.553931 0.028636 0.483141 -0.062365
C50   C     C_R   0.617668 0.139700 0.489568 0.044899
C51   C     C_R   0.856137 0.116720 0.561108 -0.016407
C52   C     C_R   0.793225 0.006755 0.557103 -0.095463
C53   C     C_3   0.960827 0.212644 0.381385 0.278782
C54   C     C_3   0.944985 0.090039 0.365135 -0.351659
C55   C     C_3   0.727909 0.706015 0.682539 0.308432
C56   C     C_3   0.753228 0.743919 0.764047 -0.392736
H1    H     H_    0.723991 0.864495 0.341342 0.077238
H2    H     H_    0.335608 0.943224 0.682010 0.113874
H3    H     H_    0.291338 0.945429 0.587672 0.080267
H4    H     H_    0.123894 0.932800 0.648764 0.143138
H5    H     H_    0.841593 0.236160 0.398564 0.002636
H6    H     H_    0.056497 0.242964 0.425742 0.083434
H7    H     H_    0.849399 0.057570 0.321080 0.114524
H8    H     H_    0.908477 0.055022 0.413926 0.087406
H9    H     H_    0.065399 0.066083 0.347936 0.142883
H10   H     H_    0.842845 0.679707 0.660993 0.011274
H11   H     H_    0.624581 0.637028 0.672326 0.069162
H12   H     H_    0.526882 0.964606 0.287564 0.104685
H13   H     H_    0.866247 0.805666 0.775904 0.152610
H14   H     H_    0.767820 0.674916 0.791920 0.051885
H15   H     H_    0.644407 0.779860 0.785513 0.125051
H16   H     H_    0.521165 0.785863 0.323879 -0.050563
H17   H     H_    0.487120 0.857203 0.209700 0.114237
H18   H     H_    0.342707 0.297315 0.335398 0.018088
H19   H     H_    0.559625 0.346019 0.324147 0.059477
H20   H     H_    0.331789 0.167986 0.220662 0.129443
H21   H     H_    0.405965 0.304036 0.205735 0.056615
H22   H     H_    0.550412 0.210130 0.210170 0.118571
H23   H     H_    0.689598 0.937898 0.225805 0.131619
H24   H     H_    0.150005 0.720944 0.148689 0.071165
H25   H     H_    0.126430 0.317744 0.731095 0.077122
H26   H     H_    0.924739 0.235984 0.728177 -0.094960
H27   H     H_    0.042419 0.279948 0.853008 0.029048
H28   H     H_    0.229420 0.228871 0.826071 0.123625
H29   H     H_    0.667687 0.212096 0.676483 -0.052710
H30   H     H_    0.465943 0.132560 0.658414 0.080883
H31   H     H_    0.694997 0.144655 0.793149 0.119660
H32   H     H_    0.663628 0.035714 0.715818 0.100293
H33   H     H_    0.047878 0.684396 0.268416 0.094544
H34   H     H_    0.495442 0.061551 0.774807 0.131198
H35   H     H_    0.648994 0.305412 0.107727 0.061778
H36   H     H_    0.541539 0.313990 0.986188 0.070960
H37   H     H_    0.824991 0.478078 0.655535 0.070375
H38   H     H_    0.582964 0.366557 0.868378 0.104951
H39   H     H_    0.874539 0.343875 0.198961 0.096551
H40   H     H_    0.315020 0.655475 0.801151 0.096566
H41   H     H_    0.540653 0.693923 0.892376 0.065262
H42   H     H_    0.648906 0.684009 0.013541 0.073287
H43   H     H_    0.608652 0.629433 0.130848 0.108508
H44   H     H_    0.260375 0.751459 0.274617 -0.075325
H45   H     H_    0.369071 0.514527 0.343322 0.072850
H46   H     H_    0.328977 0.033693 0.419530 0.102513
H47   H     H_    0.865629 0.958907 0.583764 0.103604
H48   H     H_    0.813121 0.268060 0.533529 0.064168
H49   H     H_    0.377533 0.722524 0.465388 0.071435
H50   H     H_    0.978324 0.790783 0.175776 0.150677
H51   H     H_    0.187001 0.864431 0.184001 0.111854
H52   H     H_    0.356816 0.765882 0.605527 0.003306
H53   H     H_    0.143674 0.756465 0.573272 0.075675
O1    O     O_2   0.873090 0.425890 0.325140 -0.466261
O2    O     O_3   0.691164 0.792537 0.650580 -0.639453
O3    O     O_3   0.085834 0.847019 0.315061 -0.598963
O4    O     O_2   0.316610 0.574140 0.674900 -0.470063
O5    O     O_3   0.067290 0.565720 0.585630 -0.496842
O6    O     O_3   0.530210 0.372990 0.631200 -0.464519
O7    O     O_3   0.185710 0.746992 0.682197 -0.636271
O8    O     O_3   0.611340 0.366290 0.463630 -0.477341
O9    O     O_3   0.108550 0.314140 0.595200 -0.481747
O10   O     O_2   0.196079 0.121680 0.552034 -0.482154
O11   O     O_3   0.114614 0.155254 0.686547 -0.597238
O12   O     O_3   0.122420 0.434370 0.414380 -0.495193
O13   O     O_3   0.578370 0.633800 0.536380 -0.489409
O14   O     O_2   0.341510 0.231850 0.465510 -0.468240
O15   O     O_3   0.505191 0.189449 0.345922 -0.650555
O16   O     O_2   0.416259 0.453417 0.756647 -0.495666
O17   O     O_3   0.477707 0.255766 0.745838 -0.595872
O18   O     O_3   0.659500 0.627100 0.368810 -0.472344
O19   O     O_2   0.776740 0.546994 0.243678 -0.496432
O20   O     O_3   0.002621 0.253089 0.317990 -0.639859
O21   O     O_3   0.708067 0.742771 0.252743 -0.598070
O22   O     O_2   0.848200 0.768190 0.534530 -0.472343
O23   O     O_3   0.081160 0.685950 0.404810 -0.487032
O24   O     O_2   0.999385 0.879305 0.449516 -0.485084
P1    P     P_3+3 0.041040 0.394770 0.336330 0.971782
P2    P     P_3+3 0.672880 0.754030 0.556100 0.971371
P3    P     P_3+3 0.126632 0.823852 0.402965 0.949417
P4    P     P_3+3 0.148670 0.605320 0.663680 0.973012
P5    P     P_3+3 0.067104 0.175435 0.598526 0.954035
P6    P     P_3+3 0.644226 0.614363 0.274827 0.950302
P7    P     P_3+3 0.522621 0.230142 0.440159 0.933912
P8    P     P_3+3 0.546135 0.384194 0.724935 0.952359
C57   C     C_1   0.018786 0.110355 0.825056 0.299695
N1    N     N_1   0.959614 0.024782 0.833784 -0.305967

loop_
_geom_bond_atom_site_label_1
_geom_bond_atom_site_label_2
_ccdc_geom_bond_type
O24   P3    D    
C5    H25   S    
C53   C54   S    
O22   P2    D    
C47   P2    S    
C51   P5    S    
C16   H38   S    
C39   C40   A    
C17   C18   A    
C40   H45   S    
C45   H4    S    
C4    H21   S    
C5    C6    S    
C37   C39   A    
C51   C52   A    
C28   H39   S    
C48   C52   A    
Ba2   P4    S    
O10   P5    D    
C26   C27   A    
O6    P8    S    
C22   C24   A    
C6    H27   S    
Ba1   O18   S    
C7    H30   S    
C3    C4    S    
C33   H41   S    
C56   H13   S    
C12   H44   S    
O18   P6    S    
C13   C14   A    
C34   C45   S    
Ba1   Ba2   S    
Ba1   O8    S    
C29   H40   S    
O19   P6    D    
C45   H2    S    
Ba2   O5    S    
C42   C51   A    
C8    H31   S    
C14   C15   A    
C53   H5    S    
C20   P8    S    
C1    H23   S    
C21   C22   A    
C42   H48   S    
O9    P5    S    
Ba1   O5    S    
C9    C25   A    
Ba1   P1    S    
C1    H17   S    
C7    C8    S    
C2    H16   S    
C23   H51   S    
O5    P4    S    
C10   C28   A    
C42   C50   A    
C5    H26   S    
C38   H43   S    
C8    H34   S    
C24   C29   A    
C25   C32   A    
C27   C41   A    
O1    P1    D    
Ba1   O22   S    
Ba2   O6    S    
C48   C49   A    
C22   P4    S    
C44   C46   A    
C7    O17   S    
C49   C50   A    
C30   C33   A    
O13   P2    S    
C17   C20   A    
C2    O21   S    
O20   P1    S    
C37   C38   A    
Ba2   O9    S    
C16   C17   A    
C55   O2    S    
C26   C37   A    
Ba2   O12   S    
C44   H46   S    
C44   C49   A    
O15   P7    S    
C50   P7    S    
C1    C2    S    
C11   H35   S    
C3    O15   S    
Ba1   O12   S    
C39   P6    S    
C35   C36   A    
Ba2   O4    S    
C56   H15   S    
C4    H22   S    
C29   C30   A    
C43   C47   A    
O14   P7    D    
Ba2   O8    S    
C53   H6    S    
C1    H12   S    
C34   H53   S    
C31   C32   A    
C6    C57   S    
O16   P8    D    
C10   C11   A    
O4    P4    D    
C53   O20   S    
C11   C13   A    
C34   H52   S    
C23   H24   S    
O2    P2    S    
C40   C41   A    
C5    O11   S    
C3    H19   S    
O7    P4    S    
Ba1   O23   S    
Ba1   P2    S    
C43   C46   A    
O21   P6    S    
C9    C15   A    
C52   H47   S    
C33   C35   A    
C32   C36   A    
C57   N1    T    
C45   H3    S    
C9    C10   A    
Ba2   O13   S    
O23   P3    S    
C54   H9    S    
C46   P3    S    
O12   P1    S    
C30   C31   A    
C3    H18   S    
Ba1   O13   S    
O11   P5    S    
Ba1   O1    S    
C12   O3    S    
C7    H29   S    
C36   C38   A    
C56   H14   S    
C55   C56   S    
C18   C24   A    
C54   H8    S    
C2    H1    S    
C21   H37   S    
C6    H28   S    
O3    P3    S    
C12   C23   S    
C41   P1    S    
O17   P8    S    
C15   C19   A    
C12   H33   S    
C4    H20   S    
C27   C28   A    
Ba2   O14   S    
C43   H49   S    
C13   H36   S    
C19   C31   A    
C18   C19   A    
C8    H32   S    
C14   C16   A    
C47   C48   A    
C25   C26   A    
O8    P7    S    
C20   C21   A    
C34   O7    S    
C55   H10   S    
C55   H11   S    
C35   H42   S    
C54   H7    S    
C23   H50   S    
