data_mof_unit_6661.cif
_audit_creation_date              2012-12-10T20:52:58-0500
_audit_creation_method            fapswitch 2.2
_symmetry_space_group_name_H-M    P1
_symmetry_Int_Tables_number       1
_space_group_crystal_system       triclinic
_cell_length_a                    18.343596
_cell_length_b                    18.343428
_cell_length_c                    18.343339
_cell_angle_alpha                 59.919504
_cell_angle_beta                  59.919213
_cell_angle_gamma                 59.921504
_cell_volume                      4356.52552476

loop_
_atom_site_label
_atom_site_type_symbol
_atom_type_description
_atom_site_fract_x
_atom_site_fract_y
_atom_site_fract_z
_atom_type_partial_charge
C1    C     C_R   0.389897 0.109552 0.110753 0.932166
C2    C     C_R   0.372632 0.796024 0.775179 -0.090673
C3    C     C_R   0.038422 0.534918 0.905881 -0.017293
C4    C     C_R   0.464570 0.094068 0.961618 -0.017302
C5    C     C_R   0.535427 0.905931 0.038383 -0.017299
C6    C     C_R   0.947269 0.944680 0.553881 -0.133384
C7    C     C_R   0.052731 0.055320 0.446118 -0.133384
C8    C     C_R   0.944682 0.553892 0.947268 -0.133457
C9    C     C_R   0.055318 0.446108 0.052732 -0.133457
C10   C     C_R   0.553938 0.947267 0.944682 -0.133404
C11   C     C_R   0.446061 0.052732 0.055318 -0.133404
C12   C     C_R   0.203964 0.224748 0.627445 -0.090718
C13   C     C_R   0.796036 0.775248 0.372558 -0.090718
C14   C     C_R   0.180069 0.585547 0.292760 0.435412
C15   C     C_R   0.819931 0.414455 0.707241 0.435411
C16   C     C_R   0.585492 0.292813 0.180132 0.435386
C17   C     C_R   0.414495 0.707193 0.819880 0.435386
C18   C     C_R   0.292798 0.180060 0.585575 0.435352
C19   C     C_R   0.707201 0.819938 0.414428 0.435356
C20   C     C_R   0.094422 0.583342 0.315836 -0.115373
C21   C     C_R   0.610102 0.890448 0.889247 0.932164
C22   C     C_R   0.905579 0.416658 0.684164 -0.115368
C23   C     C_R   0.583319 0.315861 0.094477 -0.115374
C24   C     C_R   0.416679 0.684141 0.905531 -0.115376
C25   C     C_R   0.315851 0.094431 0.583343 -0.115372
C26   C     C_R   0.684149 0.905567 0.416658 -0.115371
C27   C     C_R   0.056288 0.623309 0.247692 0.466907
C28   C     C_R   0.943715 0.376689 0.752307 0.466902
C29   C     C_R   0.623319 0.247702 0.056354 0.466932
C30   C     C_R   0.376688 0.752296 0.943655 0.466937
C31   C     C_R   0.247695 0.056314 0.623296 0.466938
C32   C     C_R   0.109542 0.110764 0.389906 0.932335
C33   C     C_R   0.752305 0.943683 0.376704 0.466930
C34   C     C_R   0.102984 0.665055 0.159828 -0.124281
C35   C     C_R   0.897020 0.334942 0.840171 -0.124288
C36   C     C_R   0.665067 0.159853 0.103065 -0.124322
C37   C     C_R   0.334939 0.840147 0.896948 -0.124309
C38   C     C_R   0.159841 0.103010 0.665051 -0.124279
C39   C     C_R   0.840159 0.896987 0.334949 -0.124274
C40   C     C_R   0.186467 0.667148 0.138045 -0.308998
C41   C     C_R   0.813536 0.332851 0.861955 -0.308991
C42   C     C_R   0.667131 0.138099 0.186554 -0.309004
C43   C     C_R   0.890458 0.889236 0.610094 0.932335
C44   C     C_R   0.332865 0.861906 0.813464 -0.309019
C45   C     C_R   0.138080 0.186474 0.667172 -0.309038
C46   C     C_R   0.861919 0.813523 0.332830 -0.309038
C47   C     C_R   0.990747 0.590401 0.465258 -0.243987
C48   C     C_R   0.009254 0.409599 0.534741 -0.243985
C49   C     C_R   0.590390 0.465272 0.990774 -0.243975
C50   C     C_R   0.409609 0.534729 0.009228 -0.243976
C51   C     C_R   0.465268 0.990757 0.590398 -0.244108
C52   C     C_R   0.534732 0.009242 0.409603 -0.244112
C53   C     C_R   0.944898 0.552509 0.555055 -0.054272
C54   C     C_R   0.110759 0.389904 0.109546 0.932309
C55   C     C_R   0.055103 0.447491 0.444945 -0.054269
C56   C     C_R   0.552509 0.555056 0.944897 -0.054270
C57   C     C_R   0.447490 0.444945 0.055105 -0.054270
C58   C     C_R   0.555057 0.944901 0.552507 -0.054283
C59   C     C_R   0.444943 0.055098 0.447494 -0.054286
C60   C     C_R   0.954190 0.460935 0.590280 -0.033801
C61   C     C_R   0.045811 0.539065 0.409720 -0.033801
C62   C     C_R   0.460946 0.590269 0.954162 -0.033818
C63   C     C_R   0.539053 0.409732 0.045840 -0.033815
C64   C     C_R   0.590273 0.954183 0.460935 -0.033771
C65   C     C_R   0.889240 0.610096 0.890454 0.932306
C66   C     C_R   0.409726 0.045816 0.539065 -0.033771
C67   C     C_R   0.110747 0.390402 0.389774 0.822385
C68   C     C_R   0.889253 0.609598 0.610226 0.822385
C69   C     C_R   0.390401 0.389773 0.110749 0.822389
C70   C     C_R   0.609598 0.610227 0.889252 0.822389
C71   C     C_R   0.389773 0.110745 0.390403 0.822333
C72   C     C_R   0.610227 0.889254 0.609597 0.822333
C73   C     C_R   0.188242 0.923349 0.430729 -0.143038
C74   C     C_R   0.811756 0.076652 0.569268 -0.143035
C75   C     C_R   0.923371 0.430391 0.188213 -0.143171
C76   C     C_R   0.224759 0.627405 0.203916 -0.090653
C77   C     C_R   0.076628 0.569624 0.811787 -0.143181
C78   C     C_R   0.429308 0.188110 0.923453 -0.143731
C79   C     C_R   0.570684 0.811889 0.076548 -0.143726
C80   C     C_R   0.229700 0.831811 0.449011 -0.161011
C81   C     C_R   0.770298 0.168190 0.550987 -0.161009
C82   C     C_R   0.831847 0.448523 0.229661 -0.161097
C83   C     C_R   0.168151 0.551499 0.770340 -0.161093
C84   C     C_R   0.447023 0.229510 0.831966 -0.161194
C85   C     C_R   0.552956 0.770488 0.168036 -0.161193
C86   C     C_R   0.179196 0.775636 0.502223 -0.217736
C87   C     C_R   0.775242 0.372597 0.796085 -0.090647
C88   C     C_R   0.820803 0.224364 0.497777 -0.217735
C89   C     C_R   0.775674 0.501769 0.179160 -0.217980
C90   C     C_R   0.224326 0.498246 0.820841 -0.217984
C91   C     C_R   0.500476 0.179022 0.775777 -0.217820
C92   C     C_R   0.499500 0.820977 0.224224 -0.217817
C93   C     C_R   0.085571 0.810151 0.538342 0.455840
C94   C     C_R   0.914428 0.189849 0.461657 0.455841
C95   C     C_R   0.810176 0.538067 0.085549 0.455676
C96   C     C_R   0.189824 0.461935 0.914452 0.455673
C97   C     C_R   0.537359 0.085466 0.810232 0.455802
C98   C     C_R   0.627354 0.203983 0.224838 -0.090667
C99   C     C_R   0.462630 0.914533 0.189768 0.455800
C100  C     C_R   0.041548 0.904852 0.519744 0.038635
C101  C     C_R   0.958451 0.095148 0.480256 0.038634
C102  C     C_R   0.904865 0.519595 0.041534 0.038737
C103  C     C_R   0.095134 0.480407 0.958466 0.038739
C104  C     C_R   0.519187 0.041488 0.904900 0.038753
C105  C     C_R   0.480808 0.958512 0.095101 0.038754
C106  C     C_R   0.094134 0.961566 0.465255 -0.017359
C107  C     C_R   0.905866 0.038435 0.534744 -0.017360
C108  C     C_R   0.961577 0.465087 0.094119 -0.017294
H1    H     H_    0.231296 0.963707 0.389124 0.141763
H2    H     H_    0.300604 0.930312 0.778180 0.188669
H3    H     H_    0.069671 0.221749 0.699439 0.188673
H4    H     H_    0.930328 0.778247 0.300564 0.188671
H5    H     H_    0.289993 0.628936 0.185948 0.188652
H6    H     H_    0.710007 0.371068 0.814054 0.188650
H7    H     H_    0.628864 0.186035 0.290077 0.188576
H8    H     H_    0.371113 0.813976 0.709943 0.188590
H9    H     H_    0.186013 0.289967 0.629000 0.188664
H10   H     H_    0.813986 0.710029 0.371005 0.188658
H11   H     H_    0.786534 0.295615 0.484389 0.138159
H12   H     H_    0.768701 0.036294 0.610872 0.141761
H13   H     H_    0.213465 0.704386 0.515610 0.138160
H14   H     H_    0.295566 0.484969 0.786580 0.138270
H15   H     H_    0.704433 0.515049 0.213421 0.138265
H16   H     H_    0.486483 0.786747 0.295443 0.138577
H17   H     H_    0.513482 0.213252 0.704558 0.138584
H18   H     H_    0.984994 0.660176 0.438176 0.181748
H19   H     H_    0.015006 0.339824 0.561824 0.181747
H20   H     H_    0.660157 0.438200 0.985041 0.181745
H21   H     H_    0.339843 0.561800 0.014961 0.181746
H22   H     H_    0.438193 0.985014 0.660170 0.181749
H23   H     H_    0.963729 0.388768 0.231262 0.141894
H24   H     H_    0.561806 0.014985 0.339831 0.181750
H25   H     H_    0.301719 0.804193 0.421781 0.153094
H26   H     H_    0.698278 0.195809 0.578216 0.153096
H27   H     H_    0.804237 0.421160 0.301669 0.152811
H28   H     H_    0.195761 0.578872 0.698333 0.152814
H29   H     H_    0.419211 0.301477 0.804391 0.153108
H30   H     H_    0.580759 0.698521 0.195610 0.153105
H31   H     H_    0.078463 0.689611 0.596021 0.314881
H32   H     H_    0.921535 0.310389 0.403974 0.314878
H33   H     H_    0.689637 0.595747 0.078440 0.314960
H34   H     H_    0.036269 0.611254 0.768739 0.141904
H35   H     H_    0.310364 0.404245 0.921562 0.314961
H36   H     H_    0.595263 0.078355 0.689672 0.314918
H37   H     H_    0.404725 0.921643 0.310329 0.314916
H38   H     H_    0.186500 0.518858 0.413901 0.344854
H39   H     H_    0.813499 0.481144 0.586101 0.344855
H40   H     H_    0.518768 0.413957 0.186543 0.344868
H41   H     H_    0.481213 0.586052 0.813463 0.344870
H42   H     H_    0.413941 0.186482 0.518881 0.344827
H43   H     H_    0.586058 0.813516 0.481122 0.344828
H44   H     H_    0.950394 0.586623 0.325745 0.335230
H45   H     H_    0.387542 0.231157 0.963815 0.142442
H46   H     H_    0.049606 0.413379 0.674254 0.335233
H47   H     H_    0.586649 0.325714 0.950449 0.335260
H48   H     H_    0.413361 0.674277 0.049557 0.335259
H49   H     H_    0.325726 0.950429 0.586596 0.335203
H50   H     H_    0.674274 0.049571 0.413398 0.335201
H51   H     H_    0.074455 0.695593 0.107705 0.175111
H52   H     H_    0.925550 0.304403 0.892293 0.175112
H53   H     H_    0.695631 0.107719 0.074544 0.175105
H54   H     H_    0.304384 0.892278 0.925470 0.175105
H55   H     H_    0.107708 0.074494 0.695578 0.175113
H56   H     H_    0.612453 0.768841 0.036186 0.142439
H57   H     H_    0.892292 0.925503 0.304421 0.175113
H58   H     H_    0.221743 0.699405 0.069628 0.188664
H59   H     H_    0.778260 0.300594 0.930372 0.188673
H60   H     H_    0.699391 0.069693 0.221841 0.188678
O1    O     O_3   0.250000 0.250000 0.250000 -0.505714
O2    O     O_R   0.865800 0.694910 0.573470 -0.636541
O3    O     O_R   0.305090 0.426530 0.134200 -0.636518
O4    O     O_R   0.694910 0.573470 0.865800 -0.636517
O5    O     O_R   0.426530 0.134200 0.305090 -0.636477
O6    O     O_R   0.573470 0.865800 0.694910 -0.636477
O7    O     O_R   0.134190 0.426530 0.134200 -0.613252
O8    O     O_R   0.865810 0.573470 0.865800 -0.613246
O9    O     O_R   0.426530 0.134200 0.134190 -0.613063
O10   O     O_R   0.573470 0.865800 0.865810 -0.613059
O11   O     O_R   0.134200 0.134190 0.426530 -0.613379
O12   O     O_3   0.750000 0.750000 0.750000 -0.505714
O13   O     O_R   0.865800 0.865810 0.573470 -0.613378
O14   O     O_R   0.426530 0.305080 0.134210 -0.641876
O15   O     O_R   0.573470 0.694920 0.865790 -0.641873
O16   O     O_R   0.305080 0.134210 0.426530 -0.641891
O17   O     O_R   0.694920 0.865790 0.573470 -0.641891
O18   O     O_R   0.134210 0.426530 0.305080 -0.641892
O19   O     O_R   0.865790 0.573470 0.694920 -0.641893
O20   O     O_3   0.037443 0.751851 0.591665 -0.809841
O21   O     O_3   0.962557 0.248150 0.408333 -0.809836
O22   O     O_3   0.751871 0.591460 0.037426 -0.809962
O23   O     O_R   0.305080 0.134200 0.134200 -0.629599
O24   O     O_3   0.248130 0.408534 0.962574 -0.809966
O25   O     O_3   0.591102 0.037373 0.751896 -0.809732
O26   O     O_3   0.408889 0.962627 0.248105 -0.809731
O27   O     O_3   0.223047 0.547744 0.353739 -0.759497
O28   O     O_3   0.776951 0.452261 0.646264 -0.759502
O29   O     O_3   0.547657 0.353807 0.223100 -0.759526
O30   O     O_3   0.452320 0.646202 0.776912 -0.759529
O31   O     O_3   0.353790 0.223019 0.547790 -0.759642
O32   O     O_3   0.646209 0.776978 0.452214 -0.759640
O33   O     O_3   0.974972 0.622165 0.262957 -0.776613
O34   O     O_R   0.694920 0.865800 0.865800 -0.629603
O35   O     O_3   0.025032 0.377831 0.737041 -0.776617
O36   O     O_3   0.622209 0.262939 0.975031 -0.776558
O37   O     O_3   0.377808 0.737055 0.024975 -0.776559
O38   O     O_3   0.262939 0.975014 0.622133 -0.776568
O39   O     O_3   0.737061 0.024986 0.377863 -0.776569
O40   O     O_R   0.134200 0.134200 0.305080 -0.629314
O41   O     O_R   0.865800 0.865800 0.694920 -0.629316
O42   O     O_R   0.134200 0.305080 0.134200 -0.629420
O43   O     O_R   0.865800 0.694920 0.865800 -0.629428
O44   O     O_R   0.134200 0.305090 0.426530 -0.636543
Zn1   Zn    Zn3+2 0.206620 0.206630 0.380140 1.019826
Zn2   Zn    Zn3+2 0.793380 0.793370 0.619860 1.019825
Zn3   Zn    Zn3+2 0.206630 0.380140 0.206620 1.019865
Zn4   Zn    Zn3+2 0.793370 0.619860 0.793380 1.019866
Zn5   Zn    Zn3+2 0.380140 0.206620 0.206630 1.019905
Zn6   Zn    Zn3+2 0.619860 0.793380 0.793370 1.019906
Zn7   Zn    Zn3+2 0.206620 0.206620 0.206620 1.038733
Zn8   Zn    Zn3+2 0.793380 0.793380 0.793380 1.038728

loop_
_geom_bond_atom_site_label_1
_geom_bond_atom_site_label_2
_ccdc_geom_bond_type
C25   C31   A    
C48   C55   A    
O1    Zn5   S    
C14   O27   S    
C89   C95   A    
C49   C63   A    
C46   H4    S    
C36   C42   A    
C1    C11   S    
C79   H56   S    
C58   C72   S    
H46   O35   S    
C98   H7    S    
C81   H26   S    
O12   Zn6   S    
C5    C105  A    
C9    C108  A    
O43   Zn8   S    
O16   Zn1   S    
C99   O26   S    
C59   C71   S    
C19   O32   S    
C33   C39   A    
C82   C89   A    
C34   C40   A    
H50   O39   S    
C23   C29   A    
C86   C93   A    
C83   C90   A    
C42   C98   A    
C59   C66   A    
C22   C60   S    
C13   C46   A    
H40   O29   S    
C77   C83   A    
O34   Zn8   S    
C55   C61   A    
C20   C61   S    
O17   Zn2   S    
C69   O3    A    
C97   O25   S    
C82   H27   S    
C19   C26   A    
C53   C68   S    
C70   O4    A    
C35   H52   S    
C38   C45   A    
C80   C86   A    
C95   O22   S    
C74   C107  A    
C77   H34   S    
C2    H8    S    
C85   C92   A    
C15   C22   A    
C33   O39   S    
C28   C35   A    
C2    C44   A    
C87   H6    S    
C11   C105  A    
H35   O24   S    
O8    Zn4   S    
C32   O11   A    
C48   C60   A    
O13   Zn2   S    
O6    Zn6   S    
C84   C91   A    
C72   O6    A    
C5    C79   A    
O5    Zn5   S    
C18   O31   S    
C40   H58   S    
C95   C102  A    
C9    C103  A    
C69   O14   A    
C47   C53   A    
O3    Zn3   S    
C34   H51   S    
O40   Zn7   S    
C23   C63   S    
C8    C65   S    
C27   C34   A    
C29   O36   S    
C22   C28   A    
C71   O5    A    
C2    C17   A    
H32   O21   S    
C90   H14   S    
C67   O18   A    
C18   C25   A    
C1    O9    A    
C41   C87   A    
C21   O34   A    
C13   H10   S    
C51   H22   S    
C42   H60   S    
C57   C63   A    
C10   C21   S    
C58   C64   A    
O1    Zn3   S    
C88   C94   A    
C17   C24   A    
C25   C66   S    
C52   H24   S    
C14   C20   A    
O12   Zn4   S    
C68   O19   A    
C31   O38   S    
C3    C8    A    
C52   C64   A    
C68   O2    A    
C13   C19   A    
H36   O25   S    
C89   H15   S    
C30   O37   S    
C43   O13   A    
O42   Zn7   S    
C40   C76   A    
C30   C37   A    
C88   H11   S    
C51   C66   A    
O7    Zn3   S    
C54   O7    A    
C39   H57   S    
C4    C78   A    
C50   H21   S    
C52   C59   A    
C26   C33   A    
C29   C36   A    
H43   O32   S    
C6    C107  A    
O18   Zn3   S    
O11   Zn1   S    
C86   H13   S    
C53   C60   A    
C76   H5    S    
H37   O26   S    
C7    C106  A    
H39   O28   S    
C75   C82   A    
C51   C58   A    
C67   O44   A    
C91   C97   A    
C4    C11   A    
C102  C108  A    
H48   O37   S    
C93   C100  A    
C83   H28   S    
C35   C41   A    
C39   C46   A    
C15   O28   S    
C1    O23   A    
C94   C101  A    
C38   H55   S    
O1    Zn7   S    
C84   H29   S    
O15   Zn6   S    
C56   C70   S    
C6    C43   S    
C65   O8    A    
C36   H53   S    
C50   C62   A    
C56   C62   A    
H44   O33   S    
O12   Zn8   S    
C32   O40   A    
C74   C81   A    
O23   Zn7   S    
H31   O20   S    
C3    C77   A    
H42   O31   S    
C79   C85   A    
O1    Zn1   S    
C47   H18   S    
C15   C87   A    
C75   C108  A    
C3    C103  A    
C49   H20   S    
C17   O30   S    
O19   Zn4   S    
C21   O10   A    
C24   C62   S    
C7    C32   S    
C91   H17   S    
C14   C76   A    
C27   O33   S    
C28   O35   S    
C71   O16   A    
O10   Zn6   S    
H33   O22   S    
H49   O38   S    
O9    Zn5   S    
C12   C45   A    
C47   C61   A    
C55   C67   S    
O12   Zn2   S    
C45   H3    S    
C78   H45   S    
C90   C96   A    
O2    Zn2   S    
C20   C27   A    
C26   C64   S    
C16   C23   A    
C49   C56   A    
C74   H12   S    
H41   O30   S    
C100  C106  A    
C31   C38   A    
C97   C104  A    
O41   Zn8   S    
C37   C44   A    
C92   H16   S    
C94   O21   S    
C5    C10   A    
C48   H19   S    
C50   C57   A    
C16   C98   A    
C73   C106  A    
C41   H59   S    
C10   C104  A    
C73   C80   A    
C4    C104  A    
C73   H1    S    
C96   O24   S    
C43   O41   A    
C99   C105  A    
C24   C30   A    
C72   O17   A    
C65   O43   A    
C81   C88   A    
C80   H25   S    
C12   H9    S    
C93   O20   S    
C78   C84   A    
C70   O15   A    
C54   O42   A    
O44   Zn1   S    
C75   H23   S    
O14   Zn5   S    
C7    C101  A    
C96   C103  A    
C12   C18   A    
C101  C107  A    
C9    C54   S    
C57   C69   S    
H38   O27   S    
O4    Zn4   S    
C8    C102  A    
C85   H30   S    
C16   O29   S    
H47   O36   S    
C92   C99   A    
C6    C100  A    
C37   H54   S    
C44   H2    S    
