data_mof_unit_10925.cif
_audit_creation_date              2012-12-11T15:39:20-0500
_audit_creation_method            fapswitch 2.2
_symmetry_space_group_name_H-M    P1
_symmetry_Int_Tables_number       1
_space_group_crystal_system       triclinic
_cell_length_a                    6.940357
_cell_length_b                    15.081951
_cell_length_c                    16.609149
_cell_angle_alpha                 95.69012
_cell_angle_beta                  90.194913
_cell_angle_gamma                 90.102018
_cell_volume                      1729.96781672

loop_
_atom_site_label
_atom_site_type_symbol
_atom_type_description
_atom_site_fract_x
_atom_site_fract_y
_atom_site_fract_z
_atom_type_partial_charge
O1    O     O_R   0.633330 0.174290 0.828230 -0.533634
O2    O     O_R   0.366670 0.825710 0.171770 -0.533634
O3    O     O_R   0.301450 0.154140 0.662030 -0.543731
O4    O     O_R   0.698550 0.845860 0.337970 -0.543733
O5    O     O_R   0.133140 0.325730 0.671770 -0.535690
O6    O     O_R   0.866860 0.674270 0.328230 -0.535690
C1    C     C_R   0.470277 0.131005 0.633775 0.695974
C2    C     C_R   0.529723 0.868995 0.366224 0.695967
O7    O     O_R   0.303490 0.163670 0.827000 -0.535994
O8    O     O_R   0.696510 0.836330 0.173000 -0.535993
O9    O     O_R   0.135190 0.335320 0.837920 -0.538713
O10   O     O_R   0.864810 0.664680 0.162080 -0.538713
C3    C     C_R   0.472544 0.143312 0.854080 0.719563
C4    C     C_R   0.527456 0.856688 0.145920 0.719563
O11   O     O_R   0.631280 0.164690 0.662080 -0.535048
O12   O     O_R   0.368720 0.835310 0.337920 -0.535049
O13   O     O_3   0.467420 0.306310 0.753380 -0.367814
O14   O     O_3   0.532580 0.693690 0.246620 -0.367812
V1    V     V_3+5 0.191790 0.239560 0.749370 1.413175
V2    V     V_3+5 0.808210 0.760440 0.250630 1.413175
O15   O     O_R   0.805590 0.345870 0.837970 -0.543711
O16   O     O_R   0.194410 0.654130 0.162030 -0.543711
C5    C     C_R   0.974761 0.368520 0.866713 0.675847
C6    C     C_R   0.025238 0.631480 0.133287 0.675849
O17   O     O_R   0.803560 0.336340 0.672990 -0.531807
O18   O     O_R   0.196440 0.663660 0.327010 -0.531807
C7    C     C_R   0.972309 0.356655 0.645835 0.727954
C8    C     C_R   0.027692 0.643345 0.354165 0.727944
V3    V     V_3+5 0.692030 0.260450 0.750630 1.424103
V4    V     V_3+5 0.307970 0.739550 0.249370 1.424105
O19   O     O_3   0.966260 0.193700 0.746610 -0.367260
O20   O     O_3   0.033740 0.806300 0.253390 -0.367260
C9    C     C_1   0.982696 0.418752 0.583510 -0.193677
C10   C     C_1   0.017310 0.581251 0.416492 -0.193686
C11   C     C_1   0.993388 0.470001 0.531033 -0.026775
C12   C     C_1   0.006625 0.530003 0.468972 -0.026783
C13   C     C_3   0.922899 0.576489 0.980293 -0.140399
C14   C     C_3   0.077101 0.423511 0.019707 -0.140398
C15   C     C_3   0.095519 0.527621 0.936881 -0.141302
C16   C     C_3   0.904481 0.472379 0.063119 -0.141300
H1    H     H_    0.859420 0.640056 0.964527 0.102352
H2    H     H_    0.140580 0.359944 0.035473 0.102353
C17   C     C_3   0.986526 0.438724 0.937462 -0.006383
C18   C     C_3   0.013474 0.561276 0.062538 -0.006384
C19   C     C_3   0.813708 0.486773 0.980064 -0.116124
C20   C     C_3   0.186292 0.513227 0.019936 -0.116123
C21   C     C_3   0.617926 0.979428 0.559932 -0.180195
C22   C     C_3   0.382072 0.020573 0.440067 -0.180195
C23   C     C_3   0.452144 0.920650 0.521897 0.058395
C24   C     C_3   0.547857 0.079350 0.478103 0.058395
C25   C     C_3   0.517885 0.939168 0.436934 -0.049513
C26   C     C_3   0.482112 0.060832 0.563066 -0.049510
C27   C     C_3   0.684546 0.998042 0.473889 -0.174866
C28   C     C_3   0.315450 0.001956 0.526112 -0.174860
H3    H     H_    0.835849 0.995021 0.452384 0.109753
H4    H     H_    0.164147 0.004968 0.547617 0.109752
C29   C     C_1   0.483051 0.081309 0.916490 -0.200520
C30   C     C_1   0.516949 0.918690 0.083510 -0.200520
C31   C     C_1   0.493510 0.030066 0.969003 0.002900
C32   C     C_1   0.506490 0.969934 0.030997 0.002900
H5    H     H_    0.174043 0.549955 0.884359 0.102184
H6    H     H_    0.825956 0.450045 0.115641 0.102188
H7    H     H_    0.660044 0.475582 0.963200 0.106681
H8    H     H_    0.339956 0.524418 0.036800 0.106681
C33   C     C_R   0.409374 0.828911 0.545375 0.082848
C34   C     C_R   0.556540 0.764804 0.541541 -0.141350
C35   C     C_R   0.519669 0.679229 0.563276 -0.118628
C36   C     C_R   0.335814 0.657109 0.588972 -0.085459
C37   C     C_R   0.188142 0.720303 0.592303 -0.121246
C38   C     C_R   0.224408 0.805996 0.570536 -0.132065
H9    H     H_    0.699789 0.781195 0.521833 0.098661
H10   H     H_    0.633709 0.630143 0.560337 0.115991
H11   H     H_    0.307700 0.590925 0.606074 0.112970
H12   H     H_    0.045401 0.702813 0.611628 0.108998
H13   H     H_    0.108162 0.853889 0.573291 0.093849
C39   C     C_R   0.590706 0.171084 0.454632 0.082868
C40   C     C_R   0.443581 0.235210 0.458439 -0.141370
C41   C     C_R   0.480557 0.320785 0.436726 -0.118619
C42   C     C_R   0.664470 0.342885 0.411080 -0.085441
C43   C     C_R   0.812098 0.279672 0.407775 -0.121285
C44   C     C_R   0.775728 0.193979 0.429519 -0.132045
H14   H     H_    0.300288 0.218837 0.478109 0.098645
H15   H     H_    0.366551 0.369887 0.439647 0.115980
H16   H     H_    0.692667 0.409071 0.393997 0.112992
H17   H     H_    0.954888 0.297145 0.388494 0.108994
H18   H     H_    0.891948 0.146075 0.426789 0.093843
H19   H     H_    0.713504 0.962317 0.609834 0.109719
H20   H     H_    0.286492 0.037685 0.390166 0.109714

loop_
_geom_bond_atom_site_label_1
_geom_bond_atom_site_label_2
_ccdc_geom_bond_type
C14   C16   S    
O13   V3    S    
C11   C12   S    
O4    C2    A    
V1    O19   S    
C5    C17   S    
C21   C23   S    
C40   C41   A    
C7    C9    S    
C22   C28   S    
O9    V1    S    
C23   C33   S    
C1    C26   S    
C14   H2    S    
O3    C1    A    
C42   H16   S    
C29   C31   T    
C3    C29   S    
O12   V4    S    
C33   C38   A    
C16   H6    S    
C35   H10   S    
O7    C3    A    
C9    C11   T    
O5    C7    A    
C41   H15   S    
O7    V1    S    
C22   C25   S    
O6    C8    A    
O8    V2    S    
C36   C37   A    
C23   C25   S    
C24   C26   S    
C22   H20   S    
O3    V1    S    
O14   V4    S    
C10   C12   T    
C44   H18   S    
C21   C27   S    
C26   C28   S    
C22   C24   S    
C34   C35   A    
C8    C10   S    
C31   C32   S    
C2    O12   A    
C15   H5    S    
C18   C20   S    
O11   V3    S    
C27   H3    S    
O17   V3    S    
C16   C19   S    
C4    C30   S    
C28   H4    S    
C24   C27   S    
C35   C36   A    
C39   C40   A    
O8    C4    A    
C41   C42   A    
C15   C17   S    
C1    O11   A    
C36   H11   S    
O15   V3    S    
C19   H7    S    
C20   H8    S    
C25   C27   S    
C21   H19   S    
C43   H17   S    
C24   C39   S    
C34   H9    S    
O10   V2    S    
O1    V3    S    
C37   H12   S    
C17   C19   S    
C2    C25   S    
C15   C20   S    
O18   V4    S    
O15   C5    A    
C6    C18   S    
O16   C6    A    
O1    C3    A    
C13   C19   S    
V2    O20   S    
O16   V4    S    
C43   C44   A    
C39   C44   A    
C21   C26   S    
O5    V1    S    
O17   C7    A    
O6    V2    S    
O10   C6    A    
O18   C8    A    
O2    V4    S    
C13   C18   S    
C14   C17   S    
V3    O19   S    
V4    O20   S    
C40   H14   S    
O9    C5    A    
O13   V1    S    
O14   V2    S    
C13   H1    S    
C37   C38   A    
O2    C4    A    
C14   C20   S    
C42   C43   A    
O4    V2    S    
C16   C18   S    
C13   C15   S    
C33   C34   A    
C38   H13   S    
C30   C32   T    
C23   C28   S    
