data_mof_unit_58630.cif
_audit_creation_date              2012-12-10T19:45:41-0500
_audit_creation_method            fapswitch 2.2
_symmetry_space_group_name_H-M    P1
_symmetry_Int_Tables_number       1
_space_group_crystal_system       triclinic
_cell_length_a                    10.801059
_cell_length_b                    14.839364
_cell_length_c                    14.989039
_cell_angle_alpha                 64.528613
_cell_angle_beta                  106.180649
_cell_angle_gamma                 103.583011
_cell_volume                      2064.61421746

loop_
_atom_site_label
_atom_site_type_symbol
_atom_type_description
_atom_site_fract_x
_atom_site_fract_y
_atom_site_fract_z
_atom_type_partial_charge
C1    C     C_R   0.473468 0.120214 0.312224 0.893709
C2    C     C_R   0.526537 0.879787 0.687777 0.893732
C3    C     C_R   0.871381 0.001107 0.499036 -0.279251
C4    C     C_R   0.128613 0.998872 0.500979 -0.279278
C5    C     C_R   0.904116 0.004256 0.412849 -0.070904
C6    C     C_R   0.095876 0.995724 0.587165 -0.070930
C7    C     C_R   0.444540 0.190382 0.204736 -0.367481
C8    C     C_R   0.555480 0.809624 0.795268 -0.367274
C9    C     C_R   0.326052 0.227395 0.031388 0.429869
C10   C     C_R   0.673948 0.772640 0.968618 0.429982
C11   C     C_R   0.349564 0.161839 0.132970 0.570572
C12   C     C_R   0.650422 0.838189 0.867035 0.570690
C13   C     C_R   0.503013 0.291039 0.175537 0.691514
C14   C     C_R   0.497047 0.708957 0.824472 0.691404
C15   C     C_R   0.463981 0.362507 0.077248 -0.094704
C16   C     C_R   0.536090 0.637499 0.922767 -0.094844
C17   C     C_R   0.393311 0.326745 0.001069 -0.250692
C18   C     C_R   0.606735 0.673273 0.998944 -0.250709
C19   C     C_R   0.501054 0.467856 0.051283 -0.053658
C20   C     C_R   0.499037 0.532149 0.948737 -0.053670
C21   C     C_R   0.467322 0.487977 0.876720 0.420521
C22   C     C_R   0.532767 0.512028 0.123300 0.420465
C23   C     C_R   0.262500 0.999751 0.499736 0.902619
C24   C     C_R   0.737499 0.000243 0.500271 0.902589
C25   C     C_R   0.402219 0.389380 0.899734 0.433119
C26   C     C_R   0.597844 0.610633 0.100282 0.433108
C27   C     C_R   0.724557 0.287357 0.666257 0.643546
C28   C     C_R   0.275466 0.712666 0.333714 0.643566
C29   C     C_R   0.687662 0.206127 0.637394 0.380545
C30   C     C_R   0.312348 0.793884 0.362596 0.380584
C31   C     C_R   0.515148 0.284728 0.510567 0.804190
C32   C     C_R   0.484861 0.715277 0.489419 0.804125
C33   C     C_R   0.545199 0.369531 0.539404 -0.165013
C34   C     C_R   0.454824 0.630489 0.460562 -0.165204
C35   C     C_R   0.659537 0.372805 0.613554 -0.272461
C36   C     C_R   0.340494 0.627223 0.386402 -0.272510
C37   C     C_R   0.471562 0.453532 0.493861 -0.020517
C38   C     C_R   0.528465 0.546492 0.506094 -0.020563
C39   C     C_R   0.657409 0.551867 0.561964 0.421788
C40   C     C_R   0.342625 0.448167 0.437975 0.421824
C41   C     C_R   0.713303 0.464193 0.625886 0.443489
C42   C     C_R   0.286745 0.535844 0.374048 0.443481
C43   C     C_R   0.346812 0.918090 0.832504 0.450794
C44   C     C_R   0.653378 0.082179 0.167419 0.450639
C45   C     C_R   0.238789 0.910403 0.756691 0.285399
C46   C     C_R   0.761362 0.089745 0.243305 0.285546
C47   C     C_R   0.196937 0.998515 0.676502 -0.096458
C48   C     C_R   0.803065 0.001568 0.323470 -0.096531
C49   C     C_R   0.259006 0.092476 0.676725 -0.227903
C50   C     C_R   0.740874 0.907658 0.323162 -0.228085
C51   C     C_R   0.370259 0.099892 0.748749 0.551850
C52   C     C_R   0.629678 0.900363 0.251048 0.552065
C53   C     C_R   0.416506 0.012760 0.825304 0.259286
C54   C     C_R   0.583586 0.987562 0.174509 0.259192
C55   C     C_R   0.966691 0.995769 0.585806 0.684547
C56   C     C_R   0.033300 0.004200 0.414212 0.684614
Cu1   Cu    Cu3+1 0.466270 0.918260 0.475690 1.132260
Cu2   Cu    Cu3+1 0.533730 0.081740 0.524310 1.132229
H1    H     H_    0.224390 0.159930 0.617790 0.263342
H2    H     H_    0.775348 0.840149 0.382091 0.263333
N1    N     N_R   0.584450 0.204570 0.560790 -0.339133
N2    N     N_R   0.415550 0.795430 0.439210 -0.339106
O1    O     O_R   0.455540 0.022090 0.338120 -0.572417
O2    O     O_R   0.544460 0.977910 0.661880 -0.572439
O3    O     O_R   0.512510 0.160150 0.379180 -0.474209
O4    O     O_R   0.487490 0.839850 0.620820 -0.474218
O5    O     O_R   0.291160 0.930970 0.479480 -0.518924
O6    O     O_R   0.708840 0.069030 0.520520 -0.518941
O7    O     O_R   0.348130 0.069020 0.520540 -0.582207
O8    O     O_R   0.651870 0.930980 0.479460 -0.582189
Cl1   Cl    Cl    0.565547 0.023395 0.907674 -0.268310
Cl2   Cl    Cl    0.434617 0.977079 0.092013 -0.268529
Cl3   Cl    Cl    0.198485 0.183926 0.950074 -0.218993
Cl4   Cl    Cl    0.801465 0.816153 0.049929 -0.218991
Cl5   Cl    Cl    0.535401 0.544918 0.767177 -0.397369
Cl6   Cl    Cl    0.464708 0.455071 0.232853 -0.397506
Cl7   Cl    Cl    0.860938 0.476581 0.711776 -0.254463
Cl8   Cl    Cl    0.139142 0.523471 0.288122 -0.254452
F1    F     F_    0.572126 0.713642 0.574342 -0.556402
F2    F     F_    0.427884 0.286352 0.425648 -0.556411
Cl9   Cl    Cl    0.210074 0.886884 0.304951 -0.227984
Cl10  Cl    Cl    0.789943 0.113130 0.695039 -0.228015
F3    F     F_    0.827744 0.281994 0.743948 -0.494026
F4    F     F_    0.172282 0.718037 0.256019 -0.494042
Cl11  Cl    Cl    0.766121 0.665242 0.533709 -0.435966
Cl12  Cl    Cl    0.233892 0.334806 0.466214 -0.435902
F5    F     F_    0.385811 0.833729 0.911434 -0.578183
F6    F     F_    0.614510 0.166606 0.088526 -0.578144
Cl13  Cl    Cl    0.159772 0.790650 0.761851 -0.337384
Cl14  Cl    Cl    0.840518 0.209434 0.238262 -0.337245
F7    F     F_    0.435402 0.191872 0.741915 -0.575460
F8    F     F_    0.564439 0.808436 0.257774 -0.575337
F9    F     F_    0.933355 0.986148 0.670599 -0.549252
F10   F     F_    0.066638 0.013832 0.329416 -0.549229
Cl15  Cl    Cl    0.357369 0.342795 0.802837 -0.313480
Cl16  Cl    Cl    0.642675 0.657216 0.197182 -0.313604
F11   F     F_    0.393947 0.682553 0.759942 -0.563143
F12   F     F_    0.606131 0.317423 0.240069 -0.563155
F13   F     F_    0.721935 0.929716 0.839100 -0.506386
F14   F     F_    0.277998 0.070334 0.160905 -0.506344

loop_
_geom_bond_atom_site_label_1
_geom_bond_atom_site_label_2
_ccdc_geom_bond_type
C28   F4    S    
C31   N1    A    
C5    C56   A    
C36   C42   A    
C19   C20   A    
C18   C26   A    
C22   Cl6   S    
Cu1   O4    S    
C55   F9    S    
C24   O8    A    
C31   F2    S    
C39   C41   A    
C15   C19   A    
C37   C40   A    
C30   N2    A    
C41   Cl7   S    
C38   C39   A    
C27   C29   A    
C23   O5    A    
C40   Cl12  S    
C13   F12   S    
C23   O7    A    
C12   F13   S    
C51   F7    S    
C3    C55   A    
C43   C53   A    
C44   C46   A    
C49   C51   A    
C1    O3    A    
C31   C33   A    
Cu1   O1    S    
Cu1   O8    S    
C45   Cl13  S    
C6    C55   A    
C8    C12   A    
C52   C54   A    
Cu2   N1    S    
C40   C42   A    
C34   C38   A    
C4    C56   A    
Cu2   O2    S    
C3    C24   S    
C9    Cl3   S    
Cu1   O5    S    
C1    O1    A    
C2    O2    A    
C7    C11   A    
C29   N1    A    
C45   C47   A    
C26   Cl16  S    
C5    C48   S    
C46   C48   A    
C6    C47   S    
Cu1   N2    S    
C19   C22   A    
C4    C6    A    
C4    C23   S    
C27   C35   A    
C33   C37   A    
C11   F14   S    
C51   C53   A    
C32   C34   A    
C56   F10   S    
C37   C38   A    
C9    C11   A    
Cu2   O3    S    
C50   C52   A    
C16   C20   A    
C43   C45   A    
C10   C12   A    
C9    C17   A    
C25   Cl15  S    
C13   C15   A    
C14   C16   A    
C52   F8    S    
C39   Cl11  S    
C53   Cl1   S    
C3    C5    A    
C14   F11   S    
Cu2   O6    S    
C15   C17   A    
C21   C25   A    
C8    C14   A    
C1    C7    S    
C2    C8    S    
C17   C25   A    
C2    O4    A    
Cu2   O7    S    
C42   Cl8   S    
C46   Cl14  S    
C47   C49   A    
C21   Cl5   S    
C49   H1    S    
C43   F5    S    
C30   Cl9   S    
C28   C30   A    
C50   H2    S    
C29   Cl10  S    
C32   F1    S    
C10   Cl4   S    
Cu1   Cu2   S    
C10   C18   A    
C48   C50   A    
C33   C35   A    
C34   C36   A    
C35   C41   A    
C24   O6    A    
C32   N2    A    
C27   F3    S    
C44   C54   A    
C7    C13   A    
C54   Cl2   S    
C20   C21   A    
C28   C36   A    
C16   C18   A    
C22   C26   A    
C44   F6    S    
