data_mof_unit_20245.cif
_audit_creation_date              2012-12-10T16:54:32-0500
_audit_creation_method            fapswitch 2.2
_symmetry_space_group_name_H-M    P1
_symmetry_Int_Tables_number       1
_space_group_crystal_system       triclinic
_cell_length_a                    15.052639
_cell_length_b                    10.949269
_cell_length_c                    9.77105
_cell_angle_alpha                 89.014002
_cell_angle_beta                  89.414025
_cell_angle_gamma                 91.625435
_cell_volume                      1609.44059189

loop_
_atom_site_label
_atom_site_type_symbol
_atom_type_description
_atom_site_fract_x
_atom_site_fract_y
_atom_site_fract_z
_atom_type_partial_charge
C1    C     C_R   0.497312 0.265535 0.501078 0.727068
C2    C     C_R   0.911620 0.620848 0.471732 -0.031882
C3    C     C_R   0.946211 0.295055 0.571927 -0.188186
C4    C     C_R   0.038521 0.294030 0.580633 -0.221096
C5    C     C_R   0.089856 0.398226 0.543537 0.169225
C6    C     C_R   0.047710 0.506651 0.502854 0.018367
C7    C     C_R   0.099208 0.611227 0.463172 -0.024279
C8    C     C_R   0.057432 0.720177 0.428404 0.369757
C9    C     C_R   0.964299 0.725600 0.433315 0.088720
C10   C     C_R   0.182661 0.396075 0.546119 -0.254913
C11   C     C_R   0.233004 0.498732 0.501921 -0.041269
C12   C     C_R   0.329183 0.497057 0.500727 0.774649
C13   C     C_R   0.191825 0.604614 0.458457 -0.185069
C14   C     C_2   0.491153 0.934456 0.389859 -0.190544
C15   C     C_2   0.507361 0.865698 0.500418 -0.252529
C16   C     C_2   0.501092 0.067817 0.393026 -0.277551
C17   C     C_2   0.483343 0.133629 0.505045 0.302152
C18   C     C_2   0.455516 0.419746 0.926168 0.164761
C19   C     C_2   0.441864 0.438034 0.079567 0.610502
C20   C     C_R   0.500006 0.734181 0.499335 0.798157
C21   C     C_R   0.671086 0.506935 0.499597 0.811627
C22   C     C_R   0.817703 0.623828 0.481554 0.411842
C23   C     C_R   0.768205 0.512255 0.499349 -0.157141
C24   C     C_R   0.811430 0.403277 0.525307 -0.285105
C25   C     C_R   0.903728 0.402260 0.532801 0.145627
C26   C     C_R   0.954256 0.509961 0.501632 -0.056758
Cu1   Cu    Cu3+1 0.500020 0.500020 0.638630 0.952797
Cu2   Cu    Cu3+1 0.499980 0.499980 0.361370 0.991083
H1    H     H_    0.530527 0.905615 0.594754 0.209560
H2    H     H_    0.522667 0.113155 0.298276 0.143424
H3    H     H_    0.512786 0.582598 0.887506 0.203713
H4    H     H_    0.772523 0.319623 0.544448 0.149423
H5    H     H_    0.907899 0.212486 0.598101 0.142054
H6    H     H_    0.069669 0.211438 0.615439 0.142672
H7    H     H_    0.215691 0.314203 0.579011 0.107756
H8    H     H_    0.232863 0.682246 0.423929 0.160561
H9    H     H_    0.474895 0.892600 0.292939 0.164201
N1    N     N_2   0.499020 0.498660 0.846910 -0.281737
N2    N     N_2   0.499000 0.498630 0.153040 -0.064964
O1    O     O_R   0.500020 0.321960 0.617040 -0.567365
O2    O     O_R   0.499980 0.321920 0.382900 -0.590515
O3    O     O_R   0.370270 0.499990 0.617090 -0.594915
O4    O     O_R   0.370240 0.499950 0.382940 -0.522853
O5    O     O_R   0.500020 0.678080 0.617100 -0.579607
O6    O     O_R   0.499980 0.678040 0.382960 -0.617547
O7    O     O_R   0.629760 0.500050 0.617060 -0.549599
O8    O     O_R   0.629730 0.500010 0.382910 -0.572701
O9    O     O_3   0.778666 0.734810 0.506693 -0.566838
C27   C     C_3   0.731213 0.775072 0.391783 0.079423
H10   H     H_    0.664012 0.734130 0.398222 0.138233
H11   H     H_    0.763624 0.751995 0.292698 0.141931
C28   C     C_3   0.721152 0.913166 0.396325 -0.761441
H12   H     H_    0.786097 0.962226 0.383552 0.250528
H13   H     H_    0.677494 0.942932 0.311918 0.199251
H14   H     H_    0.691294 0.939111 0.495640 0.251123
O10   O     O_3   0.449555 0.079966 0.624874 -0.581709
C29   C     C_3   0.355915 0.077807 0.619029 0.062925
H15   H     H_    0.331932 0.026979 0.528138 0.159668
H16   H     H_    0.330756 0.172302 0.615125 0.115942
C30   C     C_3   0.317878 0.013417 0.746618 -0.797899
H17   H     H_    0.340317 0.061826 0.839604 0.251799
H18   H     H_    0.244132 0.012587 0.743731 0.193951
H19   H     H_    0.340359 0.917695 0.751480 0.250170
N3    N     N_3   0.417468 0.310771 0.870052 -0.632357
H20   H     H_    0.468467 0.253123 0.842587 0.271731
H21   H     H_    0.377337 0.332217 0.787258 0.268238
O11   O     O_3   0.363029 0.396601 0.141998 -0.574742
C31   C     C_3   0.357997 0.267384 0.147830 0.114246
H22   H     H_    0.424480 0.225277 0.153530 0.128165
H23   H     H_    0.322327 0.232292 0.057107 0.167021
C32   C     C_3   0.303677 0.224804 0.272507 -0.802915
H24   H     H_    0.233574 0.252227 0.261827 0.253337
H25   H     H_    0.306284 0.123909 0.281912 0.187460
H26   H     H_    0.330919 0.264491 0.367036 0.237178
O12   O     O_3   0.580296 0.513306 0.094608 -0.522565
C33   C     C_3   0.605119 0.637856 0.103190 0.150664
H27   H     H_    0.620162 0.660882 0.208899 0.173294
H28   H     H_    0.551547 0.698345 0.067070 0.098855
C34   C     C_3   0.688301 0.663822 0.016579 -0.836361
H29   H     H_    0.675325 0.642388 0.907790 0.268921
H30   H     H_    0.708497 0.761840 0.023595 0.201557
H31   H     H_    0.743446 0.607317 0.054121 0.255618
O13   O     O_3   0.106525 0.819454 0.376640 -0.581025
C35   C     C_3   0.131708 0.897418 0.484211 0.047603
H32   H     H_    0.198753 0.873082 0.520366 0.152574
H33   H     H_    0.085120 0.893539 0.574008 0.131145
C36   C     C_3   0.136014 0.027942 0.428822 -0.825926
H34   H     H_    0.067856 0.061552 0.413753 0.242323
H35   H     H_    0.171935 0.088080 0.501167 0.191274
H36   H     H_    0.171180 0.031243 0.328628 0.268593
N4    N     N_3   0.923794 0.836409 0.390728 -0.543828
H37   H     H_    0.945597 0.859504 0.291426 0.240160
H38   H     H_    0.943630 0.906091 0.456415 0.231133

loop_
_geom_bond_atom_site_label_1
_geom_bond_atom_site_label_2
_ccdc_geom_bond_type
C8    C9    A    
C22   O9    S    
C36   H34   S    
Cu2   O8    S    
C8    O13   S    
C33   C34   S    
C9    N4    S    
C34   H31   S    
C7    C8    A    
C30   H19   S    
C33   H28   S    
C12   O4    A    
C5    C6    A    
C29   H16   S    
C3    H5    S    
Cu1   N1    S    
C16   H2    S    
Cu2   O2    S    
O10   C29   S    
C30   H18   S    
C18   C19   S    
C12   O3    A    
C1    O1    A    
Cu1   O5    S    
C16   C17   D    
C27   H11   S    
C2    C22   A    
C23   C24   A    
C35   C36   S    
C19   O11   S    
C10   H7    S    
N2    O12   S    
C20   O6    A    
C28   H14   S    
C20   O5    A    
C28   H13   S    
C15   H1    S    
C33   H27   S    
C15   C20   S    
C4    H6    S    
Cu2   O6    S    
O11   C31   S    
C3    C25   A    
C24   C25   A    
C13   H8    S    
N4    H37   S    
C32   H25   S    
C31   H22   S    
C29   C30   S    
Cu2   N2    S    
C25   C26   A    
C30   H17   S    
N3    H21   S    
O12   C33   S    
C24   H4    S    
N4    H38   S    
O13   C35   S    
Cu1   O1    S    
C27   C28   S    
C2    C26   A    
C35   H32   S    
C17   O10   S    
C19   N2    D    
Cu1   O7    S    
C1    O2    A    
O9    C27   S    
C21   C23   S    
C14   C16   S    
C3    C4    A    
C28   H12   S    
C34   H30   S    
C21   O7    A    
C14   C15   D    
C35   H33   S    
C4    C5    A    
C32   H26   S    
C11   C12   S    
C6    C7    A    
Cu2   O4    S    
C1    C17   S    
H3    N1    S    
N3    H20   S    
C36   H35   S    
C18   N1    D    
C5    C10   A    
C14   H9    S    
C11   C13   A    
Cu1   O3    S    
C18   N3    S    
C29   H15   S    
C6    C26   A    
C31   C32   S    
C10   C11   A    
C34   H29   S    
C7    C13   A    
C32   H24   S    
C31   H23   S    
C27   H10   S    
C36   H36   S    
Cu1   Cu2   S    
C22   C23   A    
C2    C9    A    
C21   O8    A    
