data_mof_unit_28941.cif
_audit_creation_date              2012-10-26T18:28:12-0400
_audit_creation_method            fapswitch 2.2
_symmetry_space_group_name_H-M    P1
_symmetry_Int_Tables_number       1
_space_group_crystal_system       triclinic
_cell_length_a                    27.755483
_cell_length_b                    11.057474
_cell_length_c                    9.912056
_cell_angle_alpha                 111.577402
_cell_angle_beta                  99.100244
_cell_angle_gamma                 90.944718
_cell_volume                      2784.02787805

loop_
_atom_site_label
_atom_site_type_symbol
_atom_type_description
_atom_site_fract_x
_atom_site_fract_y
_atom_site_fract_z
_atom_type_partial_charge
C1    C     C_R   0.497174 0.254028 0.440306 0.587691
C2    C     C_R   0.879540 0.485043 0.619060 0.026615
C3    C     C_R   0.355008 0.501898 0.501887 -0.010216
C4    C     C_R   0.645089 0.499615 0.498179 -0.007085
C5    C     C_R   0.982123 0.505194 0.626285 0.021084
C6    C     C_R   0.018099 0.500038 0.370238 0.021130
C7    C     C_R   0.966760 0.493693 0.369051 0.019539
C8    C     C_R   0.033431 0.519233 0.630229 0.019324
C9    C     C_R   0.949098 0.494743 0.496552 0.034426
C10   C     C_R   0.051113 0.514176 0.501374 0.034503
C11   C     C_R   0.962429 0.500193 0.747740 -0.136670
C12   C     C_R   0.503210 0.746002 0.559704 0.584296
C13   C     C_R   0.037860 0.492151 0.244159 -0.136936
C14   C     C_R   0.912245 0.490767 0.744049 -0.110047
C15   C     C_R   0.088053 0.499065 0.247238 -0.110779
C16   C     C_R   0.407661 0.498811 0.499995 0.594119
C17   C     C_R   0.592365 0.501471 0.500031 0.589490
C18   C     C_R   0.068007 0.539069 0.759429 -0.136285
C19   C     C_R   0.932119 0.486562 0.244388 -0.135319
C20   C     C_2   0.495985 0.114221 0.406804 -0.125732
C21   C     C_2   0.505045 0.885844 0.593266 -0.122098
C22   C     C_2   0.501629 0.069734 0.516182 -0.150214
C23   C     C_R   0.102480 0.522606 0.503461 -0.026596
C24   C     C_2   0.499972 0.930378 0.483949 -0.145854
C25   C     C_2   0.509022 0.494771 0.079142 -0.009872
C26   C     C_2   0.502008 0.475203 0.913616 -0.007514
C27   C     C_R   0.186275 0.542671 0.631392 0.404218
C28   C     C_R   0.813935 0.473273 0.370000 0.404381
C29   C     C_R   0.171523 0.518234 0.378834 0.403422
C30   C     C_R   0.828760 0.479541 0.616090 0.403651
C31   C     C_R   0.287424 0.632755 0.576403 -0.052383
C32   C     C_R   0.712576 0.374444 0.410156 -0.054110
C33   C     C_R   0.337389 0.622433 0.575920 -0.162704
C34   C     C_R   0.897742 0.485754 0.494513 -0.026612
C35   C     C_R   0.662564 0.383390 0.410991 -0.165125
C36   C     C_R   0.321917 0.389120 0.429073 0.019561
C37   C     C_R   0.678393 0.609457 0.583769 0.030520
C38   C     C_R   0.271657 0.402019 0.428428 -0.056199
C39   C     C_R   0.728650 0.597918 0.583967 -0.052813
C40   C     C_R   0.254433 0.522683 0.501917 0.211276
C41   C     C_R   0.745768 0.481510 0.497221 0.210147
C42   C     C_2   0.338333 0.256397 0.360521 0.543093
C43   C     C_2   0.662040 0.739098 0.665222 0.547817
C44   C     C_3   0.557331 0.657225 0.972088 -0.110915
C45   C     C_R   0.135754 0.538505 0.632901 0.024371
C46   C     C_3   0.574940 0.765107 0.925445 -0.256941
C47   C     C_3   0.616008 0.855460 0.042548 -0.460078
C48   C     C_3   0.440570 0.347990 0.029972 -0.112657
C49   C     C_3   0.399657 0.302113 0.091241 -0.246230
C50   C     C_3   0.365749 0.193500 0.968132 -0.467782
C51   C     C_R   0.864437 0.478364 0.368285 0.024542
C52   C     C_R   0.118024 0.548115 0.760276 -0.104457
C53   C     C_R   0.882123 0.478909 0.244306 -0.104004
C54   C     C_R   0.120730 0.514007 0.375759 0.026453
Cu1   Cu    Cu3+1 0.508480 0.521810 0.644910 0.963105
Cu2   Cu    Cu3+1 0.491520 0.478190 0.355090 0.956987
H1    H     H_    0.510777 0.952728 0.707793 0.084282
H2    H     H_    0.362445 0.709034 0.632423 0.118483
H3    H     H_    0.725579 0.284331 0.342126 0.146944
H4    H     H_    0.274299 0.726241 0.634218 0.144547
H5    H     H_    0.899189 0.488420 0.840544 0.157949
H6    H     H_    0.101136 0.491709 0.147328 0.159161
H7    H     H_    0.984695 0.501785 0.847746 0.101337
H8    H     H_    0.015676 0.478496 0.139523 0.101962
H9    H     H_    0.057844 0.549599 0.863292 0.107869
H10   H     H_    0.942165 0.488508 0.144698 0.106180
H11   H     H_    0.494460 0.863721 0.369279 0.157047
H12   H     H_    0.490120 0.047306 0.292278 0.091984
H13   H     H_    0.507277 0.136401 0.630863 0.153033
H14   H     H_    0.391195 0.132982 0.355179 0.331750
H15   H     H_    0.611624 0.869697 0.674381 0.328775
H16   H     H_    0.603283 0.900611 0.149610 0.146404
H17   H     H_    0.648240 0.800368 0.057161 0.191697
H18   H     H_    0.627396 0.934463 0.007436 0.177984
H19   H     H_    0.589535 0.723372 0.822528 0.242063
H20   H     H_    0.544396 0.826169 0.913947 0.170069
H21   H     H_    0.540870 0.710784 0.070761 0.109150
H22   H     H_    0.589879 0.610258 0.005245 0.136545
H23   H     H_    0.478716 0.392878 0.832666 0.137165
H24   H     H_    0.349586 0.227935 0.880057 0.169023
H25   H     H_    0.386233 0.107016 0.919755 0.147059
H26   H     H_    0.335489 0.163609 0.013051 0.206695
H27   H     H_    0.414450 0.262324 0.174730 0.229319
H28   H     H_    0.376987 0.384132 0.137406 0.192971
H29   H     H_    0.420733 0.390439 0.953300 0.125782
H30   H     H_    0.458431 0.260867 0.966079 0.114633
H31   H     H_    0.540103 0.556040 0.155102 0.142663
H32   H     H_    0.245542 0.317326 0.374806 0.165251
H33   H     H_    0.754759 0.681126 0.647256 0.163194
H34   H     H_    0.142838 0.562064 0.861807 0.180288
H35   H     H_    0.857289 0.474222 0.146127 0.181305
H36   H     H_    0.637384 0.298950 0.344542 0.119845
N1    N     N_R   0.203064 0.531037 0.505040 -0.397755
N2    N     N_R   0.797168 0.475177 0.493270 -0.397470
N3    N     N_2   0.478780 0.445430 0.137360 -0.235099
N4    N     N_2   0.521220 0.554570 0.862640 -0.233817
O1    O     O_R   0.504520 0.332330 0.577400 -0.494494
O2    O     O_2   0.781873 0.468919 0.250428 -0.480693
O3    O     O_2   0.811060 0.479254 0.735217 -0.482560
O4    O     O_2   0.189289 0.508785 0.256494 -0.483954
O5    O     O_2   0.310095 0.170258 0.264848 -0.526840
O6    O     O_R   0.385129 0.227430 0.408913 -0.708213
O7    O     O_2   0.687947 0.814061 0.777874 -0.522913
O8    O     O_R   0.618095 0.778243 0.610289 -0.710406
O9    O     O_R   0.495480 0.667670 0.422600 -0.487210
O10   O     O_R   0.490210 0.295500 0.332650 -0.506236
O11   O     O_R   0.509790 0.704500 0.667350 -0.515790
O12   O     O_R   0.437420 0.518430 0.622370 -0.479505
O13   O     O_R   0.562580 0.481570 0.377630 -0.495536
O14   O     O_R   0.423110 0.481600 0.377610 -0.506762
O15   O     O_R   0.576890 0.518400 0.622390 -0.496005
O16   O     O_2   0.218338 0.555587 0.754306 -0.480681

loop_
_geom_bond_atom_site_label_1
_geom_bond_atom_site_label_2
_ccdc_geom_bond_type
Cu2   N3    S    
C29   N1    A    
Cu1   Cu2   S    
C33   H2    S    
C23   C45   A    
C48   N3    S    
C36   C42   S    
C40   N1    S    
H15   O8    S    
C46   H20   S    
C16   O14   A    
C39   C41   A    
C18   H9    S    
C21   H1    S    
C34   C51   A    
C49   H28   S    
C44   H21   S    
C5    C11   A    
C11   H7    S    
C12   O9    A    
C28   C51   A    
C29   C54   A    
C3    C33   A    
C17   O15   A    
C25   H31   S    
C31   C40   A    
C19   H10   S    
C28   N2    A    
C43   O8    S    
C24   H11   S    
C52   H34   S    
C53   H35   S    
C32   C41   A    
C31   C33   A    
C22   H13   S    
C1    O10   A    
C35   H36   S    
C2    C34   A    
C19   C53   A    
C4    C35   A    
C42   O6    S    
Cu2   O14   S    
C46   H19   S    
C44   C46   S    
C26   N4    D    
C47   H16   S    
C18   C52   A    
C32   C35   A    
C47   H17   S    
C1    O1    A    
C45   C52   A    
C25   C26   S    
C14   H5    S    
C30   O3    S    
C8    C18   A    
C38   H32   S    
C51   C53   A    
C31   H4    S    
C37   C43   S    
C15   C54   A    
C5    C9    A    
C44   N4    S    
C5    C8    A    
C41   N2    S    
Cu1   O1    S    
Cu2   O10   S    
C4    C17   S    
C48   C49   S    
C20   C22   D    
C27   O16   S    
C25   N3    D    
C7    C19   A    
C13   C15   A    
C9    C34   A    
C22   C24   S    
C27   N1    A    
C42   O5    D    
Cu2   O13   S    
C50   H26   S    
C23   C54   A    
C28   O2    S    
C7    C9    A    
C46   C47   S    
C1    C20   S    
C29   O4    S    
Cu1   O15   S    
C20   H12   S    
C47   H18   S    
Cu1   N4    S    
C50   H24   S    
C6    C10   A    
C12   O11   A    
H14   O6    S    
C6    C7    A    
C10   C23   A    
C26   H23   S    
Cu1   O12   S    
C2    C30   A    
C49   H27   S    
C44   H22   S    
C30   N2    A    
C6    C13   A    
C38   C40   A    
C27   C45   A    
C13   H8    S    
C17   O13   A    
C3    C36   A    
C12   C21   S    
C36   C38   A    
C11   C14   A    
C15   H6    S    
C48   H30   S    
C2    C14   A    
C43   O7    D    
Cu2   O9    S    
C16   O12   A    
C37   C39   A    
C4    C37   A    
C8    C10   A    
C49   C50   S    
C21   C24   D    
Cu1   O11   S    
C48   H29   S    
C32   H3    S    
C39   H33   S    
C3    C16   S    
C50   H25   S    
