data_mof_unit_42951.cif
_audit_creation_date              2013-03-05T16:00:03-0500
_audit_creation_method            fapswitch 2.2
_symmetry_space_group_name_H-M    P1
_symmetry_Int_Tables_number       1
_space_group_crystal_system       triclinic
_cell_length_a                    20.932551
_cell_length_b                    22.081427
_cell_length_c                    14.903642
_cell_angle_alpha                 90.457464
_cell_angle_beta                  130.311909
_cell_angle_gamma                 89.734426
_cell_volume                      5252.75202439

loop_
_atom_site_label
_atom_site_type_symbol
_atom_site_description
_atom_site_fract_x
_atom_site_fract_y
_atom_site_fract_z
_atom_type_partial_charge
O1    O     O_R   0.600040 0.935040 0.546740 -0.530362
O2    O     O_R   0.399960 0.064960 0.453260 -0.528842
O3    O     O_R   0.399960 0.935040 0.453260 -0.525413
O4    O     O_R   0.600040 0.064960 0.546740 -0.526899
O5    O     O_R   0.100040 0.435040 0.546740 -0.529974
O6    O     O_R   0.899960 0.564960 0.453260 -0.531564
O7    O     O_R   0.899960 0.435040 0.453260 -0.523928
O8    O     O_R   0.100040 0.564960 0.546740 -0.523579
O9    O     O_R   0.555010 0.935070 0.653220 -0.569878
O10   O     O_R   0.444990 0.064930 0.346780 -0.572376
O11   O     O_R   0.444990 0.935070 0.346780 -0.567641
O12   O     O_R   0.555010 0.064930 0.653220 -0.564146
O13   O     O_R   0.055010 0.435070 0.653220 -0.564973
O14   O     O_R   0.944990 0.564930 0.346780 -0.573627
O15   O     O_R   0.944990 0.435070 0.346780 -0.565509
O16   O     O_R   0.055010 0.564930 0.653220 -0.573122
C1    C     C_R   0.600918 0.912834 0.629434 0.877168
C2    C     C_R   0.399195 0.087338 0.370630 0.873369
C3    C     C_R   0.399411 0.912788 0.370679 0.873065
C4    C     C_R   0.600326 0.087614 0.629014 0.868453
C5    C     C_R   0.100596 0.412354 0.628697 0.880726
C6    C     C_R   0.898610 0.586840 0.370089 0.875394
C7    C     C_R   0.900385 0.411936 0.371869 0.867719
C8    C     C_R   0.100498 0.587431 0.629414 0.869367
Cu1   Cu    Cu3+1 0.526640 1.000000 0.436960 1.102154
Cu2   Cu    Cu3+1 0.473360 0.000000 0.563040 1.104227
Cu3   Cu    Cu3+1 0.026640 0.500000 0.436960 1.103151
Cu4   Cu    Cu3+1 0.973360 0.500000 0.563040 1.103540
C9    C     C_R   0.649943 0.143018 0.693574 -0.171343
C10   C     C_R   0.348429 0.858406 0.305458 -0.177813
C11   C     C_R   0.347548 0.141487 0.303489 -0.166541
C12   C     C_R   0.655067 0.860224 0.698818 -0.179827
C13   C     C_R   0.149202 0.643072 0.693779 -0.172664
C14   C     C_R   0.853131 0.355263 0.310106 -0.173665
C15   C     C_R   0.843096 0.638619 0.299583 -0.173291
C16   C     C_R   0.155326 0.359371 0.697229 -0.171017
C17   C     C_R   0.709493 0.240581 0.704802 0.280854
C18   C     C_R   0.271402 0.769959 0.285119 0.269167
C19   C     C_R   0.264599 0.229105 0.273518 0.269367
C20   C     C_R   0.756405 0.784298 0.745323 0.270321
C21   C     C_R   0.205326 0.741827 0.702640 0.282539
C22   C     C_R   0.797494 0.256566 0.303314 0.282382
C23   C     C_R   0.740175 0.713436 0.251721 0.272085
C24   C     C_R   0.259414 0.285274 0.744987 0.268647
C25   C     C_R   0.662407 0.188335 0.640254 0.271125
C26   C     C_R   0.326882 0.817752 0.353885 0.264306
C27   C     C_R   0.318907 0.181207 0.345282 0.256439
C28   C     C_R   0.693542 0.825923 0.665431 0.253287
C29   C     C_R   0.160744 0.688610 0.639792 0.268630
C30   C     C_R   0.842040 0.310104 0.365326 0.270305
C31   C     C_R   0.803972 0.672541 0.332413 0.257157
C32   C     C_R   0.194711 0.325970 0.664061 0.259438
C33   C     C_R   0.675713 0.154253 0.804968 -0.178697
C34   C     C_R   0.324701 0.845436 0.196073 -0.183044
C35   C     C_R   0.332699 0.156367 0.199951 -0.155615
C36   C     C_R   0.667652 0.843612 0.799955 -0.159558
C37   C     C_R   0.172866 0.654877 0.804005 -0.176091
C38   C     C_R   0.829320 0.342504 0.200322 -0.177798
C39   C     C_R   0.829330 0.654516 0.197429 -0.159958
C40   C     C_R   0.168031 0.341702 0.797674 -0.154788
C41   C     C_R   0.712004 0.209436 0.863609 0.038406
C42   C     C_R   0.285286 0.790969 0.137158 0.035832
C43   C     C_R   0.291410 0.209885 0.138371 0.038836
C44   C     C_R   0.714964 0.792530 0.866108 0.041097
C45   C     C_R   0.206587 0.711048 0.860431 0.041087
C46   C     C_R   0.795225 0.286541 0.144297 0.035628
C47   C     C_R   0.781837 0.705455 0.131163 0.043994
C48   C     C_R   0.218975 0.292449 0.866855 0.038837
C49   C     C_R   0.741139 0.248312 0.822027 -0.140232
C50   C     C_R   0.250035 0.755741 0.174813 -0.128248
C51   C     C_R   0.245339 0.240319 0.164305 -0.140594
C52   C     C_R   0.769750 0.768971 0.849384 -0.134770
C53   C     C_R   0.236235 0.749791 0.819354 -0.141482
C54   C     C_R   0.766618 0.247737 0.186647 -0.139280
C55   C     C_R   0.726748 0.728748 0.147588 -0.136275
C56   C     C_R   0.273915 0.269718 0.849892 -0.133794
C57   C     C_R   0.724556 0.224887 0.966656 -0.032959
C58   C     C_R   0.276009 0.773155 0.037396 -0.032060
C59   C     C_R   0.288879 0.231053 0.045567 -0.014891
C60   C     C_R   0.715049 0.768497 0.955334 -0.011225
C61   C     C_R   0.216388 0.727975 0.960914 -0.016094
C62   C     C_R   0.783633 0.270492 0.042247 -0.033409
C63   C     C_R   0.781835 0.729478 0.042077 -0.011132
C64   C     C_R   0.222377 0.270237 0.959796 -0.025897
C65   C     C_R   0.325445 0.798119 0.012373 0.091393
C66   C     C_R   0.677642 0.198190 0.994386 0.097830
C67   C     C_R   0.648906 0.779433 0.958127 0.071579
C68   C     C_R   0.352613 0.217700 0.039128 0.079363
C69   C     C_R   0.830890 0.297094 0.014988 0.092351
C70   C     C_R   0.167819 0.702211 0.986498 0.063875
C71   C     C_R   0.160668 0.284972 0.969431 0.079442
C72   C     C_R   0.847776 0.718209 0.038947 0.067938
C73   C     C_R   0.299107 0.792531 0.898789 0.322141
C74   C     C_R   0.704888 0.203989 0.108555 0.321751
C75   C     C_R   0.657469 0.763001 0.056478 0.306328
C76   C     C_R   0.343336 0.234916 0.940380 0.308506
C77   C     C_R   0.803966 0.291190 0.901089 0.315445
C78   C     C_R   0.192895 0.709467 0.099063 0.345719
C79   C     C_R   0.177398 0.276964 0.076302 0.313468
C80   C     C_R   0.838740 0.734391 0.940190 0.298281
H1    H     H_    0.337434 0.878035 0.156504 0.201974
H2    H     H_    0.667515 0.119574 0.846795 0.199062
H3    H     H_    0.642485 0.871991 0.829601 0.196409
H4    H     H_    0.351910 0.125184 0.165372 0.193734
H5    H     H_    0.837009 0.376640 0.157288 0.201050
H6    H     H_    0.164677 0.619870 0.846005 0.191899
H7    H     H_    0.139448 0.367730 0.824143 0.205132
H8    H     H_    0.853701 0.625639 0.167177 0.190885
N1    N     N_R   0.433280 0.000000 0.657760 -0.263808
N2    N     N_R   0.566720 1.000000 0.342240 -0.263733
N3    N     N_R   0.933280 0.500000 0.657760 -0.264218
N4    N     N_R   0.066720 0.500000 0.342240 -0.266275
C81   C     C_R   0.318628 0.008295 0.657858 0.110209
C82   C     C_R   0.681115 0.991154 0.341636 0.111929
C83   C     C_R   0.819256 0.508477 0.659096 0.101442
C84   C     C_R   0.183671 0.507251 0.347444 0.106019
C85   C     C_R   0.349027 0.000924 0.597638 0.453938
C86   C     C_R   0.650908 0.999770 0.401950 0.452393
C87   C     C_R   0.849438 0.499476 0.598912 0.453076
C88   C     C_R   0.151080 0.502953 0.404760 0.454418
C89   C     C_R   0.489776 0.996754 0.779385 0.255824
C90   C     C_R   0.510008 0.002240 0.220493 0.255514
C91   C     C_R   0.991022 0.505096 0.779624 0.264093
C92   C     C_R   0.010519 0.504827 0.220814 0.261720
C93   C     C_R   0.460737 0.998869 0.843904 -0.074727
C94   C     C_R   0.538844 0.999722 0.155756 -0.074366
C95   C     C_R   0.963646 0.517886 0.845365 -0.063474
C96   C     C_R   0.039940 0.513481 0.157456 -0.070506
C97   C     C_R   0.376149 0.015790 0.781352 -0.094942
C98   C     C_R   0.623378 0.982766 0.218265 -0.094116
C99   C     C_R   0.875832 0.523198 0.780757 -0.088788
C100  C     C_R   0.128195 0.508981 0.222733 -0.088305
C101  C     C_R   0.512615 0.988785 0.968545 0.092410
C102  C     C_R   0.486847 0.009559 0.031040 0.093293
C103  C     C_R   0.018484 0.522200 0.972773 0.078290
C104  C     C_R   0.985805 0.523466 0.031277 0.091424
C105  C     C_R   0.412826 0.043176 0.967842 -0.138309
C106  C     C_R   0.586466 0.954951 0.031650 -0.136492
C107  C     C_R   0.904291 0.545846 0.963802 -0.143851
C108  C     C_R   0.104347 0.531025 0.045133 -0.158343
C109  C     C_R   0.353819 0.041530 0.845178 0.404607
C110  C     C_R   0.645450 0.956509 0.154419 0.403260
C111  C     C_R   0.848124 0.543796 0.841053 0.406772
C112  C     C_R   0.158255 0.512897 0.161233 0.428874
H9    H     H_    0.400695 0.072652 0.013358 0.179921
H10   H     H_    0.598374 0.925410 0.985877 0.180887
H11   H     H_    0.886017 0.571788 0.005479 0.174620
H12   H     H_    0.131080 0.556282 0.015489 0.187015
N5    N     N_R   0.345456 0.823235 0.872386 0.175375
O17   O     O_R   0.358900 0.881243 0.890925 -0.323052
O18   O     O_R   0.379514 0.792628 0.838013 -0.235379
N6    N     N_R   0.660057 0.172542 0.136633 0.173010
O19   O     O_R   0.622852 0.202850 0.166432 -0.234911
O20   O     O_R   0.649570 0.114190 0.121556 -0.326495
N7    N     N_R   0.587897 0.771748 0.052492 0.165854
O21   O     O_R   0.571461 0.825309 0.069571 -0.304643
O22   O     O_R   0.534841 0.727813 0.016531 -0.243762
N8    N     N_R   0.411916 0.225276 0.942552 0.165825
O23   O     O_R   0.466497 0.268225 0.979961 -0.244543
O24   O     O_R   0.426153 0.171579 0.922824 -0.306742
N9    N     N_R   0.850126 0.321406 0.874038 0.173729
O25   O     O_R   0.860751 0.379819 0.887177 -0.308715
O26   O     O_R   0.888371 0.289860 0.847252 -0.246742
N10   N     N_R   0.165784 0.666292 0.139018 0.114060
O27   O     O_R   0.089367 0.666608 0.099531 -0.259696
O28   O     O_R   0.221041 0.631267 0.226191 -0.328522
N11   N     N_R   0.116128 0.296502 0.084935 0.172593
O29   O     O_R   0.096236 0.353532 0.072974 -0.279506
O30   O     O_R   0.070878 0.256455 0.085245 -0.262145
N12   N     N_R   0.907077 0.723771 0.942263 0.167745
O31   O     O_R   0.964041 0.765239 0.982937 -0.239635
O32   O     O_R   0.913826 0.672038 0.907059 -0.304283
N13   N     N_R   0.368525 0.821025 0.476499 0.164005
O33   O     O_R   0.449821 0.818613 0.552041 -0.339172
O34   O     O_R   0.326656 0.823900 0.513218 -0.193355
N14   N     N_R   0.616330 0.186159 0.516358 0.157020
O35   O     O_R   0.535713 0.194265 0.444969 -0.337910
O36   O     O_R   0.653820 0.174480 0.474809 -0.201779
N15   N     N_R   0.666589 0.831045 0.549252 0.172894
O37   O     O_R   0.588218 0.822097 0.457912 -0.294827
O38   O     O_R   0.720466 0.839073 0.533931 -0.190680
N16   N     N_R   0.351131 0.176843 0.464108 0.167286
O39   O     O_R   0.430851 0.184230 0.551125 -0.302848
O40   O     O_R   0.301854 0.164008 0.485950 -0.197086
N17   N     N_R   0.887675 0.313811 0.489036 0.155731
O41   O     O_R   0.968896 0.310320 0.560930 -0.349459
O42   O     O_R   0.849213 0.323127 0.529834 -0.198815
N18   N     N_R   0.115265 0.685698 0.516190 0.159125
O43   O     O_R   0.034636 0.693723 0.444377 -0.336557
O44   O     O_R   0.152476 0.669990 0.475762 -0.210653
N19   N     N_R   0.165407 0.329971 0.546307 0.175643
O45   O     O_R   0.086125 0.322439 0.457185 -0.299447
O46   O     O_R   0.217629 0.334322 0.527110 -0.183076
N20   N     N_R   0.830551 0.667376 0.448360 0.173633
O47   O     O_R   0.908359 0.677951 0.539999 -0.288048
O48   O     O_R   0.776656 0.657256 0.462983 -0.193595
N21   N     N_R   0.207872 0.790830 0.642095 0.172716
O49   O     O_R   0.228338 0.781133 0.577352 -0.171369
O50   O     O_R   0.184899 0.844905 0.646239 -0.279861
N22   N     N_R   0.795271 0.208012 0.364812 0.170421
O51   O     O_R   0.822575 0.154597 0.366679 -0.280817
O52   O     O_R   0.767919 0.217100 0.421153 -0.173319
N23   N     N_R   0.693006 0.740826 0.280268 0.183552
O53   O     O_R   0.629133 0.711644 0.254682 -0.210492
O54   O     O_R   0.728911 0.781614 0.363094 -0.177690
N24   N     N_R   0.306523 0.258192 0.716158 0.184677
O55   O     O_R   0.271999 0.215762 0.636506 -0.179852
O56   O     O_R   0.369501 0.287855 0.739900 -0.210729
N25   N     N_R   0.713749 0.289230 0.645486 0.171174
O57   O     O_R   0.739915 0.279661 0.587744 -0.174275
O58   O     O_R   0.688270 0.343047 0.645567 -0.278945
N26   N     N_R   0.236157 0.738269 0.327594 0.196849
O59   O     O_R   0.283649 0.703985 0.419916 -0.203795
O60   O     O_R   0.162932 0.754325 0.291138 -0.203244
N27   N     N_R   0.236720 0.269661 0.317706 0.180354
O61   O     O_R   0.189799 0.250102 0.340066 -0.180786
O62   O     O_R   0.257941 0.326491 0.335115 -0.230483
N28   N     N_R   0.802766 0.756167 0.716118 0.188150
O63   O     O_R   0.767422 0.713605 0.636648 -0.179396
O64   O     O_R   0.866638 0.784646 0.740335 -0.207051
I1    I     I_    0.454536 0.822608 0.150524 0.013555
I2    I     I_    0.549597 0.170868 0.858378 0.008676
I3    I     I_    0.523806 0.804388 0.807427 0.003988
I4    I     I_    0.475687 0.186704 0.186542 -0.005965
I5    I     I_    0.958350 0.325876 0.151093 0.015294
I6    I     I_    0.042927 0.669900 0.849935 -0.053286
I7    I     I_    0.030840 0.296341 0.818734 0.053427
I8    I     I_    0.972687 0.691059 0.188104 0.008242
N29   N     N_R   0.276867 0.073835 0.789177 0.130772
O65   O     O_R   0.239875 0.072086 0.833333 -0.316046
O66   O     O_R   0.252395 0.113631 0.708865 -0.263859
N30   N     N_R   0.722151 0.923832 0.210560 0.131130
O67   O     O_R   0.758782 0.924539 0.165838 -0.316564
O68   O     O_R   0.746827 0.884788 0.292063 -0.261828
N31   N     N_R   0.766885 0.570073 0.781183 0.129042
O69   O     O_R   0.728092 0.562335 0.821806 -0.310308
O70   O     O_R   0.738845 0.610511 0.700434 -0.259192
N32   N     N_R   0.240751 0.494134 0.209839 0.146015
O71   O     O_R   0.282055 0.524678 0.187498 -0.282184
O72   O     O_R   0.265016 0.439360 0.250026 -0.258414
I9    I     I_    0.377714 0.994477 0.127474 -0.273295
I10   I     I_    0.622158 0.003920 0.872591 -0.273676
I11   I     I_    0.879230 0.490904 0.128515 -0.271512
I12   I     I_    0.121532 0.488022 0.867472 -0.275315
N33   N     N_R   0.709125 0.008336 0.526753 0.140283
O73   O     O_R   0.739924 0.062080 0.569096 -0.279256
O74   O     O_R   0.748904 0.961850 0.594609 -0.292095
N34   N     N_R   0.290832 0.995337 0.472223 0.139754
O75   O     O_R   0.258841 0.942470 0.425034 -0.285892
O76   O     O_R   0.251552 0.043270 0.408971 -0.288917
N35   N     N_R   0.207444 0.504464 0.530716 0.140726
O77   O     O_R   0.240508 0.555960 0.584871 -0.291312
O78   O     O_R   0.245708 0.454991 0.588190 -0.290503
N36   N     N_R   0.791357 0.488409 0.474805 0.141203
O79   O     O_R   0.762431 0.433905 0.436199 -0.274523
O80   O     O_R   0.750798 0.533584 0.403365 -0.291778
I13   I     I_    0.187334 0.993829 0.560843 0.149692
I14   I     I_    0.812359 0.005160 0.437805 0.152582
I15   I     I_    0.689535 0.487292 0.563946 0.163497
I16   I     I_    0.316565 0.524939 0.459521 0.169138

loop_
_geom_bond_atom_site_label_1
_geom_bond_atom_site_label_2
_geom_bond_distance
_ccdc_geom_bond_type
C100  C112  1.411230 A    
N20   O48   1.300555 A    
N23   O53   1.301043 A    
C68   C76   1.409465 A    
C47   C63   1.433659 A    
C17   C49   1.420940 A    
O2    C2    1.321026 A    
N31   O70   1.299413 A    
C54   C74   1.416048 A    
C34   H1    1.071867 S    
C76   N8    1.429808 S    
C88   N35   1.432019 S    
C53   C73   1.414917 A    
C23   C31   1.404723 A    
C108  H12   1.070568 S    
C102  C105  1.396828 A    
C18   C50   1.429296 A    
N9    O25   1.301450 A    
N17   O41   1.299079 A    
C86   N33   1.429743 S    
C55   C75   1.406149 A    
C103  C104  1.414259 A    
N11   O30   1.301020 A    
C5    C16   1.488987 S    
C43   C59   1.431635 A    
N13   O33   1.299008 A    
C6    C15   1.479418 S    
N23   O54   1.299208 A    
O11   C3    1.313796 A    
N10   O28   1.298963 A    
N36   O79   1.300398 A    
C62   C69   1.420483 A    
C81   I13   2.145940 S    
N3    C87   1.363044 A    
N10   O27   1.298877 A    
C95   C103  1.452649 A    
N4    C92   1.384765 A    
C60   C67   1.431199 A    
N5    O18   1.299997 A    
C59   C64   1.422871 A    
N24   O56   1.301102 A    
N17   O42   1.300022 A    
C11   C35   1.404369 A    
N7    O22   1.301296 A    
N12   O31   1.301446 A    
O11   Cu1   1.950102 S    
C109  N29   1.435089 S    
C46   C54   1.411944 A    
C42   C58   1.421569 A    
C45   C53   1.413068 A    
C42   C50   1.418669 A    
C15   C39   1.401465 A    
C111  N31   1.435439 S    
N21   O50   1.301064 A    
C69   C77   1.405519 A    
N16   O39   1.300825 A    
C59   C68   1.427428 A    
N36   O80   1.299618 A    
C66   C74   1.406573 A    
C39   C47   1.402095 A    
O5    Cu3   1.964569 S    
C33   C41   1.399359 A    
C38   C46   1.397945 A    
O6    Cu4   1.964568 S    
N18   O44   1.300559 A    
C41   C57   1.419309 A    
N22   O51   1.300877 A    
C35   C43   1.402614 A    
C74   N6    1.434126 S    
N31   O69   1.301627 A    
C36   C44   1.403274 A    
O13   Cu4   1.954227 S    
O3    C3    1.314694 A    
C64   C71   1.424934 A    
O14   Cu3   1.954226 S    
O16   Cu4   1.950100 S    
C84   I16   2.160684 S    
C92   C96   1.436619 A    
C39   H8    1.077102 S    
C71   I7    2.144285 S    
C24   C32   1.410307 A    
C65   I1    2.151860 S    
N20   O47   1.301073 A    
C56   C76   1.411193 A    
C101  C106  1.397063 A    
O16   C8    1.312888 A    
C11   C27   1.409340 A    
N33   O73   1.300372 A    
N8    O24   1.298330 A    
C82   C98   1.413176 A    
N2    C86   1.366881 A    
C89   I10   2.157197 S    
C107  C111  1.395433 A    
C104  C107  1.395302 A    
C44   C60   1.434630 A    
C96   C100  1.429534 A    
C21   C29   1.410913 A    
C91   I12   2.165643 S    
N9    O26   1.299762 A    
C70   I6    2.143713 S    
O9    Cu2   1.954227 S    
O4    Cu1   1.955872 S    
C90   I9    2.157131 S    
C79   N11   1.433560 S    
C4    C9    1.483622 S    
N13   O34   1.300449 A    
Cu4   N3    2.056489 S    
C23   C55   1.430046 A    
C103  C108  1.386841 A    
O10   C2    1.312921 A    
C17   N25   1.435749 S    
N32   O72   1.300686 A    
C22   C54   1.421522 A    
C27   N16   1.434209 S    
N34   O76   1.299970 A    
C80   N12   1.428989 S    
N19   O45   1.301130 A    
C48   C64   1.430802 A    
N35   O77   1.301266 A    
C21   N21   1.437447 S    
C106  C110  1.396351 A    
C25   N14   1.427153 S    
C37   C45   1.402609 A    
N11   O29   1.301420 A    
N4    C88   1.364503 A    
C72   C80   1.406179 A    
N24   O55   1.299142 A    
C83   C99   1.418303 A    
C34   C42   1.397555 A    
Cu1   Cu2   2.736107 S    
C19   C27   1.410176 A    
C51   C79   1.410804 A    
C35   H4    1.077668 S    
O7    Cu4   1.955874 S    
C84   C88   1.400011 A    
C83   C87   1.404416 A    
O12   Cu2   1.950100 S    
N18   O43   1.299413 A    
O15   Cu3   1.950102 S    
C32   N19   1.439800 S    
C67   I3    2.145187 S    
C90   C94   1.432024 A    
N27   O61   1.300762 A    
N19   O46   1.300810 A    
C14   C30   1.409968 A    
C89   C93   1.432352 A    
N29   O65   1.301617 A    
C63   C72   1.431517 A    
C46   C62   1.418560 A    
C101  C102  1.417686 A    
C10   C34   1.390169 A    
N28   O64   1.301183 A    
C65   C73   1.405180 A    
C84   C100  1.418649 A    
C33   H2    1.073165 S    
C7    C14   1.485522 S    
C107  H11   1.077036 S    
O12   C4    1.315646 A    
C68   I4    2.148610 S    
N25   O57   1.300431 A    
C26   N13   1.428927 S    
C112  N32   1.434577 S    
O2    Cu2   1.964568 S    
N26   O59   1.301677 A    
C92   I11   2.156157 S    
C82   I14   2.145560 S    
Cu2   N1    2.056489 S    
C94   C102  1.439894 A    
C82   C86   1.405572 A    
C40   H7    1.068891 S    
C81   C97   1.412168 A    
Cu1   N2    2.056488 S    
C22   C30   1.413834 A    
C81   C85   1.404484 A    
C73   N5    1.435315 S    
C58   C65   1.421881 A    
O9    C1    1.312964 A    
N14   O35   1.299565 A    
N6    O20   1.301188 A    
Cu3   N4    2.056488 S    
C77   N9    1.433751 S    
N33   O74   1.299554 A    
C15   C31   1.406453 A    
N8    O23   1.301156 A    
C1    C12   1.481225 S    
N1    C85   1.367089 A    
C47   C55   1.418430 A    
C61   C70   1.418823 A    
C17   C25   1.412038 A    
C87   N36   1.430001 S    
C91   C95   1.445223 A    
Cu3   Cu4   2.736107 S    
C99   C111  1.419940 A    
N34   O75   1.300233 A    
O10   Cu1   1.954226 S    
C60   C63   1.426953 A    
C52   C80   1.406260 A    
C85   N34   1.429838 S    
C105  H9    1.078220 S    
C22   N22   1.436331 S    
C20   C28   1.404644 A    
N3    C91   1.389173 A    
C105  C109  1.395247 A    
N32   O71   1.301831 A    
N25   O58   1.300607 A    
C13   C37   1.397655 A    
C20   C52   1.429960 A    
C20   N28   1.433088 S    
N30   O68   1.298592 A    
O1    C1    1.319066 A    
C10   C26   1.401963 A    
O3    Cu2   1.955874 S    
C108  C112  1.381321 A    
C36   H3    1.076636 S    
C69   I5    2.151662 S    
C16   C40   1.398991 A    
C31   N20   1.437797 S    
C16   C32   1.408512 A    
C57   C66   1.420228 A    
C67   C75   1.407214 A    
C78   N10   1.427194 S    
O1    Cu1   1.964569 S    
C48   C56   1.416772 A    
C66   I2    2.150002 S    
C24   N24   1.432928 S    
C93   C101  1.440065 A    
C8    C13   1.482073 S    
C110  N30   1.435005 S    
C19   N27   1.435029 S    
C38   H5    1.071361 S    
C18   N26   1.432071 S    
O14   C6    1.314017 A    
C95   C99   1.424593 A    
C96   C104  1.454687 A    
N29   O66   1.298668 A    
C83   I15   2.149880 S    
N5    O17   1.301278 A    
O13   C5    1.318943 A    
C23   N23   1.433730 S    
C30   N17   1.427591 S    
C58   C61   1.415921 A    
N1    C89   1.384570 A    
N28   O63   1.299359 A    
C12   C28   1.405982 A    
C29   N18   1.425985 S    
C9    C33   1.394508 A    
C57   C62   1.415409 A    
C106  H10   1.079082 S    
O7    C7    1.317495 A    
O15   C7    1.315961 A    
N30   O67   1.301544 A    
O8    C8    1.318899 A    
C12   C36   1.403590 A    
C37   H6    1.080047 S    
C75   N7    1.430862 S    
C41   C49   1.412556 A    
C44   C52   1.417811 A    
N21   O49   1.300420 A    
C98   C110  1.418660 A    
N16   O40   1.299595 A    
C18   C26   1.402454 A    
N27   O62   1.300087 A    
N35   O78   1.299142 A    
C40   C48   1.402702 A    
N26   O60   1.300316 A    
C21   C53   1.419587 A    
N15   O37   1.301003 A    
O4    C4    1.317017 A    
C93   C97   1.416857 A    
C97   C109  1.417956 A    
N6    O19   1.299848 A    
C72   I8    2.150312 S    
N22   O52   1.300573 A    
O5    C5    1.316949 A    
C9    C25   1.408635 A    
N7    O21   1.298704 A    
C14   C38   1.394145 A    
O8    Cu3   1.955872 S    
C94   C98   1.416208 A    
C45   C61   1.420803 A    
C2    C11   1.485657 S    
N12   O32   1.298077 A    
C24   C56   1.431119 A    
C71   C79   1.404638 A    
C3    C10   1.475398 S    
C13   C29   1.408398 A    
C43   C51   1.415337 A    
C70   C78   1.404539 A    
C28   N15   1.437957 S    
N2    C90   1.384870 A    
C50   C78   1.412426 A    
C49   C77   1.415307 A    
N14   O36   1.300050 A    
N15   O38   1.300436 A    
C19   C51   1.424646 A    
O6    C6    1.317135 A    
