data_mof_unit_64511.cif
_audit_creation_date              2013-03-05T16:25:34-0500
_audit_creation_method            fapswitch 2.2
_symmetry_space_group_name_H-M    P1
_symmetry_Int_Tables_number       1
_space_group_crystal_system       triclinic
_cell_length_a                    13.95511
_cell_length_b                    15.065084
_cell_length_c                    17.061999
_cell_angle_alpha                 88.270809
_cell_angle_beta                  94.706037
_cell_angle_gamma                 89.502284
_cell_volume                      3573.08265062

loop_
_atom_site_label
_atom_site_type_symbol
_atom_site_description
_atom_site_fract_x
_atom_site_fract_y
_atom_site_fract_z
_atom_type_partial_charge
O1    O     O_R   0.581430 0.371450 0.499990 -0.550203
O2    O     O_R   0.418570 0.628550 0.500010 -0.560502
O3    O     O_R   0.418560 0.371460 0.499990 -0.558816
O4    O     O_R   0.581440 0.628540 0.500010 -0.498579
C1    C     C_R   0.500245 0.330192 0.498554 0.867113
C2    C     C_R   0.500020 0.669902 0.502188 0.892217
O5    O     O_R   0.590350 0.499180 0.613920 -0.506642
O6    O     O_R   0.409650 0.500820 0.386080 -0.530065
O7    O     O_R   0.427480 0.499190 0.613920 -0.518963
O8    O     O_R   0.572520 0.500810 0.386080 -0.545244
C3    C     C_R   0.512490 0.502239 0.651028 0.961543
C4    C     C_R   0.487335 0.502834 0.349243 0.999420
Cu1   Cu    Cu3+1 0.596430 0.499990 0.500000 1.172634
Cu2   Cu    Cu3+1 0.403570 0.500010 0.500000 1.139808
C5    C     C_R   0.520380 0.510661 0.737404 -0.388695
C6    C     C_R   0.478548 0.507208 0.263149 -0.382037
C7    C     C_R   0.444872 0.549355 0.775742 0.148745
C8    C     C_R   0.537716 0.563929 0.221611 0.096018
C9    C     C_R   0.451246 0.550735 0.857857 0.580860
C10   C     C_R   0.532410 0.562106 0.139556 0.590777
C11   C     C_R   0.532827 0.515432 0.902798 0.042307
C12   C     C_R   0.468416 0.504449 0.098311 0.038505
C13   C     C_R   0.611007 0.482826 0.864748 0.128538
C14   C     C_R   0.406234 0.450735 0.139820 0.138352
C15   C     C_R   0.603963 0.480130 0.782413 0.553019
C16   C     C_R   0.412232 0.452275 0.222224 0.576178
N1    N     N_2   0.539450 0.514147 0.986184 -0.031337
N2    N     N_2   0.460940 0.503814 0.014986 -0.030855
C17   C     C_R   0.553646 0.095549 0.441489 0.293876
C18   C     C_R   0.573086 0.902814 0.556527 0.291673
C19   C     C_R   0.551007 0.189131 0.439634 0.260163
C20   C     C_R   0.570143 0.809333 0.557442 0.256354
C21   C     C_R   0.501071 0.233694 0.495881 -0.155989
C22   C     C_R   0.500803 0.766513 0.506968 -0.149267
C23   C     C_R   0.454212 0.185758 0.552516 -0.158451
C24   C     C_R   0.434890 0.816550 0.457325 -0.124804
H1    H     H_    0.416062 0.219816 0.595799 0.203727
H2    H     H_    0.382145 0.784475 0.418069 0.227693
C25   C     C_R   0.458648 0.093763 0.555410 -0.111453
C26   C     C_R   0.438940 0.908459 0.455332 -0.117657
H3    H     H_    0.422845 0.057421 0.600156 0.198703
H4    H     H_    0.388299 0.946266 0.415600 0.200446
C27   C     C_R   0.508245 0.048607 0.500666 -0.028741
C28   C     C_R   0.507827 0.951667 0.503993 -0.033392
C29   C     C_R   0.099194 0.532192 0.437044 0.526870
C30   C     C_R   0.897881 0.427698 0.524532 0.532869
C31   C     C_R   0.200187 0.533854 0.436920 0.291019
C32   C     C_R   0.797039 0.427181 0.526333 0.291305
N3    N     N_R   0.258690 0.500020 0.500000 -0.335748
N4    N     N_R   0.741310 0.499980 0.500000 -0.341573
C33   C     C_R   0.216547 0.465603 0.564010 0.670935
C34   C     C_R   0.786850 0.574031 0.473086 0.685727
C35   C     C_R   0.115795 0.471622 0.569762 0.144409
C36   C     C_R   0.888632 0.580249 0.478368 0.147191
C37   C     C_R   0.054979 0.504172 0.504318 -0.122266
C38   C     C_R   0.946021 0.504993 0.503446 -0.120993
N5    N     N_R   0.599942 0.626508 0.261777 0.213164
O9    O     O_R   0.685908 0.640182 0.239957 -0.146628
O10   O     O_R   0.567505 0.676490 0.314824 -0.290961
N6    N     N_R   0.363962 0.592189 0.732199 0.213675
O11   O     O_R   0.377703 0.654936 0.680343 -0.305536
O12   O     O_R   0.277185 0.577430 0.751721 -0.172577
N7    N     N_R   0.239821 0.572732 0.369582 0.202218
O13   O     O_R   0.215281 0.542783 0.300138 -0.197064
O14   O     O_R   0.281732 0.649205 0.375053 -0.326641
N8    N     N_R   0.755042 0.348904 0.557407 0.195984
O15   O     O_R   0.717284 0.351183 0.624415 -0.212755
O16   O     O_R   0.772488 0.272210 0.528168 -0.212682
F1    F     F_    0.271811 0.425580 0.624021 -0.574504
F2    F     F_    0.734413 0.644084 0.441368 -0.535259
N9    N     N_R   0.077125 0.447565 0.643005 0.231904
O17   O     O_R   0.010982 0.496785 0.670063 -0.237800
O18   O     O_R   0.112631 0.380360 0.685896 -0.152560
N10   N     N_R   0.932152 0.663991 0.460798 0.226658
O19   O     O_R   0.004644 0.692116 0.505861 -0.264477
O20   O     O_R   0.895500 0.715447 0.403188 -0.132847
F3    F     F_    0.585638 0.620515 0.099657 -0.513850
F4    F     F_    0.379894 0.591141 0.893697 -0.519686
N11   N     N_R   0.697110 0.450688 0.909490 0.210534
O21   O     O_R   0.746410 0.384944 0.884742 -0.159388
O22   O     O_R   0.728841 0.488872 0.973800 -0.199006
N12   N     N_R   0.338404 0.393137 0.098943 0.216669
O23   O     O_R   0.256896 0.375070 0.127502 -0.154761
O24   O     O_R   0.358847 0.355686 0.034529 -0.236907
F5    F     F_    0.679827 0.448720 0.746408 -0.520912
F6    F     F_    0.357144 0.396363 0.262998 -0.544102
N13   N     N_R   0.598858 0.048627 0.381992 0.165074
O25   O     O_R   0.658461 0.983197 0.401266 -0.221394
O26   O     O_R   0.578934 0.070063 0.307965 -0.214097
N14   N     N_R   0.640048 0.947606 0.610044 0.162969
O27   O     O_R   0.691213 0.012888 0.585232 -0.226369
O28   O     O_R   0.649468 0.923716 0.684225 -0.214815
N15   N     N_R   0.598326 0.238392 0.380833 0.158568
O29   O     O_R   0.552050 0.300231 0.337938 -0.330323
O30   O     O_R   0.686508 0.219070 0.367632 -0.197303
N16   N     N_R   0.637730 0.758364 0.608947 0.166736
O31   O     O_R   0.729532 0.772333 0.608103 -0.196335
O32   O     O_R   0.607568 0.699414 0.658219 -0.323694
F7    F     F_    0.044347 0.559630 0.371135 -0.535757
F8    F     F_    0.948982 0.352174 0.545084 -0.539887

loop_
_geom_bond_atom_site_label_1
_geom_bond_atom_site_label_2
_geom_bond_distance
_ccdc_geom_bond_type
N8    O16   1.301137 A    
N13   O25   1.301104 A    
N7    O14   1.298955 A    
N15   O29   1.300544 A    
C18   N14   1.438909 S    
N5    O9    1.301221 A    
C31   N3    1.378472 A    
O5    C3    1.302814 A    
N10   O20   1.301272 A    
C10   F3    1.359286 S    
O1    C1    1.295792 A    
C23   H1    1.083842 S    
C14   C16   1.402497 A    
C31   N7    1.427688 S    
N5    O10   1.301349 A    
Cu2   N3    2.021815 S    
N6    O12   1.301242 A    
C29   C31   1.409977 A    
O4    Cu1   1.946079 S    
C14   N12   1.441467 S    
C21   C23   1.397371 A    
C36   N10   1.438977 S    
C3    C5    1.478191 S    
C4    C6    1.463425 S    
N3    C33   1.372579 A    
C1    C21   1.455814 S    
N4    C34   1.374256 A    
C19   C21   1.413443 A    
C8    C10   1.397001 A    
C16   F6    1.359453 S    
C26   H4    1.083736 S    
N8    O15   1.298780 A    
C11   N1    1.417674 S    
N15   O30   1.301169 A    
C12   N2    1.417287 S    
Cu1   Cu2   2.691379 S    
C17   C27   1.410890 A    
C18   C28   1.410323 A    
O2    C2    1.299313 A    
C34   C36   1.419929 A    
C30   C32   1.410197 A    
C35   C37   1.418376 A    
C6    C16   1.403932 A    
C36   C38   1.417237 A    
N10   O19   1.301381 A    
C24   C26   1.385770 A    
O4    C2    1.294869 A    
C29   F7    1.358863 S    
N9    O18   1.301228 A    
O7    Cu2   1.944615 S    
C25   C27   1.396609 A    
C19   N15   1.437233 S    
N11   O21   1.301415 A    
N16   O32   1.300814 A    
N6    O11   1.301412 A    
C33   C35   1.419743 A    
C20   C22   1.414832 A    
C9    F4    1.359334 S    
C23   C25   1.385980 A    
C27   C28   1.459888 S    
C8    N5    1.438074 S    
N14   O28   1.301213 A    
O5    Cu1   1.952172 S    
O6    C4    1.297087 A    
N16   O31   1.301248 A    
C37   C38   1.519307 S    
C15   F5    1.355617 S    
O7    C3    1.299920 A    
C29   C37   1.402817 A    
O3    Cu2   1.946079 S    
O8    C4    1.297980 A    
C20   N16   1.436009 S    
C10   C12   1.412260 A    
N12   O24   1.301403 A    
C11   C13   1.406847 A    
C12   C14   1.409913 A    
O1    Cu1   1.949559 S    
C35   N9    1.439084 S    
N11   O22   1.301435 A    
C5    C7    1.415427 A    
C30   F8    1.358984 S    
O6    Cu2   1.952174 S    
C9    C11   1.410161 A    
O3    C1    1.296047 A    
O8    Cu1   1.944617 S    
C13   N11   1.441534 S    
C24   H2    1.081071 S    
N9    O17   1.301393 A    
C17   C19   1.409310 A    
C18   C20   1.408907 A    
N14   O27   1.301131 A    
C32   N4    1.381169 A    
Cu1   N4    2.021815 S    
C7    C9    1.397364 A    
C22   C24   1.397609 A    
C13   C15   1.402014 A    
O2    Cu2   1.949557 S    
C17   N13   1.438383 S    
C34   F2    1.352496 S    
C7    N6    1.436672 S    
N7    O13   1.301189 A    
C2    C22   1.460284 S    
C26   C28   1.396319 A    
C25   H3    1.083679 S    
C5    C15   1.408618 A    
C6    C8    1.409263 A    
N12   O23   1.301410 A    
C30   C38   1.401665 A    
N1    N2    1.246117 D    
N13   O26   1.301197 A    
C33   F1    1.353459 S    
C32   N8    1.428441 S    
