data_mof_unit_64440.cif
_audit_creation_date              2013-03-05T16:38:52-0500
_audit_creation_method            fapswitch 2.2
_symmetry_space_group_name_H-M    P1
_symmetry_Int_Tables_number       1
_space_group_crystal_system       triclinic
_cell_length_a                    19.313779
_cell_length_b                    18.417747
_cell_length_c                    23.472423
_cell_angle_alpha                 89.988862
_cell_angle_beta                  90.157797
_cell_angle_gamma                 89.987338
_cell_volume                      8349.49132183

loop_
_atom_site_label
_atom_site_type_symbol
_atom_site_description
_atom_site_fract_x
_atom_site_fract_y
_atom_site_fract_z
_atom_type_partial_charge
O1    O     O_R   0.398180 0.560840 0.499980 -0.572255
O2    O     O_R   0.601820 0.439160 0.500020 -0.574380
O3    O     O_R   0.601820 0.560840 0.500020 -0.576403
O4    O     O_R   0.398180 0.439160 0.499980 -0.578174
C1    C     C_R   0.365595 0.500009 0.499923 0.963249
C2    C     C_R   0.634406 0.499991 0.500073 0.963169
O5    O     O_R   0.499980 0.560830 0.416150 -0.647212
O6    O     O_R   0.500020 0.439170 0.583850 -0.572742
O7    O     O_R   0.500020 0.560830 0.583850 -0.624831
O8    O     O_R   0.499980 0.439170 0.416150 -0.551069
C3    C     C_R   0.499968 0.499992 0.389121 0.956822
C4    C     C_R   0.500104 0.499985 0.610879 0.957551
Zn1   Zn    Zn3+2 0.500000 0.581210 0.500000 1.016596
Zn2   Zn    Zn3+2 0.500000 0.418790 0.500000 1.071697
C5    C     C_R   0.560989 0.492858 0.880418 0.572200
C6    C     C_R   0.442464 0.519552 0.119597 0.599861
N1    N     N_R   0.500522 0.505715 0.852323 -0.323042
N2    N     N_R   0.502710 0.505609 0.147698 -0.323105
C7    C     C_R   0.439947 0.519593 0.880042 0.594017
C8    C     C_R   0.563453 0.492554 0.119991 0.566630
C9    C     C_R   0.438140 0.521020 0.940196 -0.041248
C10   C     C_R   0.565572 0.492622 0.059831 -0.036229
C11   C     C_R   0.501052 0.507095 0.969985 -0.045493
C12   C     C_R   0.502718 0.506825 0.030038 -0.045871
C13   C     C_R   0.562512 0.493159 0.939758 -0.065274
C14   C     C_R   0.441219 0.520579 0.060261 -0.070618
C15   C     C_R   0.376683 0.535388 0.971704 0.158136
C16   C     C_R   0.627198 0.479083 0.028319 0.158811
C17   C     C_R   0.379465 0.534827 0.031133 -0.121460
C18   C     C_R   0.624413 0.479635 0.968888 -0.124262
O9    O     O_2   0.619474 0.479933 0.850669 -0.534314
O10   O     O_2   0.383867 0.531960 0.149333 -0.528215
O11   O     O_2   0.382315 0.531333 0.848866 -0.540355
O12   O     O_2   0.620879 0.479848 0.151191 -0.546176
H1    H     H_    0.332582 0.545555 0.054973 0.196353
H2    H     H_    0.671345 0.469146 0.945047 0.196516
C19   C     C_R   0.501091 0.437331 0.236467 -0.272009
C20   C     C_R   0.500613 0.437370 0.763573 -0.271929
H3    H     H_    0.500925 0.387203 0.212346 0.200494
H4    H     H_    0.500638 0.387248 0.787717 0.200161
C21   C     C_R   0.500240 0.435168 0.295591 0.658180
C22   C     C_R   0.500490 0.435180 0.704443 0.639750
C23   C     C_R   0.500383 0.500476 0.326846 -0.278913
C24   C     C_R   0.500305 0.500476 0.673156 -0.279625
C25   C     C_R   0.501263 0.567317 0.297940 -0.374567
C26   C     C_R   0.500375 0.567332 0.702035 -0.351278
H5    H     H_    0.501428 0.618308 0.320928 0.223571
H6    H     H_    0.500362 0.618318 0.679024 0.227442
C27   C     C_R   0.502111 0.569065 0.238864 0.731465
C28   C     C_R   0.500503 0.569108 0.761113 0.731652
C29   C     C_R   0.502030 0.504059 0.208269 0.090314
C30   C     C_R   0.500556 0.504115 0.791746 0.089326
C31   C     C_R   0.745927 0.439620 0.478734 0.587149
C32   C     C_R   0.253981 0.439743 0.478292 0.585042
C33   C     C_R   0.254064 0.560357 0.521262 0.584689
C34   C     C_R   0.746033 0.560271 0.521640 0.583042
C35   C     C_R   0.817645 0.439886 0.478796 -0.238834
C36   C     C_R   0.182260 0.440001 0.478318 -0.235830
C37   C     C_R   0.182346 0.560088 0.521179 -0.238197
C38   C     C_R   0.817754 0.560009 0.521593 -0.235187
H7    H     H_    0.845688 0.393619 0.462093 0.198489
H8    H     H_    0.154140 0.393738 0.461591 0.199205
H9    H     H_    0.154294 0.606338 0.537902 0.198312
H10   H     H_    0.845883 0.606285 0.538289 0.199216
C39   C     C_R   0.853106 0.499960 0.500177 -0.072382
C40   C     C_R   0.146896 0.500030 0.499758 -0.072265
C41   C     C_R   0.709632 0.499961 0.500153 -0.341083
C42   C     C_R   0.290370 0.500036 0.499823 -0.340449
C43   C     C_R   0.963360 0.528294 0.452290 0.135981
C44   C     C_R   0.036642 0.471675 0.547635 0.136191
C45   C     C_R   0.036097 0.528280 0.452173 0.133996
C46   C     C_R   0.963905 0.471698 0.547756 0.133856
C47   C     C_R   0.071902 0.499973 0.499847 0.062615
C48   C     C_R   0.928100 0.500004 0.500082 0.062640
C49   C     C_R   0.542240 0.725923 0.536613 -0.060803
C50   C     C_R   0.457727 0.274075 0.463414 -0.014034
C51   C     C_R   0.457739 0.725968 0.463409 -0.070181
C52   C     C_R   0.542296 0.274034 0.536565 -0.024720
H11   H     H_    0.575593 0.695768 0.565187 0.213390
H12   H     H_    0.424344 0.304228 0.434863 0.228970
H13   H     H_    0.424356 0.695845 0.434856 0.185280
H14   H     H_    0.575707 0.304158 0.565094 0.202583
C53   C     C_R   0.543110 0.802075 0.537411 0.517915
C54   C     C_R   0.456864 0.197925 0.462612 0.518148
C55   C     C_R   0.456874 0.802120 0.462617 0.519443
C56   C     C_R   0.543157 0.197883 0.537361 0.520156
C57   C     C_R   0.499998 0.841483 0.500012 -0.196188
C58   C     C_R   0.500006 0.158520 0.499989 -0.207666
N3    N     N_R   0.500000 0.689440 0.500000 -0.166689
N4    N     N_R   0.500000 0.310560 0.500000 -0.175818
C59   C     C_R   0.505491 0.961906 0.448729 -0.100776
C60   C     C_R   0.494517 0.038099 0.551273 -0.097934
C61   C     C_R   0.494517 0.961897 0.551279 -0.096092
C62   C     C_R   0.505488 0.038108 0.448723 -0.093251
H15   H     H_    0.510756 0.933476 0.408597 0.187840
H16   H     H_    0.489256 0.066531 0.591404 0.189847
H17   H     H_    0.489251 0.933459 0.591416 0.189305
H18   H     H_    0.510750 0.066548 0.408586 0.191274
C63   C     C_R   0.500002 0.077239 0.499994 0.196168
C64   C     C_R   0.500004 0.922765 0.500007 0.193820
C65   C     C_3   0.307338 0.551549 0.944463 -0.725012
H19   H     H_    0.289977 0.504416 0.918651 0.264586
H20   H     H_    0.266355 0.561919 0.976570 0.212536
H21   H     H_    0.311035 0.601082 0.917687 0.277877
C66   C     C_3   0.696707 0.463723 0.055561 -0.728248
H22   H     H_    0.693787 0.413603 0.081722 0.267932
H23   H     H_    0.737995 0.454802 0.023452 0.212363
H24   H     H_    0.713126 0.510671 0.081992 0.273326
F1    F     F_    0.587043 0.836793 0.573476 -0.617343
F2    F     F_    0.412908 0.163203 0.426568 -0.611973
F3    F     F_    0.412934 0.836886 0.426565 -0.624749
F4    F     F_    0.587122 0.163117 0.573395 -0.618959
F5    F     F_    0.499279 0.369418 0.321742 -0.616972
F6    F     F_    0.500533 0.369419 0.678315 -0.629109
F7    F     F_    0.503269 0.633798 0.211261 -0.619092
F8    F     F_    0.500795 0.633861 0.788688 -0.616098
F9    F     F_    0.712345 0.381193 0.456719 -0.616374
F10   F     F_    0.287468 0.381358 0.456240 -0.627228
F11   F     F_    0.287636 0.618765 0.543318 -0.621533
F12   F     F_    0.712559 0.618679 0.543669 -0.629852
C67   C     C_3   0.924348 0.558645 0.401104 -0.815146
H25   H     H_    0.938036 0.527432 0.362296 0.246689
H26   H     H_    0.867289 0.556347 0.404943 0.249186
H27   H     H_    0.938129 0.616587 0.394842 0.247523
C68   C     C_3   0.075653 0.441309 0.598816 -0.815525
H28   H     H_    0.061849 0.383374 0.605082 0.247490
H29   H     H_    0.132712 0.443576 0.594967 0.249479
H30   H     H_    0.061988 0.472531 0.637625 0.246528
C69   C     C_3   0.074524 0.558630 0.400870 -0.810415
H31   H     H_    0.060677 0.616582 0.394667 0.248083
H32   H     H_    0.131626 0.556296 0.404526 0.249660
H33   H     H_    0.060392 0.527440 0.362099 0.246490
C70   C     C_3   0.925478 0.441362 0.599064 -0.809709
H34   H     H_    0.939632 0.472543 0.637834 0.246553
H35   H     H_    0.868376 0.443723 0.595418 0.250034
H36   H     H_    0.939304 0.383404 0.605263 0.247907

loop_
_geom_bond_atom_site_label_1
_geom_bond_atom_site_label_2
_geom_bond_distance
_ccdc_geom_bond_type
C36   H8    1.083642 S    
C53   C57   1.409331 A    
C65   H19   1.110092 S    
C33   C37   1.385148 A    
C15   C17   1.395852 A    
C21   C23   1.409028 A    
O3    C2    1.285211 A    
C50   C54   1.402751 A    
C33   C42   1.407479 A    
C33   F11   1.358071 S    
C52   N4    1.360942 A    
O5    C3    1.287746 A    
C66   H23   1.110961 S    
C51   N3    1.360947 A    
O1    C1    1.285153 A    
C7    C9    1.412723 A    
C12   C14   1.408134 A    
C20   C22   1.388528 A    
C37   C40   1.394193 A    
C19   C29   1.395900 A    
C31   F9    1.358072 S    
C5    C13   1.393114 A    
C32   C42   1.407497 A    
C62   H18   1.082863 S    
C60   H16   1.082861 S    
C43   C45   1.404844 A    
O7    Zn1   2.003563 S    
Zn2   N4    1.993351 S    
C67   H27   1.109758 S    
C36   C40   1.394227 A    
C24   C26   1.405697 A    
C27   C29   1.396254 A    
C68   H30   1.109761 S    
C28   C30   1.396253 A    
C11   C12   1.409876 A    
C53   F1    1.357182 S    
C3    C23   1.461819 S    
C25   C27   1.387152 A    
C59   C64   1.407134 A    
N2    C8    1.364287 A    
O3    Zn1   2.001912 S    
C69   H33   1.109759 S    
C8    O12   1.347784 S    
C52   C56   1.402754 A    
C55   C57   1.409318 A    
C9    C15   1.425019 A    
C51   C55   1.402768 A    
C65   H20   1.110960 S    
C10   C16   1.425029 A    
O4    Zn2   2.001915 S    
C34   F12   1.358056 S    
O2    C2    1.285151 A    
C22   C24   1.408979 A    
C1    C42   1.452876 S    
O2    Zn2   2.002074 S    
N1    C30   1.422199 S    
C22   F6    1.357694 S    
N2    C29   1.422119 S    
C25   H5    1.083207 S    
C6    C14   1.393026 A    
C66   H24   1.110126 S    
C26   H6    1.083211 S    
C56   C58   1.409306 A    
C54   C58   1.409320 A    
C46   C48   1.413361 A    
C7    O11   1.347797 S    
C35   C39   1.394186 A    
C45   C47   1.413359 A    
C31   C35   1.385142 A    
C40   C47   1.448425 S    
C15   C65   1.512021 S    
C54   F2    1.357182 S    
C39   C48   1.448424 S    
C34   C38   1.385212 A    
C56   F4    1.357184 S    
C45   C69   1.522573 S    
C52   H14   1.081934 S    
C43   C67   1.522584 S    
C16   C66   1.512011 S    
O6    C4    1.287386 A    
C44   C47   1.413427 A    
C43   C48   1.413424 A    
C5    O9    1.350720 S    
C23   C25   1.405675 A    
C61   C64   1.407125 A    
C67   H25   1.109767 S    
C70   H36   1.109756 S    
C44   C68   1.522585 S    
C2    C41   1.452894 S    
C27   F7    1.357017 S    
C8    C10   1.412814 A    
C38   C39   1.394227 A    
C65   H21   1.110159 S    
C9    C11   1.423446 A    
O8    Zn2   2.003563 S    
C70   H34   1.109761 S    
C10   C12   1.423468 A    
O1    Zn1   2.002078 S    
C61   H17   1.082858 S    
C68   H29   1.106768 S    
C57   C64   1.497048 S    
C32   C36   1.385212 A    
C13   C18   1.397930 A    
C5    N1    1.360287 A    
C17   H1    1.083909 S    
O6    Zn2   2.003706 S    
Zn1   N3    1.993351 S    
C50   H12   1.081911 S    
C21   F5    1.357700 S    
O4    C1    1.285197 A    
C55   F3    1.357186 S    
C35   H7    1.083648 S    
C6    O10   1.350735 S    
C34   C41   1.407499 A    
C66   H22   1.110121 S    
C26   C28   1.387103 A    
C37   H9    1.083649 S    
C18   H2    1.083907 S    
C38   H10   1.083643 S    
C32   F10   1.358055 S    
C69   H31   1.109756 S    
C19   H3    1.083120 S    
C59   C62   1.403469 A    
C20   H4    1.083111 S    
C49   C53   1.402768 A    
C46   C70   1.522577 S    
C68   H28   1.109756 S    
C62   C63   1.407111 A    
C16   C18   1.395913 A    
C60   C61   1.403469 A    
N1    C7    1.364390 A    
C28   F8    1.357031 S    
C11   C13   1.408138 A    
C19   C21   1.388486 A    
C31   C41   1.407496 A    
O7    C4    1.287637 A    
C67   H26   1.106771 S    
C58   C63   1.497017 S    
O8    C3    1.287279 A    
C49   N3    1.360973 A    
C59   H15   1.082858 S    
O5    Zn1   2.003706 S    
C20   C30   1.395988 A    
C14   C17   1.397906 A    
C6    N2    1.360325 A    
C51   H13   1.081943 S    
C70   H35   1.106774 S    
C4    C24   1.461821 S    
C44   C46   1.404841 A    
C49   H11   1.081920 S    
C60   C63   1.407124 A    
C50   N4    1.360969 A    
C69   H32   1.106776 S    
