data_mof_unit_53217.cif
_audit_creation_date              2013-03-05T15:48:36-0500
_audit_creation_method            fapswitch 2.2
_symmetry_space_group_name_H-M    P1
_symmetry_Int_Tables_number       1
_space_group_crystal_system       triclinic
_cell_length_a                    16.59306
_cell_length_b                    16.58337
_cell_length_c                    43.249887
_cell_angle_alpha                 89.645847
_cell_angle_beta                  90.255946
_cell_angle_gamma                 119.704762
_cell_volume                      10336.9015181

loop_
_atom_site_label
_atom_site_type_symbol
_atom_site_description
_atom_site_fract_x
_atom_site_fract_y
_atom_site_fract_z
_atom_type_partial_charge
O1    O     O_R   0.509640 0.171340 0.784000 -0.496372
O2    O     O_R   0.661700 0.490360 0.716000 -0.506772
O3    O     O_R   0.828660 0.338300 0.784000 -0.503510
O4    O     O_R   0.509640 0.171340 0.716000 -0.508499
O5    O     O_R   0.661700 0.490360 0.784000 -0.498733
O6    O     O_R   0.828660 0.338300 0.716000 -0.506414
O7    O     O_R   0.171340 0.509640 0.284000 -0.508142
O8    O     O_R   0.490360 0.661700 0.216000 -0.513536
O9    O     O_R   0.338300 0.828660 0.284000 -0.506350
O10   O     O_R   0.171340 0.509640 0.216000 -0.497894
O11   O     O_R   0.490360 0.661700 0.284000 -0.508378
O12   O     O_R   0.338300 0.828660 0.216000 -0.498850
O13   O     O_R   0.539230 0.345420 0.781810 -0.489495
O14   O     O_R   0.806190 0.460770 0.718190 -0.494432
O15   O     O_R   0.654580 0.193810 0.781810 -0.494688
O16   O     O_R   0.539230 0.345420 0.718190 -0.494502
O17   O     O_R   0.806190 0.460770 0.781810 -0.493609
O18   O     O_R   0.654580 0.193810 0.718190 -0.494032
O19   O     O_R   0.345420 0.539230 0.281810 -0.493139
O20   O     O_R   0.460770 0.806190 0.218190 -0.496439
O21   O     O_R   0.193810 0.654580 0.281810 -0.494705
O22   O     O_R   0.345420 0.539230 0.218190 -0.501494
O23   O     O_R   0.460770 0.806190 0.281810 -0.489032
O24   O     O_R   0.193810 0.654580 0.218190 -0.516802
C1    C     C_R   0.584146 0.426031 0.794422 0.534141
C2    C     C_R   0.841392 0.415847 0.705361 0.532653
C3    C     C_R   0.573499 0.156664 0.794287 0.535458
C4    C     C_R   0.584339 0.425839 0.705391 0.531571
C5    C     C_R   0.842917 0.416215 0.794332 0.533478
C6    C     C_R   0.574405 0.158769 0.705357 0.531564
C7    C     C_R   0.425929 0.583952 0.294548 0.538516
C8    C     C_R   0.391717 0.803466 0.202357 0.559692
C9    C     C_R   0.158262 0.574122 0.294586 0.539926
C10   C     C_R   0.425805 0.584838 0.205249 0.530530
C11   C     C_R   0.415925 0.841665 0.294597 0.547346
C12   C     C_R   0.159454 0.574801 0.205114 0.531507
Cr1   Cr    Cr6+3 0.530290 0.262330 0.750000 1.033723
Cr2   Cr    Cr6+3 0.732040 0.469710 0.750000 1.031168
Cr3   Cr    Cr6+3 0.737670 0.267960 0.750000 1.031700
Cr4   Cr    Cr6+3 0.262330 0.530290 0.250000 1.022594
Cr5   Cr    Cr6+3 0.469710 0.732040 0.250000 1.024855
Cr6   Cr    Cr6+3 0.267960 0.737670 0.250000 1.023148
O25   O     O_3   0.666667 0.333333 0.750000 -0.246790
O26   O     O_3   0.333333 0.666667 0.250000 -0.259821
H1    H     H_    0.029422 0.332372 0.969153 0.151162
H2    H     H_    0.318344 0.010468 0.527010 0.147981
H3    H     H_    0.726855 0.624028 0.979881 0.163019
H4    H     H_    0.988374 0.307329 0.527683 0.147889
H5    H     H_    0.370335 0.082996 0.976672 0.160210
H6    H     H_    0.691262 0.681481 0.527111 0.147988
H7    H     H_    0.303752 0.981540 0.472402 0.145164
H8    H     H_    0.055190 0.345842 0.024195 0.156518
H9    H     H_    0.678739 0.694515 0.472216 0.145149
H10   H     H_    0.346152 0.038673 0.030477 0.153342
H11   H     H_    0.016410 0.320789 0.472994 0.144927
H12   H     H_    0.710763 0.627184 0.035205 0.147853
C13   C     C_R   0.885986 0.444770 0.824900 0.015680
C14   C     C_R   0.564862 0.121703 0.674081 0.010586
C15   C     C_R   0.563564 0.433877 0.826602 0.033209
C16   C     C_R   0.878259 0.443712 0.674041 0.010309
C17   C     C_R   0.558305 0.110047 0.824381 0.027284
C18   C     C_R   0.556471 0.435782 0.674130 0.010521
C19   C     C_R   0.446911 0.884377 0.325126 0.005447
C20   C     C_R   0.135070 0.569116 0.172337 0.012015
C21   C     C_R   0.438362 0.552244 0.324967 0.005964
C22   C     C_R   0.401911 0.820180 0.168670 0.004561
C23   C     C_R   0.114950 0.561790 0.325041 0.005831
C24   C     C_R   0.439349 0.557743 0.174237 0.004911
C25   C     C_R   0.066884 0.630048 0.027497 0.028060
C26   C     C_R   0.590355 0.999248 0.466180 0.021872
C27   C     C_R   0.396163 0.420560 0.031650 0.028749
C28   C     C_R   0.997697 0.589437 0.465531 0.022021
C29   C     C_R   0.467066 0.842338 0.019759 0.026434
C30   C     C_R   0.411018 0.408774 0.465950 0.022015
C31   C     C_R   0.599824 0.016217 0.532298 0.021195
C32   C     C_R   0.036734 0.613451 0.962438 0.024690
C33   C     C_R   0.416388 0.401303 0.532149 0.021350
C34   C     C_R   0.487672 0.888380 0.955554 0.019569
C35   C     C_R   0.981496 0.582723 0.531651 0.021264
C36   C     C_R   0.416465 0.410138 0.966798 0.021343
C37   C     C_R   0.086764 0.636630 0.059738 0.405692
C38   C     C_R   0.580983 0.992849 0.433244 0.410182
C39   C     C_R   0.387553 0.436937 0.063338 0.413912
C40   C     C_R   0.003500 0.585972 0.432620 0.409995
C41   C     C_R   0.450389 0.817744 0.051614 0.408311
C42   C     C_R   0.415108 0.417059 0.432999 0.409914
C43   C     C_R   0.602568 0.031239 0.564937 0.412571
C44   C     C_R   0.005523 0.595058 0.931266 0.410426
C45   C     C_R   0.427897 0.399080 0.564876 0.412540
C46   C     C_R   0.508602 0.923102 0.924678 0.407141
C47   C     C_R   0.966487 0.570728 0.564316 0.412638
C48   C     C_R   0.432399 0.400235 0.935159 0.411041
O27   O     O_2   0.107764 0.708236 0.073597 -0.558265
O28   O     O_2   0.646210 0.006759 0.416869 -0.545059
O29   O     O_2   0.310792 0.405128 0.074954 -0.531328
O30   O     O_2   0.988623 0.636751 0.415999 -0.544571
O31   O     O_2   0.461339 0.755257 0.062025 -0.551203
O32   O     O_2   0.364984 0.351287 0.416695 -0.544332
O33   O     O_2   0.665885 0.036106 0.580655 -0.548956
O34   O     O_2   0.984261 0.646713 0.917795 -0.529197
O35   O     O_2   0.369435 0.336217 0.580562 -0.549018
O36   O     O_2   0.548144 0.896602 0.907208 -0.533912
O37   O     O_2   0.960725 0.628919 0.579697 -0.549220
O38   O     O_2   0.371788 0.338389 0.919725 -0.527534
N1    N     N_R   0.086240 0.563628 0.075575 -0.380973
N2    N     N_R   0.498023 0.971474 0.419026 -0.375754
N3    N     N_R   0.465303 0.492808 0.080918 -0.376510
N4    N     N_R   0.025418 0.524520 0.418708 -0.375717
N5    N     N_R   0.418758 0.861931 0.071030 -0.378545
N6    N     N_R   0.476361 0.499674 0.418686 -0.375968
N7    N     N_R   0.534521 0.042106 0.579508 -0.378131
N8    N     N_R   0.994038 0.516190 0.916479 -0.380814
N9    N     N_R   0.506235 0.466974 0.579577 -0.378560
N10   N     N_R   0.488827 0.990616 0.914491 -0.387076
N11   N     N_R   0.956512 0.492332 0.579282 -0.378342
N12   N     N_R   0.517571 0.457754 0.921753 -0.389377
C49   C     C_R   0.071489 0.484829 0.060158 0.429990
C50   C     C_R   0.426094 0.968108 0.435750 0.419232
C51   C     C_R   0.552452 0.535486 0.067692 0.415397
C52   C     C_R   0.029145 0.456105 0.435729 0.419325
C53   C     C_R   0.394071 0.924357 0.059402 0.431042
C54   C     C_R   0.544356 0.571805 0.435381 0.419410
C55   C     C_R   0.459799 0.034790 0.563252 0.416886
C56   C     C_R   0.011706 0.453664 0.932133 0.406660
C57   C     C_R   0.573609 0.541291 0.563395 0.416943
C58   C     C_R   0.447839 0.025468 0.933899 0.403333
C59   C     C_R   0.964107 0.424891 0.563365 0.416701
C60   C     C_R   0.591076 0.521227 0.939352 0.409448
O39   O     O_2   0.067273 0.419180 0.074602 -0.510840
O40   O     O_2   0.352694 0.948241 0.422965 -0.552781
O41   O     O_2   0.621428 0.578075 0.083871 -0.544562
O42   O     O_2   0.049218 0.402498 0.423194 -0.553421
O43   O     O_2   0.366468 0.963182 0.076863 -0.524078
O44   O     O_2   0.597918 0.644743 0.422451 -0.551483
O45   O     O_2   0.400852 0.045697 0.576448 -0.541151
O46   O     O_2   0.009205 0.388318 0.918388 -0.561109
O47   O     O_2   0.642734 0.600286 0.576782 -0.539991
O48   O     O_2   0.427752 0.082696 0.924157 -0.522218
O49   O     O_2   0.953864 0.355449 0.576910 -0.540734
O50   O     O_2   0.664972 0.574544 0.927005 -0.514654
C61   C     C_R   0.060799 0.479195 0.028029 0.042917
C62   C     C_R   0.436114 0.985937 0.467512 0.044649
C63   C     C_R   0.562323 0.531283 0.035717 0.035873
C64   C     C_R   0.011519 0.448594 0.467513 0.044683
C65   C     C_R   0.401904 0.944819 0.027680 0.040907
C66   C     C_R   0.551396 0.562557 0.467275 0.044751
C67   C     C_R   0.452001 0.017021 0.531494 0.042601
C68   C     C_R   0.030516 0.463297 0.963875 0.036523
C69   C     C_R   0.564524 0.548455 0.531508 0.042774
C70   C     C_R   0.429673 0.996210 0.964819 0.031953
C71   C     C_R   0.981348 0.434333 0.531560 0.042616
C72   C     C_R   0.581672 0.524394 0.971414 0.033054
C73   C     C_R   0.057689 0.551574 0.011588 -0.051492
C74   C     C_R   0.516913 0.998264 0.483124 -0.047409
C75   C     C_R   0.483639 0.474274 0.017493 -0.051982
C76   C     C_R   0.999131 0.517221 0.482804 -0.047405
C77   C     C_R   0.439215 0.904302 0.007741 -0.052498
C78   C     C_R   0.482681 0.482479 0.482929 -0.047503
C79   C     C_R   0.523491 0.010786 0.515642 -0.048460
C80   C     C_R   0.041202 0.542782 0.979316 -0.052160
C81   C     C_R   0.487567 0.476847 0.515536 -0.048634
C82   C     C_R   0.452615 0.929756 0.976016 -0.055551
C83   C     C_R   0.987042 0.511718 0.515341 -0.048540
C84   C     C_R   0.493821 0.468932 0.985236 -0.054331
C85   C     C_R   0.058245 0.699641 0.010448 0.008544
C86   C     C_R   0.668383 0.004520 0.482642 0.002466
C87   C     C_R   0.320171 0.354776 0.013492 0.010618
C88   C     C_R   0.992839 0.662564 0.481644 0.002508
C89   C     C_R   0.510339 0.807372 0.999546 0.006609
C90   C     C_R   0.337741 0.331804 0.482364 0.002453
C91   C     C_R   0.669902 0.006902 0.515826 0.003565
C92   C     C_R   0.060136 0.698285 0.977590 0.010841
C93   C     C_R   0.337603 0.331356 0.515548 0.003855
C94   C     C_R   0.503847 0.816668 0.967058 0.003574
C95   C     C_R   0.990752 0.661981 0.514828 0.003819
C96   C     C_R   0.326817 0.361559 0.980728 0.009170
C97   C     C_R   0.051701 0.401529 0.012146 -0.126405
C98   C     C_R   0.365527 0.989901 0.483925 -0.136303
C99   C     C_R   0.649455 0.583418 0.021674 -0.145233
C100  C     C_R   0.008012 0.374318 0.484270 -0.136818
C101  C     C_R   0.375864 0.007539 0.015750 -0.132461
C102  C     C_R   0.625171 0.633322 0.483773 -0.136721
C103  C     C_R   0.373974 0.006592 0.515331 -0.135545
C104  C     C_R   0.037193 0.393910 0.980494 -0.143825
C105  C     C_R   0.632360 0.625774 0.515335 -0.135918
C106  C     C_R   0.389805 0.033065 0.984806 -0.137624
C107  C     C_R   0.991822 0.366573 0.515719 -0.135964
C108  C     C_R   0.658677 0.581557 0.989891 -0.137087
C109  C     C_R   0.175865 0.555150 0.119701 -0.058564
C110  C     C_R   0.451040 0.987106 0.365601 -0.057767
C111  C     C_R   0.497437 0.606446 0.122171 -0.053979
C112  C     C_R   0.011537 0.462960 0.365458 -0.057612
C113  C     C_R   0.327756 0.812100 0.119271 -0.058359
C114  C     C_R   0.537416 0.546348 0.365285 -0.056764
C115  C     C_R   0.474011 0.015243 0.633295 -0.058648
C116  C     C_R   0.884157 0.404155 0.878779 -0.067250
C117  C     C_R   0.539483 0.527016 0.633323 -0.057971
C118  C     C_R   0.579536 0.124115 0.879999 -0.054117
C119  C     C_R   0.984707 0.459475 0.633188 -0.058693
C120  C     C_R   0.603112 0.431521 0.880385 -0.047460
C121  C     C_R   0.189545 0.552921 0.151310 -0.136758
C122  C     C_R   0.430637 0.955354 0.335122 -0.148025
C123  C     C_R   0.491104 0.628101 0.152688 -0.145267
C124  C     C_R   0.044118 0.474766 0.335060 -0.149202
C125  C     C_R   0.322714 0.801108 0.151276 -0.146638
C126  C     C_R   0.525411 0.567521 0.334865 -0.148757
C127  C     C_R   0.483171 0.043470 0.664160 -0.147052
C128  C     C_R   0.852281 0.378974 0.848747 -0.153674
C129  C     C_R   0.559061 0.517602 0.664201 -0.147027
C130  C     C_R   0.599863 0.164193 0.850603 -0.134892
C131  C     C_R   0.956848 0.440446 0.664119 -0.147110
C132  C     C_R   0.619525 0.425418 0.849267 -0.125030
C133  C     C_R   0.067254 0.589022 0.161317 -0.161593
C134  C     C_R   0.484293 0.846077 0.345838 -0.148419
C135  C     C_R   0.395230 0.464664 0.164818 -0.152915
C136  C     C_R   0.152285 0.636770 0.345637 -0.147912
C137  C     C_R   0.486426 0.849557 0.153303 -0.157874
C138  C     C_R   0.363476 0.514869 0.345640 -0.148002
C139  C     C_R   0.636465 0.172067 0.652859 -0.150067
C140  C     C_R   0.955117 0.536134 0.831257 -0.147552
C141  C     C_R   0.535505 0.364265 0.652969 -0.150242
C142  C     C_R   0.494936 0.014992 0.827876 -0.144084
C143  C     C_R   0.827242 0.464852 0.652782 -0.150252
C144  C     C_R   0.490013 0.447469 0.835219 -0.149504
C145  C     C_R   0.051203 0.588009 0.129421 -0.070023
C146  C     C_R   0.501635 0.875486 0.376404 -0.070234
C147  C     C_R   0.404778 0.442599 0.134313 -0.063660
C148  C     C_R   0.122036 0.624253 0.376118 -0.070992
C149  C     C_R   0.491692 0.861740 0.121144 -0.078614
C150  C     C_R   0.376192 0.496741 0.376132 -0.071576
C151  C     C_R   0.625982 0.146011 0.621978 -0.068154
C152  C     C_R   0.992148 0.560075 0.861197 -0.065118
C153  C     C_R   0.519396 0.374995 0.622094 -0.068661
C154  C     C_R   0.473995 0.974639 0.857455 -0.065912
C155  C     C_R   0.852935 0.480360 0.621841 -0.068069
C156  C     C_R   0.474382 0.455165 0.866570 -0.067068
C157  C     C_R   0.105169 0.570377 0.108405 0.221403
C158  C     C_R   0.484654 0.945778 0.386704 0.233385
C159  C     C_R   0.455622 0.513604 0.112679 0.234144
C160  C     C_R   0.051868 0.537229 0.386445 0.233420
C161  C     C_R   0.412426 0.843789 0.103938 0.235141
C162  C     C_R   0.463309 0.512956 0.386367 0.233445
C163  C     C_R   0.544980 0.067183 0.611862 0.233808
C164  C     C_R   0.956484 0.494103 0.885358 0.231851
C165  C     C_R   0.520801 0.456146 0.611955 0.234127
C166  C     C_R   0.515532 0.029332 0.883735 0.240987
C167  C     C_R   0.932032 0.478233 0.611708 0.233602
C168  C     C_R   0.531567 0.448122 0.889354 0.238845
H13   H     H_    0.981656 0.587890 0.813021 0.115822
H14   H     H_    0.699101 0.234215 0.659907 0.135779
H15   H     H_    0.445879 0.453117 0.817831 0.107336
H16   H     H_    0.764834 0.465199 0.659854 0.135492
H17   H     H_    0.460526 0.972759 0.807858 0.110458
H18   H     H_    0.535653 0.301538 0.660062 0.135405
H19   H     H_    0.495574 0.789815 0.338829 0.141617
H20   H     H_    0.026405 0.604048 0.177290 0.118998
H21   H     H_    0.296101 0.504288 0.338675 0.141696
H22   H     H_    0.548360 0.864029 0.166097 0.130067
H23   H     H_    0.208395 0.704130 0.338613 0.141648
H24   H     H_    0.354055 0.409436 0.181018 0.127518
H25   H     H_    0.048531 0.629631 0.865476 0.139717
H26   H     H_    0.680597 0.188109 0.605763 0.151594
H27   H     H_    0.418134 0.466846 0.873093 0.122626
H28   H     H_    0.810285 0.492660 0.605593 0.152167
H29   H     H_    0.423598 0.901667 0.860018 0.119714
H30   H     H_    0.507154 0.320519 0.605891 0.150720
H31   H     H_    0.526154 0.841720 0.392348 0.142010
H32   H     H_    0.996441 0.600084 0.121089 0.141017
H33   H     H_    0.318598 0.472417 0.392095 0.139161
H34   H     H_    0.557709 0.886469 0.109649 0.122799
H35   H     H_    0.155047 0.682001 0.391987 0.140497
H36   H     H_    0.372256 0.370466 0.127502 0.142276
H37   H     H_    0.244732 0.541031 0.159384 0.137257
H38   H     H_    0.401333 0.985323 0.319488 0.132736
H39   H     H_    0.524290 0.700465 0.159188 0.131565
H40   H     H_    0.014863 0.416047 0.319508 0.131636
H41   H     H_    0.256291 0.776671 0.162468 0.143297
H42   H     H_    0.584005 0.596713 0.319217 0.131336
H43   H     H_    0.426902 0.004610 0.680211 0.124453
H44   H     H_    0.799647 0.308097 0.844207 0.124224
H45   H     H_    0.576222 0.573744 0.680246 0.125423
H46   H     H_    0.644454 0.238405 0.848402 0.090722
H47   H     H_    0.996193 0.423103 0.680212 0.125141
H48   H     H_    0.675787 0.413467 0.842797 0.112772
H49   H     H_    0.219716 0.543796 0.103905 0.173441
H50   H     H_    0.438543 0.042218 0.372973 0.151793
H51   H     H_    0.535021 0.662378 0.105796 0.161828
H52   H     H_    0.956548 0.395550 0.372860 0.151725
H53   H     H_    0.265826 0.796925 0.106389 0.188036
H54   H     H_    0.604876 0.558251 0.372649 0.152190
H55   H     H_    0.411176 0.953945 0.625948 0.145789
H56   H     H_    0.853283 0.352536 0.896933 0.147612
H57   H     H_    0.540476 0.589970 0.625903 0.146115
H58   H     H_    0.611286 0.167435 0.900033 0.131111
H59   H     H_    0.046213 0.457973 0.625816 0.145925
H60   H     H_    0.646473 0.423781 0.897583 0.144156
C169  C     C_3   0.097717 0.789179 0.959283 -0.225219
C170  C     C_3   0.181610 0.807902 0.939117 -0.296954
C171  C     C_3   0.211932 0.893793 0.918872 -0.420529
H61   H     H_    0.154347 0.884183 0.903350 0.169240
H62   H     H_    0.233003 0.956028 0.933451 0.180066
H63   H     H_    0.271680 0.905028 0.904361 0.166823
H64   H     H_    0.240389 0.818634 0.954285 0.160291
H65   H     H_    0.165670 0.748670 0.923709 0.180005
H66   H     H_    0.041684 0.789479 0.945281 0.199309
H67   H     H_    0.124394 0.850019 0.974811 0.119073
C172  C     C_3   0.743866 0.994089 0.533108 -0.212343
C173  C     C_3   0.831816 0.087721 0.539803 -0.264860
C174  C     C_3   0.909975 0.073350 0.552294 -0.451949
H68   H     H_    0.888012 0.031911 0.574006 0.175957
H69   H     H_    0.929348 0.036807 0.534953 0.131528
H70   H     H_    0.971901 0.141734 0.557226 0.155781
H71   H     H_    0.856451 0.130756 0.518492 0.141226
H72   H     H_    0.817161 0.128455 0.556839 0.233706
H73   H     H_    0.716033 0.951894 0.554387 0.196258
H74   H     H_    0.762402 0.948254 0.520132 0.114205
C175  C     C_3   0.238377 0.323951 0.961176 -0.220368
C176  C     C_3   0.236867 0.399421 0.940504 -0.281142
C177  C     C_3   0.176926 0.357003 0.911857 -0.404369
H75   H     H_    0.207955 0.325312 0.896932 0.181491
H76   H     H_    0.105946 0.302680 0.918618 0.190283
H77   H     H_    0.172903 0.412044 0.898340 0.175983
H78   H     H_    0.209483 0.437547 0.953910 0.161118
H79   H     H_    0.306934 0.452034 0.932693 0.172080
H80   H     H_    0.229412 0.263416 0.947613 0.194940
H81   H     H_    0.175256 0.297898 0.975612 0.105338
C178  C     C_3   0.004410 0.749071 0.531721 -0.212074
C179  C     C_3   0.911335 0.745512 0.538218 -0.265182
C180  C     C_3   0.926714 0.838754 0.549919 -0.453278
H82   H     H_    0.968252 0.858282 0.571572 0.174962
H83   H     H_    0.963538 0.893637 0.532188 0.131437
H84   H     H_    0.858715 0.833850 0.554712 0.154394
H85   H     H_    0.868124 0.727048 0.516972 0.141276
H86   H     H_    0.870447 0.691289 0.555650 0.233836
H87   H     H_    0.046230 0.762598 0.553053 0.195442
H88   H     H_    0.050923 0.812778 0.518519 0.114330
C181  C     C_3   0.505470 0.744636 0.945501 -0.215142
C182  C     C_3   0.415040 0.692224 0.926765 -0.282182
C183  C     C_3   0.423712 0.630980 0.902363 -0.447718
H89   H     H_    0.476005 0.674579 0.884743 0.184541
H90   H     H_    0.445365 0.583986 0.913288 0.154219
H91   H     H_    0.355809 0.588485 0.890695 0.134499
H92   H     H_    0.357201 0.647838 0.942703 0.149343
H93   H     H_    0.396457 0.740306 0.914945 0.186846
H94   H     H_    0.567440 0.777421 0.930339 0.206631
H95   H     H_    0.510194 0.689391 0.958549 0.123277
C184  C     C_3   0.250364 0.258987 0.532626 -0.212703
C185  C     C_3   0.254254 0.169843 0.540045 -0.264188
C186  C     C_3   0.160887 0.092777 0.551817 -0.453213
H96   H     H_    0.140357 0.115417 0.573046 0.174552
H97   H     H_    0.106614 0.074320 0.533820 0.131472
H98   H     H_    0.166116 0.030042 0.557361 0.156132
H99   H     H_    0.273592 0.144577 0.519195 0.142346
H100  H     H_    0.307965 0.183385 0.557750 0.234263
H101  H     H_    0.236242 0.287936 0.553582 0.195653
H102  H     H_    0.186892 0.241711 0.519194 0.114340
C187  C     C_3   0.748501 0.003215 0.465328 -0.217986
C188  C     C_3   0.722007 0.904413 0.455036 -0.266380
C189  C     C_3   0.802462 0.903106 0.438538 -0.441755
H103  H     H_    0.822610 0.948199 0.417649 0.175683
H104  H     H_    0.863231 0.927764 0.454256 0.129606
H105  H     H_    0.781132 0.831122 0.431304 0.175232
H106  H     H_    0.702555 0.857880 0.475541 0.143418
H107  H     H_    0.661063 0.875490 0.439340 0.213770
H108  H     H_    0.774143 0.053664 0.445972 0.201005
H109  H     H_    0.812679 0.031045 0.479178 0.116675
C190  C     C_3   0.033919 0.767011 0.026414 -0.221096
C191  C     C_3   0.940709 0.715087 0.043631 -0.274706
C192  C     C_3   0.918589 0.782637 0.060298 -0.454241
H110  H     H_    0.972534 0.822152 0.077975 0.173736
H111  H     H_    0.915433 0.832035 0.043549 0.140961
H112  H     H_    0.850347 0.743474 0.072018 0.166828
H113  H     H_    0.884502 0.674585 0.026693 0.153136
H114  H     H_    0.940848 0.665548 0.060927 0.198818
H115  H     H_    0.091046 0.815050 0.041828 0.199881
H116  H     H_    0.024015 0.811884 0.009564 0.115365
C193  C     C_3   0.256637 0.252074 0.464950 -0.219417
C194  C     C_3   0.186187 0.280425 0.453511 -0.265361
C195  C     C_3   0.104548 0.200337 0.436999 -0.441421
H117  H     H_    0.129324 0.178421 0.416613 0.174337
H118  H     H_    0.067445 0.140337 0.452975 0.129535
H119  H     H_    0.055170 0.222973 0.428984 0.179105
H120  H     H_    0.159302 0.301787 0.473468 0.145844
H121  H     H_    0.219359 0.340634 0.437484 0.212271
H122  H     H_    0.281317 0.224780 0.446170 0.201083
H123  H     H_    0.219106 0.188494 0.479054 0.117031
C196  C     C_3   0.575233 0.773689 0.012070 -0.221129
C197  C     C_3   0.656090 0.850080 0.030696 -0.281626
C198  C     C_3   0.720027 0.816192 0.043393 -0.455822
H124  H     H_    0.681123 0.756422 0.059276 0.191604
H125  H     H_    0.749771 0.795172 0.024179 0.147901
H126  H     H_    0.777837 0.872948 0.056468 0.143894
H127  H     H_    0.697031 0.911094 0.015415 0.162222
H128  H     H_    0.630866 0.873744 0.050434 0.188256
H129  H     H_    0.536233 0.708818 0.025729 0.198017
H130  H     H_    0.609236 0.756742 0.993225 0.129370
C199  C     C_3   0.994781 0.744255 0.463946 -0.219022
C200  C     C_3   0.093583 0.814684 0.453226 -0.265911
C201  C     C_3   0.095569 0.896666 0.436300 -0.441124
H131  H     H_    0.050234 0.872200 0.415525 0.175158
H132  H     H_    0.071636 0.933714 0.451814 0.129824
H133  H     H_    0.167583 0.946038 0.428832 0.177649
H134  H     H_    0.140515 0.841271 0.473571 0.144774
H135  H     H_    0.121596 0.781544 0.437681 0.212719
H136  H     H_    0.943987 0.720108 0.444747 0.201309
H137  H     H_    0.967982 0.781753 0.477640 0.117045
C202  C     C_3   0.239370 0.268819 0.028444 -0.227751
C203  C     C_3   0.273646 0.212112 0.047061 -0.281683
C204  C     C_3   0.192666 0.122531 0.059739 -0.448239
H138  H     H_    0.149311 0.138580 0.075238 0.170924
H139  H     H_    0.149125 0.077819 0.040517 0.142488
H140  H     H_    0.219768 0.083703 0.073153 0.167555
H141  H     H_    0.316137 0.193987 0.031841 0.157363
H142  H     H_    0.317648 0.252616 0.066811 0.193803
H143  H     H_    0.196520 0.288142 0.042875 0.202858
H144  H     H_    0.191890 0.220014 0.010854 0.118053

loop_
_geom_bond_atom_site_label_1
_geom_bond_atom_site_label_2
_geom_bond_distance
_ccdc_geom_bond_type
C175  H81   1.107933 S    
C88   C95   1.435604 A    
C155  H28   1.083100 S    
C38   O28   1.218012 D    
C19   C122  1.402698 A    
C51   C63   1.399538 A    
H11   C100  1.083396 S    
N4    C52   1.375411 Am   
C52   C64   1.398588 A    
C109  C157  1.401933 A    
C120  C168  1.401761 A    
C181  C182  1.539116 S    
C201  H132  1.111163 S    
C88   C199  1.538300 S    
C33   C45   1.430111 A    
C96   C175  1.531647 S    
C187  C188  1.539296 S    
C176  H78   1.110843 S    
C42   N6    1.381430 Am   
N8    C56   1.382140 Am   
C85   C190  1.531960 S    
O21   C9    1.283481 A    
C187  H108  1.106144 S    
C145  C157  1.408383 A    
O10   Cr4   2.008262 S    
C68   C80   1.411749 A    
C18   C141  1.402466 A    
O12   Cr6   2.010958 S    
C144  H15   1.082944 S    
C153  H30   1.083138 S    
C202  C203  1.540364 S    
H5    C106  1.083622 S    
C199  H137  1.102824 S    
C89   C94   1.422020 A    
H7    C98   1.083387 S    
C145  H32   1.082649 S    
O1    Cr1   2.005311 S    
C192  H112  1.110496 S    
O1    C3    1.276715 A    
C174  H69   1.110821 S    
O3    Cr3   2.014569 S    
N2    C50   1.375496 Am   
O7    C9    1.279497 A    
C111  C123  1.387992 A    
C178  H88   1.107357 S    
C117  H57   1.082619 S    
C200  H135  1.109333 S    
C10   C24   1.470216 S    
C99   C108  1.386010 A    
C102  C105  1.380025 A    
C36   C48   1.420690 A    
C179  H85   1.110045 S    
C100  C107  1.380444 A    
O14   Cr2   1.904469 S    
C65   C77   1.415136 A    
N6    C162  1.445687 S    
O15   C3    1.289093 A    
C112  C124  1.399062 A    
O14   C2    1.281922 A    
C48   N12   1.381240 Am   
O15   Cr3   1.903027 S    
C28   C40   1.430499 A    
C57   C69   1.397368 A    
O5    C1    1.279036 A    
C151  H26   1.083103 S    
C198  H124  1.110180 S    
C131  H47   1.083021 S    
C170  C171  1.525416 S    
C196  C197  1.540243 S    
C7    C21   1.465083 S    
C92   C169  1.531641 S    
C142  C154  1.402849 A    
N7    C163  1.447283 S    
C45   O35   1.217783 D    
C138  H21   1.083783 S    
C47   O37   1.217715 D    
C195  H119  1.110434 S    
C97   C104  1.384558 A    
O23   Cr5   1.905344 S    
C123  H39   1.081769 S    
C202  H144  1.106708 S    
Cr2   O25   1.964719 S    
O17   C5    1.284131 A    
C191  H114  1.108490 S    
C153  C165  1.402004 A    
N9    C165  1.445175 S    
C117  C165  1.407560 A    
C185  C186  1.526251 S    
C17   C130  1.399966 A    
C54   C66   1.397729 A    
C144  C156  1.400074 A    
C26   C38   1.431142 A    
C41   O31   1.220527 D    
C15   C144  1.398880 A    
C48   O38   1.220324 D    
O21   Cr6   1.901766 S    
N8    C164  1.451379 S    
C156  H27   1.081858 S    
C125  H41   1.083051 S    
C189  H103  1.110761 S    
N1    C157  1.445848 S    
C11   C19   1.467675 S    
C194  C195  1.526087 S    
C12   C20   1.463200 S    
C197  H128  1.108154 S    
C77   C82   1.418735 A    
C154  C166  1.405649 A    
H1    C104  1.083453 S    
C121  H37   1.083805 S    
C143  H16   1.083846 S    
H2    C103  1.083829 S    
C177  H76   1.110177 S    
C64   C76   1.420288 A    
C186  H96   1.110768 S    
C28   C76   1.417727 A    
C109  H49   1.083241 S    
C156  C168  1.408940 A    
C111  H51   1.083232 S    
N5    C53   1.380003 Am   
C199  H136  1.106128 S    
C30   C78   1.417756 A    
C136  C148  1.390062 A    
C148  C160  1.403274 A    
C22   C137  1.404607 A    
N10   C58   1.379059 Am   
C112  C160  1.407183 A    
C201  H131  1.110766 S    
C65   C101  1.404111 A    
C129  H45   1.083024 S    
O3    C5    1.276090 A    
C24   C135  1.403453 A    
H8    C97   1.083725 S    
C54   O44   1.223227 D    
C59   C71   1.398198 A    
C60   C72   1.400319 A    
C36   C84   1.412178 A    
C64   C100  1.401482 A    
C197  C198  1.524706 S    
C139  H14   1.083866 S    
C198  H126  1.110298 S    
C51   O41   1.223219 D    
C188  H107  1.109362 S    
C21   C138  1.402633 A    
C63   C99   1.403276 A    
C184  H102  1.107382 S    
C49   O39   1.223453 D    
C35   C47   1.431103 A    
C146  H31   1.083099 S    
C46   N10   1.382752 Am   
C39   O29   1.220481 D    
C27   C87   1.426635 A    
C28   C88   1.438979 A    
C23   C136  1.403089 A    
C169  H66   1.109358 S    
C86   C187  1.538211 S    
C27   C39   1.420293 A    
C116  H56   1.082769 S    
O22   C10   1.290756 A    
C37   N1    1.383544 Am   
C113  C125  1.392506 A    
C20   C133  1.401342 A    
O8    Cr5   2.015501 S    
C90   C193  1.538271 S    
C173  H71   1.110011 S    
C22   C125  1.405357 A    
C110  C122  1.399095 A    
C154  H29   1.082704 S    
C55   O45   1.223425 D    
C190  H116  1.106907 S    
C116  C128  1.386648 A    
C150  C162  1.402991 A    
O2    Cr2   2.004105 S    
C63   C75   1.412923 A    
H10   C101  1.083741 S    
O8    C10   1.279858 A    
C62   C74   1.420260 A    
C204  H140  1.110605 S    
C29   C41   1.423256 A    
C181  H95   1.108288 S    
C31   C43   1.431572 A    
C186  H98   1.110659 S    
C118  H58   1.083013 S    
C172  H73   1.107007 S    
C16   C143  1.402881 A    
C114  H54   1.082591 S    
C198  H125  1.110593 S    
O20   C8    1.313723 A    
C175  H80   1.110179 S    
C115  C163  1.408035 A    
C203  H141  1.112380 S    
C141  C153  1.388226 A    
C113  C161  1.400729 A    
C139  C151  1.389735 A    
C179  C180  1.526304 S    
C70   C106  1.403841 A    
C101  C106  1.386536 A    
C66   C78   1.420243 A    
C13   C140  1.402456 A    
C176  H79   1.105271 S    
C73   C80   1.415585 A    
C60   O50   1.223093 D    
C74   C79   1.418735 A    
C199  C200  1.539224 S    
C58   C70   1.401874 A    
C61   C73   1.414028 A    
C62   C98   1.401561 A    
C203  C204  1.526860 S    
C189  H105  1.110438 S    
C135  C147  1.401778 A    
O17   Cr2   1.895178 S    
C38   N2    1.382121 Am   
C19   C134  1.403223 A    
C118  C130  1.393942 A    
C171  H63   1.110191 S    
C25   C85   1.431315 A    
C133  C145  1.402429 A    
O19   Cr4   1.896998 S    
C147  H36   1.082620 S    
Cr4   O26   1.965231 S    
C183  H91   1.110485 S    
C124  H40   1.083047 S    
C1    C15   1.456397 S    
C136  H23   1.083759 S    
C140  H13   1.082939 S    
C2    C16   1.463589 S    
C192  H111  1.110580 S    
C4    C18   1.461583 S    
C20   C121  1.402561 A    
C69   C105  1.402114 A    
O24   Cr6   1.906135 S    
C110  C158  1.407283 A    
C193  H123  1.102850 S    
C72   C108  1.403454 A    
O19   C7    1.286362 A    
C112  H52   1.082583 S    
C178  H87   1.107057 S    
C195  H117  1.110773 S    
C34   C46   1.425450 A    
C71   C107  1.402306 A    
C56   C68   1.398960 A    
C13   C128  1.397706 A    
Cr6   O26   1.956772 S    
C61   C97   1.403849 A    
C41   N5    1.382131 Am   
C93   C184  1.535624 S    
C43   N7    1.383449 Am   
C31   C79   1.418060 A    
C126  H42   1.083057 S    
C169  C170  1.540808 S    
C194  H120  1.110591 S    
C138  C150  1.389087 A    
C179  H86   1.108522 S    
C196  H130  1.107113 S    
C78   C81   1.417377 A    
C122  H38   1.083054 S    
C58   O48   1.223351 D    
N12   C168  1.444084 S    
C76   C83   1.418312 A    
C110  H50   1.082585 S    
C98   C103  1.380486 A    
O16   Cr1   1.894526 S    
C26   C74   1.417911 A    
O5    Cr2   2.014834 S    
N1    C49   1.380018 Am   
N3    C51   1.381057 Am   
N11   C167  1.446862 S    
C33   C81   1.417989 A    
C70   C82   1.414735 A    
C56   O46   1.221735 D    
C185  H100  1.108485 S    
C172  C173  1.542912 S    
H4    C107  1.083769 S    
C35   C83   1.418014 A    
C184  C185  1.543069 S    
C66   C102  1.401327 A    
C57   O47   1.223472 D    
C187  H109  1.102927 S    
N7    C55   1.374946 Am   
C25   C73   1.415479 A    
C137  H22   1.082619 S    
C202  H143  1.109059 S    
Cr1   O25   1.966340 S    
C49   C61   1.397894 A    
C171  H61   1.110731 S    
C50   O40   1.223205 D    
C149  C161  1.406500 A    
C149  H34   1.082780 S    
C183  H89   1.110713 S    
C45   N9    1.382971 Am   
N5    C161  1.446368 S    
C27   C75   1.412437 A    
C120  H60   1.083035 S    
O24   C12   1.286097 A    
C44   O34   1.220325 D    
C173  H72   1.108535 S    
C5    C13   1.465164 S    
O23   C11   1.283436 A    
Cr5   O26   1.965890 S    
C69   C81   1.420363 A    
C113  H53   1.081682 S    
C8    C22   1.476139 S    
C142  H17   1.082995 S    
C33   C93   1.438423 A    
C152  C164  1.410264 A    
C200  H134  1.110618 S    
C150  H33   1.083083 S    
C94   C181  1.530614 S    
C191  C192  1.526110 S    
C95   C178  1.535639 S    
C197  H127  1.112034 S    
C178  C179  1.543042 S    
N6    C54   1.375140 Am   
N10   C166  1.445926 S    
N3    C159  1.447197 S    
C118  C166  1.403075 A    
C182  H93   1.108814 S    
C40   N4    1.381904 Am   
C47   N11   1.383423 Am   
C42   O32   1.218145 D    
C16   C131  1.401028 A    
C25   C37   1.423810 A    
C177  H75   1.110560 S    
C44   N8    1.384963 Am   
C115  H55   1.082610 S    
C115  C127  1.399837 A    
O4    Cr1   2.016713 S    
N2    C158  1.447702 S    
O9    C11   1.279156 A    
O6    Cr3   2.013889 S    
C133  H20   1.082833 S    
O10   C12   1.277629 A    
C184  H101  1.107074 S    
H9    C102  1.083267 S    
C182  H92   1.112439 S    
C90   C93   1.435192 A    
O16   C4    1.284722 A    
C201  H133  1.110448 S    
C146  C158  1.403451 A    
C29   C77   1.414759 A    
C132  H48   1.084184 S    
C180  H82   1.110752 S    
C190  C191  1.539654 S    
O18   Cr3   1.905114 S    
C67   C79   1.420425 A    
O20   Cr5   1.893377 S    
O6    C2    1.278446 A    
C174  H68   1.110740 S    
C91   C172  1.535682 S    
O9    Cr6   2.016965 S    
C120  C132  1.388529 A    
C116  C164  1.405113 A    
C26   C86   1.439171 A    
C191  H113  1.112098 S    
C195  H118  1.111161 S    
N9    C57   1.374525 Am   
N11   C59   1.374987 Am   
C190  H115  1.109134 S    
C40   O30   1.218091 D    
C89   C196  1.533617 S    
C23   C124  1.402731 A    
C3    C17   1.467180 S    
C137  C149  1.401106 A    
C17   C142  1.403244 A    
C204  H138  1.110824 S    
C46   O36   1.220135 D    
N4    C160  1.447171 S    
O7    Cr4   2.015027 S    
O18   C6    1.283266 A    
C204  H139  1.110958 S    
C32   C44   1.421655 A    
O13   Cr1   1.905896 S    
C119  C167  1.407959 A    
C170  H64   1.112206 S    
C181  H94   1.109280 S    
C85   C92   1.422149 A    
C177  H77   1.110306 S    
C147  C159  1.408063 A    
C86   C91   1.435774 A    
C186  H97   1.110874 S    
O12   C8    1.297330 A    
C24   C123  1.402909 A    
C32   C92   1.423772 A    
C188  C189  1.526145 S    
C59   O49   1.223449 D    
C155  C167  1.402526 A    
C185  H99   1.110061 S    
C43   O33   1.217673 D    
C111  C159  1.402498 A    
C114  C126  1.398277 A    
C203  H142  1.108796 S    
C152  H25   1.082425 S    
C140  C152  1.403371 A    
C130  H46   1.080663 S    
C35   C95   1.438636 A    
C196  H129  1.109353 S    
C36   C96   1.427956 A    
Cr3   O25   1.956834 S    
C21   C126  1.402467 A    
C109  C121  1.388042 A    
C135  H24   1.082915 S    
C151  C163  1.402606 A    
C176  C177  1.524931 S    
C37   O27   1.219687 D    
C14   C139  1.403011 A    
C68   C104  1.402971 A    
O22   Cr4   1.904590 S    
C180  H83   1.110936 S    
C188  H106  1.110571 S    
C189  H104  1.111177 S    
C170  H65   1.108091 S    
C30   C42   1.429566 A    
C171  H62   1.110598 S    
C193  C194  1.539156 S    
C72   C84   1.414379 A    
C143  C155  1.389543 A    
C15   C132  1.400770 A    
C183  H90   1.109563 S    
C55   C67   1.398475 A    
C34   C82   1.414221 A    
C71   C83   1.420266 A    
C31   C91   1.438846 A    
C180  H84   1.110688 S    
C53   C65   1.402319 A    
C169  H67   1.108156 S    
C173  C174  1.526125 S    
C9    C23   1.467219 S    
C127  H43   1.083013 S    
C192  H110  1.110811 S    
C174  H70   1.110656 S    
C67   C103  1.402262 A    
C128  H44   1.080182 S    
C141  H18   1.083874 S    
C32   C80   1.409557 A    
C114  C162  1.406777 A    
C134  H19   1.083749 S    
C52   O42   1.223174 D    
O13   C1    1.287651 A    
C193  H122  1.106127 S    
C50   C62   1.398715 A    
C148  H35   1.083092 S    
C75   C84   1.414635 A    
C119  H59   1.082616 S    
C14   C127  1.401240 A    
C6    C14   1.464428 S    
C18   C129  1.400879 A    
C39   N3    1.384296 Am   
O11   Cr5   2.002706 S    
C119  C131  1.399516 A    
C194  H121  1.109297 S    
C175  C176  1.543834 S    
C134  C146  1.390609 A    
C30   C90   1.438747 A    
C117  C129  1.398990 A    
O11   C7    1.282352 A    
C87   C202  1.532972 S    
C182  C183  1.524982 S    
N12   C60   1.379918 Am   
C34   C94   1.428862 A    
C200  C201  1.526069 S    
O2    C4    1.281703 A    
C172  H74   1.107170 S    
C53   O43   1.223101 D    
H3    C108  1.083611 S    
H6    C105  1.083794 S    
C29   C89   1.428462 A    
O4    C6    1.279796 A    
C87   C96   1.421239 A    
H12   C99   1.082734 S    
