data_mof_unit_58785.cif
_audit_creation_date              2012-12-10T19:12:58-0500
_audit_creation_method            fapswitch 2.2
_symmetry_space_group_name_H-M    P1
_symmetry_Int_Tables_number       1
_space_group_crystal_system       triclinic
_cell_length_a                    8.650799
_cell_length_b                    16.002092
_cell_length_c                    14.754064
_cell_angle_alpha                 89.706027
_cell_angle_beta                  97.945363
_cell_angle_gamma                 89.889782
_cell_volume                      2022.77777887

loop_
_atom_site_label
_atom_site_type_symbol
_atom_type_description
_atom_site_fract_x
_atom_site_fract_y
_atom_site_fract_z
_atom_type_partial_charge
C1    C     C_R   0.499898 0.340946 0.500206 0.795821
C2    C     C_R   0.500017 0.659076 0.499792 0.845266
C3    C     C_R   0.497045 0.500396 0.902703 -0.070251
C4    C     C_R   0.501470 0.499586 0.097141 -0.070521
C5    C     C_R   0.452688 0.427441 0.947970 0.109745
C6    C     C_R   0.545195 0.572640 0.051793 0.106621
C7    C     C_1   0.498661 0.500164 0.802411 0.144554
C8    C     C_1   0.500696 0.499767 0.197526 0.145536
C9    C     C_R   0.205151 0.486135 0.477280 0.863555
C10   C     C_R   0.794966 0.486067 0.522929 0.859235
C11   C     C_2   0.041680 0.458993 0.464355 -0.081664
C12   C     C_2   0.958839 0.459140 0.536400 -0.083180
C13   C     C_R   0.571632 0.955906 0.578395 0.026378
C14   C     C_R   0.426919 0.044397 0.421778 0.026235
C15   C     C_R   0.502369 0.912754 0.499811 -0.056063
C16   C     C_R   0.496485 0.087496 0.500286 -0.056199
C17   C     C_R   0.431841 0.956362 0.421796 0.341632
C18   C     C_R   0.567076 0.043938 0.578273 0.341188
C19   C     C_1   0.501460 0.822929 0.499173 0.078193
C20   C     C_1   0.497669 0.177256 0.500866 0.073183
C21   C     C_1   0.498811 0.252143 0.500706 -0.150789
C22   C     C_1   0.500680 0.747988 0.499290 -0.158658
C23   C     C_R   0.540456 0.573486 0.954301 0.116840
C24   C     C_R   0.457589 0.426556 0.045499 0.117484
Cu1   Cu    Cu3+1 0.500040 0.500000 0.589220 0.952132
Cu2   Cu    Cu3+1 0.499960 0.500000 0.410780 0.956398
N1    N     N_1   0.500050 0.499980 0.276720 -0.164873
N2    N     N_1   0.499950 0.500020 0.723280 -0.166360
O1    O     O_R   0.500070 0.380310 0.575330 -0.573399
O2    O     O_R   0.499930 0.619690 0.424670 -0.547783
O3    O     O_R   0.500000 0.380310 0.424640 -0.594306
O4    O     O_R   0.500000 0.619690 0.575360 -0.571372
O5    O     O_R   0.274870 0.500000 0.557960 -0.599220
O6    O     O_R   0.725130 0.500000 0.442040 -0.599534
O7    O     O_R   0.274790 0.500000 0.407270 -0.567502
O8    O     O_R   0.725210 0.500000 0.592730 -0.571145
C25   C     C_3   0.973661 0.426436 0.369828 -0.368869
C26   C     C_3   0.066517 0.351805 0.341017 -0.863361
H1    H     H_    0.184263 0.370523 0.327100 0.277500
H2    H     H_    0.078278 0.302815 0.395209 0.248387
H3    H     H_    0.004163 0.324566 0.277135 0.239763
H4    H     H_    0.853546 0.402207 0.368442 0.235105
H5    H     H_    0.971549 0.477388 0.318221 0.213932
C27   C     C_3   0.027884 0.427775 0.631754 -0.404022
C28   C     C_3   0.935384 0.354245 0.663625 -0.786976
H6    H     H_    0.819614 0.374282 0.679791 0.272966
H7    H     H_    0.919406 0.305104 0.610220 0.258786
H8    H     H_    0.000499 0.326684 0.726959 0.237978
H9    H     H_    0.147628 0.402726 0.633159 0.238209
H10   H     H_    0.031303 0.479610 0.681806 0.213452
Cl1   Cl    Cl    0.646975 0.100909 0.676499 -0.655635
Cl2   Cl    Cl    0.352742 0.899495 0.323362 -0.646171
C29   C     C_3   0.649435 0.908095 0.661949 -0.328896
C30   C     C_3   0.531038 0.884774 0.725427 -0.778561
H11   H     H_    0.476849 0.941983 0.749665 0.279633
H12   H     H_    0.438276 0.844357 0.689307 0.244222
H13   H     H_    0.590584 0.850018 0.785727 0.232615
H14   H     H_    0.706846 0.850452 0.641253 0.186330
H15   H     H_    0.745093 0.944815 0.700625 0.247536
C31   C     C_3   0.348112 0.092353 0.338556 -0.329109
C32   C     C_3   0.466044 0.117361 0.275431 -0.780766
H16   H     H_    0.557584 0.158269 0.311939 0.243709
H17   H     H_    0.521914 0.060872 0.250745 0.279261
H18   H     H_    0.405644 0.152154 0.215401 0.232670
H19   H     H_    0.253607 0.055236 0.299364 0.247779
H20   H     H_    0.289029 0.149270 0.359805 0.185486
C33   C     C_3   0.599171 0.648995 0.108980 -0.419648
C34   C     C_3   0.460695 0.702716 0.127098 -0.739966
H21   H     H_    0.392840 0.724137 0.061695 0.236962
H22   H     H_    0.382525 0.666762 0.166499 0.258238
H23   H     H_    0.503605 0.758374 0.167573 0.272606
H24   H     H_    0.666633 0.629736 0.175397 0.207826
H25   H     H_    0.682710 0.687591 0.076586 0.213169
C35   C     C_3   0.397410 0.351394 0.890587 -0.422556
C36   C     C_3   0.535015 0.297358 0.871687 -0.748306
H26   H     H_    0.612892 0.333109 0.831900 0.253828
H27   H     H_    0.603480 0.275727 0.936824 0.238633
H28   H     H_    0.491088 0.241837 0.831293 0.271936
H29   H     H_    0.313908 0.312908 0.923142 0.212257
H30   H     H_    0.329452 0.371067 0.824442 0.202480
C37   C     C_3   0.578647 0.652575 0.903723 -0.398494
C38   C     C_3   0.749477 0.653467 0.888072 -0.816725
H31   H     H_    0.827761 0.650373 0.954303 0.246511
H32   H     H_    0.775019 0.599589 0.845337 0.256475
H33   H     H_    0.774019 0.712023 0.852012 0.241555
H34   H     H_    0.503119 0.657799 0.836626 0.204117
H35   H     H_    0.551734 0.710037 0.940102 0.208045
C39   C     C_3   0.418883 0.347557 0.096065 -0.396946
C40   C     C_3   0.248219 0.347201 0.112116 -0.830962
H36   H     H_    0.223231 0.401528 0.154348 0.258367
H37   H     H_    0.169588 0.349907 0.045995 0.248630
H38   H     H_    0.223524 0.289040 0.148847 0.241935
H39   H     H_    0.444905 0.290040 0.059501 0.208772
H40   H     H_    0.494759 0.342098 0.163026 0.201126

loop_
_geom_bond_atom_site_label_1
_geom_bond_atom_site_label_2
_ccdc_geom_bond_type
C27   H9    S    
C5    C35   S    
C1    C21   S    
C3    C23   A    
C4    C8    S    
C37   C38   S    
C29   H15   S    
C28   H6    S    
Cu1   N2    S    
C15   C19   S    
Cu2   N1    S    
C13   C18   A    
C3    C7    S    
C26   H1    S    
C4    C24   A    
C1    O3    A    
C2    O4    A    
C33   H24   S    
C25   H4    S    
C11   C25   S    
C8    N1    T    
C30   H11   S    
Cu2   O6    S    
C34   H21   S    
C2    C22   S    
C33   H25   S    
C40   H37   S    
C37   H34   S    
Cu1   O4    S    
C31   H20   S    
Cu2   O3    S    
C35   H30   S    
C9    O5    A    
C14   C17   A    
C17   Cl2   S    
C18   Cl1   S    
C13   C29   S    
C28   H7    S    
Cu1   O1    S    
C30   H12   S    
C35   C36   S    
C33   C34   S    
C19   C22   T    
C26   H3    S    
C4    C6    A    
Cu1   Cu2   S    
C29   C30   S    
C7    N2    T    
C31   C32   S    
C25   H5    S    
C32   H18   S    
C36   H26   S    
C25   C26   S    
C9    C11   S    
C16   C20   S    
C1    O1    A    
C10   O6    A    
C20   C21   T    
C40   H38   S    
C36   H27   S    
C37   H35   S    
C10   C12   S    
C34   H22   S    
C6    C33   S    
C31   H19   S    
Cu2   O2    S    
C38   H32   S    
C35   H29   S    
C13   C15   A    
C14   C16   A    
C27   C28   S    
C28   H8    S    
C27   H10   S    
C15   C17   A    
C39   H39   S    
C23   C37   S    
C24   C39   S    
C32   H17   S    
C3    C5    A    
C29   H14   S    
C38   H33   S    
C14   C31   S    
C2    O2    A    
C12   C27   S    
C26   H2    S    
C5    C24   A    
C34   H23   S    
C6    C23   A    
C32   H16   S    
C36   H28   S    
Cu1   O8    S    
Cu2   O7    S    
C39   C40   S    
C16   C18   A    
C38   H31   S    
C9    O7    A    
C39   H40   S    
C10   O8    A    
C40   H36   S    
C11   C12   D    
Cu1   O5    S    
C30   H13   S    
