data_mof_unit_40016.cif
_audit_creation_date              2012-10-26T19:18:49-0400
_audit_creation_method            fapswitch 2.2
_symmetry_space_group_name_H-M    P1
_symmetry_Int_Tables_number       1
_space_group_crystal_system       triclinic
_cell_length_a                    9.71986
_cell_length_b                    10.880649
_cell_length_c                    15.464777
_cell_angle_alpha                 89.681328
_cell_angle_beta                  73.680081
_cell_angle_gamma                 89.40627
_cell_volume                      1569.54025589

loop_
_atom_site_label
_atom_site_type_symbol
_atom_type_description
_atom_site_fract_x
_atom_site_fract_y
_atom_site_fract_z
_atom_type_partial_charge
C1    C     C_R   0.997648 0.265330 0.506386 0.553281
C2    C     C_R   0.237553 0.589211 0.048709 0.041649
C3    C     C_R   0.333565 0.545056 0.096066 0.033454
C4    C     C_R   0.916747 0.500230 0.672321 0.533365
C5    C     C_R   0.090965 0.603392 0.093068 -0.147471
C6    C     C_R   0.037829 0.571615 0.183710 -0.143246
C7    C     C_R   0.274745 0.502391 0.184449 -0.108558
C8    C     C_2   0.885240 0.930060 0.558251 0.133440
C9    C     C_2   0.994979 0.867541 0.502309 -0.102733
C10   C     C_2   0.874727 0.065628 0.551161 0.119238
C11   C     C_2   0.995363 0.132852 0.520638 -0.124794
C12   C     C_R   0.677456 0.531647 0.910590 0.015842
C13   C     C_2   0.391918 0.462598 0.567843 -0.015722
C14   C     C_2   0.548568 0.445468 0.560804 0.046844
C15   C     C_R   0.998807 0.734696 0.500895 0.570951
C16   C     C_R   0.083221 0.502575 0.327788 0.544414
C17   C     C_R   0.870936 0.503459 0.771291 -0.007768
C18   C     C_R   0.130097 0.521318 0.229873 -0.016705
C19   C     C_R   0.922282 0.484954 0.914998 -0.140832
C20   C     C_R   0.969091 0.484467 0.821276 -0.135954
C21   C     C_R   0.726367 0.525729 0.816023 -0.135614
C22   C     C_3   0.812939 0.836111 0.705791 -0.289622
C23   C     C_R   0.777423 0.507400 0.959931 -0.000657
C24   C     C_3   0.647086 0.116839 0.523813 -0.296270
C25   C     C_3   0.574643 0.708836 0.506183 -0.247222
C26   C     C_3   0.561479 0.664377 0.213976 -0.133244
C27   C     C_R   0.531366 0.556401 0.957207 -0.009467
C28   C     C_R   0.483912 0.541017 0.052492 0.027238
C29   C     C_R   0.589355 0.527389 0.100300 0.255545
C30   C     C_R   0.732687 0.507421 0.053595 -0.111085
C31   C     C_R   0.431984 0.599130 0.911957 -0.141739
C32   C     C_R   0.288583 0.618140 0.957622 -0.139894
Cu1   Cu    Cu3+1 0.138640 0.500020 0.499980 0.928362
Cu2   Cu    Cu3+1 0.861360 0.499980 0.500020 0.942692
H1    H     H_    0.809692 0.493072 0.091607 0.126733
H2    H     H_    0.216428 0.652743 0.920742 0.106426
H3    H     H_    0.999414 0.467059 0.952380 0.112872
H4    H     H_    0.081383 0.466956 0.788077 0.118706
H5    H     H_    0.653023 0.535196 0.775555 0.118057
H6    H     H_    0.462951 0.623827 0.841580 0.098962
H7    H     H_    0.674970 0.904142 0.636665 0.263968
H8    H     H_    0.725416 0.781894 0.751026 0.135373
H9    H     H_    0.827192 0.921737 0.741051 0.141154
H10   H     H_    0.913148 0.780307 0.690850 0.156743
H11   H     H_    0.731580 0.203193 0.618653 0.265424
H12   H     H_    0.018011 0.641200 0.057994 0.102931
H13   H     H_    0.538747 0.153778 0.558265 0.127253
H14   H     H_    0.635590 0.020500 0.503712 0.136029
H15   H     H_    0.694185 0.172829 0.462575 0.174932
H16   H     H_    0.694826 0.612470 0.393831 0.267667
H17   H     H_    0.648347 0.785093 0.476667 0.130232
H18   H     H_    0.574342 0.696194 0.577638 0.171203
H19   H     H_    0.465128 0.735813 0.504319 0.133712
H20   H     H_    0.483322 0.719771 0.189143 0.125453
H21   H     H_    0.671593 0.701415 0.186667 0.106211
H22   H     H_    0.531275 0.673905 0.288335 0.145103
H23   H     H_    0.081124 0.912930 0.452884 0.046360
H24   H     H_    0.100088 0.089705 0.508684 0.067323
H25   H     H_    0.314597 0.440314 0.631362 0.118679
H26   H     H_    0.417982 0.496774 0.437847 0.263892
H27   H     H_    0.575301 0.387021 0.610836 0.088814
H28   H     H_    0.338987 0.451593 0.219113 0.191135
H29   H     H_    0.925656 0.588154 0.217861 0.128213
N1    N     N_2   0.346430 0.498660 0.500980 -0.339241
N2    N     N_2   0.652550 0.498630 0.501000 -0.131704
N3    N     N_2   0.776028 0.865749 0.623745 -0.495982
N4    N     N_2   0.736460 0.121621 0.584352 -0.513788
N5    N     N_2   0.618083 0.597211 0.454049 -0.426274
O1    O     O_R   0.117050 0.321960 0.499980 -0.494750
O2    O     O_R   0.882890 0.321920 0.500020 -0.492258
O3    O     O_R   0.052910 0.500040 0.629810 -0.506577
O4    O     O_R   0.818750 0.499990 0.629840 -0.512162
O5    O     O_R   0.117110 0.678080 0.499980 -0.498799
O6    O     O_R   0.882950 0.678040 0.500020 -0.466275
O7    O     O_R   0.181250 0.500010 0.370160 -0.497684
O8    O     O_R   0.947090 0.499960 0.370190 -0.500537
O9    O     O_3   0.556959 0.538873 0.192813 -0.591244

loop_
_geom_bond_atom_site_label_1
_geom_bond_atom_site_label_2
_ccdc_geom_bond_type
C8    N3    S    
C16   O7    A    
C19   C20   A    
C1    C11   S    
C26   H21   S    
C10   N4    S    
C12   C23   A    
C30   H1    S    
C32   H2    S    
C28   C29   A    
C25   H19   S    
C3    C7    A    
C5    C6    A    
C17   C20   A    
C31   H6    S    
C2    C32   A    
C22   N3    S    
C19   H3    S    
C24   N4    S    
Cu1   O7    S    
C22   H10   S    
C22   H9    S    
C8    C9    D    
H11   N4    S    
C11   H24   S    
Cu2   O2    S    
Cu1   O1    S    
C7    C18   A    
C13   C14   S    
C25   N5    S    
C26   H20   S    
Cu2   N2    S    
C6    C18   A    
C26   O9    S    
C12   C27   A    
C27   C31   A    
C24   H14   S    
C23   C30   A    
C14   H27   S    
C12   C21   A    
C1    O1    A    
C6    H29   S    
C19   C23   A    
C25   H17   S    
C7    H28   S    
C29   C30   A    
C20   H4    S    
C31   C32   A    
C21   H5    S    
N2    N5    S    
Cu1   Cu2   S    
Cu2   O6    S    
C4    C17   S    
C8    C10   S    
C15   O5    A    
C2    C5    A    
Cu2   O4    S    
C4    O4    A    
Cu1   O5    S    
C24   H15   S    
C3    C28   A    
C16   O8    A    
C24   H13   S    
C26   H22   S    
H7    N3    S    
C13   H25   S    
C5    H12   S    
C1    O2    A    
H26   N1    S    
C2    C3    A    
C9    C15   S    
C25   H18   S    
C22   H8    S    
C13   N1    D    
Cu1   N1    S    
C14   N2    D    
C9    H23   S    
C17   C21   A    
C10   C11   D    
Cu1   O3    S    
C15   O6    A    
C29   O9    S    
C16   C18   S    
C27   C28   A    
H16   N5    S    
C4    O3    A    
Cu2   O8    S    
