data_mof_unit_49561.cif
_audit_creation_date              2012-12-10T20:05:41-0500
_audit_creation_method            fapswitch 2.2
_symmetry_space_group_name_H-M    P1
_symmetry_Int_Tables_number       1
_space_group_crystal_system       triclinic
_cell_length_a                    12.851189
_cell_length_b                    19.101709
_cell_length_c                    18.49356
_cell_angle_alpha                 90.30027
_cell_angle_beta                  97.832671
_cell_angle_gamma                 90.628705
_cell_volume                      4497.06338145

loop_
_atom_site_label
_atom_site_type_symbol
_atom_type_description
_atom_site_fract_x
_atom_site_fract_y
_atom_site_fract_z
_atom_type_partial_charge
C1    C     C_R   0.499777 0.365570 0.499889 0.887320
C2    C     C_R   0.515321 0.290731 0.501444 -0.074706
C3    C     C_R   0.588421 0.964896 0.577256 -0.158476
C4    C     C_R   0.559217 0.037424 0.444990 -0.159174
C5    C     C_R   0.593125 0.037498 0.577645 -0.201871
C6    C     C_R   0.554912 0.964993 0.444609 -0.206814
C7    C     C_R   0.576296 0.073771 0.511530 0.112416
C8    C     C_R   0.566217 0.928910 0.510765 0.113181
C9    C     C_R   0.557452 0.547524 0.734776 0.126551
C10   C     C_R   0.446893 0.450138 0.265738 0.125797
C11   C     C_R   0.556069 0.545435 0.810439 -0.331031
C12   C     C_R   0.502506 0.634365 0.500322 0.883889
C13   C     C_R   0.446778 0.452592 0.189930 -0.331658
C14   C     C_R   0.496441 0.494843 0.841492 0.046916
C15   C     C_R   0.501252 0.505547 0.158303 0.047146
C16   C     C_R   0.297935 0.499093 0.485421 0.893991
C17   C     C_R   0.702140 0.499759 0.514514 0.897718
C18   C     C_R   0.437131 0.446031 0.793862 -0.068873
C19   C     C_R   0.556687 0.556459 0.205288 -0.068801
C20   C     C_R   0.440261 0.450532 0.717835 -0.048270
C21   C     C_R   0.554418 0.551951 0.281404 -0.052266
C22   C     C_R   0.402992 0.496094 0.953856 -0.159324
C23   C     C_R   0.548273 0.853707 0.509673 0.027592
C24   C     C_R   0.594401 0.504522 0.046103 -0.157960
C25   C     C_R   0.404702 0.499545 0.029918 -0.205504
C26   C     C_R   0.592722 0.500764 0.970078 -0.203848
C27   C     C_R   0.500376 0.504251 0.077047 0.119676
C28   C     C_R   0.497046 0.496158 0.922840 0.119398
C29   C     C_R   0.814436 0.497033 0.523114 -0.047803
C30   C     C_R   0.185649 0.498510 0.476191 -0.049308
C31   C     C_R   0.020523 0.529618 0.407657 -0.218868
C32   C     C_R   0.979003 0.462778 0.590594 -0.222255
C33   C     C_R   0.128417 0.524229 0.412279 -0.226396
C34   C     C_R   0.563724 0.149361 0.511830 0.029632
C35   C     C_R   0.871263 0.469981 0.586540 -0.225846
C36   C     C_R   0.135905 0.476049 0.534588 -0.272680
C37   C     C_R   0.864255 0.517107 0.463946 -0.263167
C38   C     C_R   0.028848 0.482431 0.531049 0.185719
C39   C     C_R   0.970957 0.509808 0.467225 0.182023
C40   C     C_R   0.600340 0.740430 0.470027 0.011994
C41   C     C_R   0.459187 0.246742 0.543304 0.002272
C42   C     C_R   0.614654 0.812402 0.474015 -0.237057
C43   C     C_R   0.483659 0.176189 0.548009 -0.229055
C44   C     C_R   0.622364 0.602064 0.706384 0.158370
C45   C     C_R   0.465562 0.823056 0.542191 0.022916
C46   C     C_R   0.585772 0.670973 0.698452 -0.144832
C47   C     C_R   0.649911 0.723655 0.675319 -0.136196
C48   C     C_R   0.750779 0.707908 0.660342 -0.118170
C49   C     C_R   0.788792 0.639888 0.670497 -0.154078
C50   C     C_R   0.725482 0.587435 0.694850 -0.119029
C51   C     C_R   0.390390 0.391750 0.295083 0.157254
C52   C     C_R   0.436072 0.325224 0.302004 -0.144998
C53   C     C_R   0.381736 0.269228 0.328612 -0.139214
C54   C     C_R   0.281196 0.279147 0.347467 -0.124118
C55   C     C_R   0.233987 0.344686 0.338265 -0.156524
C56   C     C_R   0.620912 0.193551 0.470218 0.017747
C57   C     C_R   0.287807 0.400585 0.311062 -0.114144
C58   C     C_R   0.374765 0.388629 0.821175 0.101880
C59   C     C_R   0.268820 0.378408 0.791910 -0.161319
C60   C     C_R   0.209984 0.323954 0.817092 -0.123787
C61   C     C_R   0.256424 0.279127 0.871329 -0.114787
C62   C     C_R   0.361926 0.288492 0.900270 -0.141767
C63   C     C_R   0.421143 0.342786 0.875155 -0.122903
C64   C     C_R   0.614622 0.615635 0.177117 0.100182
C65   C     C_R   0.564824 0.659501 0.122475 -0.123373
C66   C     C_R   0.620009 0.715324 0.096400 -0.141937
C67   C     C_R   0.452028 0.750525 0.538554 -0.269663
C68   C     C_R   0.724847 0.728182 0.125009 -0.116274
C69   C     C_R   0.774639 0.685327 0.179880 -0.126927
C70   C     C_R   0.719844 0.629358 0.206026 -0.162807
C71   C     C_1   0.674780 0.699694 0.436224 0.151566
C72   C     C_1   0.373790 0.272141 0.579259 0.143448
C73   C     C_R   0.391491 0.865277 0.578722 0.114769
C74   C     C_R   0.333171 0.918846 0.541000 -0.124831
C75   C     C_R   0.264487 0.958987 0.576099 -0.142835
C76   C     C_R   0.252739 0.945592 0.648770 -0.111996
C77   C     C_R   0.309459 0.891900 0.686405 -0.133662
C78   C     C_R   0.594994 0.264104 0.465004 -0.260805
C79   C     C_R   0.378425 0.851723 0.651566 -0.178723
C80   C     C_R   0.709050 0.167996 0.433385 0.112044
C81   C     C_R   0.711722 0.182193 0.359135 -0.177316
C82   C     C_R   0.794946 0.158447 0.324481 -0.132398
C83   C     C_R   0.876250 0.120651 0.363616 -0.113154
C84   C     C_R   0.874581 0.106633 0.437528 -0.136736
C85   C     C_R   0.791560 0.130303 0.472428 -0.125809
C86   C     C_R   0.517846 0.709491 0.501980 -0.072576
H1    H     H_    0.819825 0.537600 0.414665 0.167787
H2    H     H_    0.666588 0.500881 0.948036 0.135569
H3    H     H_    0.832281 0.452561 0.631661 0.151941
H4    H     H_    0.167204 0.542300 0.367279 0.152863
H5    H     H_    0.976329 0.550512 0.358529 0.137483
H6    H     H_    0.022987 0.441514 0.639606 0.135946
H7    H     H_    0.678527 0.836592 0.449968 0.148970
H8    H     H_    0.438228 0.141453 0.578238 0.149876
H9    H     H_    0.389035 0.725980 0.563171 0.149381
H10   H     H_    0.639659 0.299070 0.434514 0.156034
H11   H     H_    0.598152 0.936866 0.628470 0.130254
H12   H     H_    0.180789 0.455155 0.583564 0.156530
H13   H     H_    0.544348 0.065177 0.393743 0.133589
H14   H     H_    0.606124 0.065505 0.629232 0.136467
H15   H     H_    0.537568 0.937164 0.393094 0.139382
H16   H     H_    0.507635 0.683680 0.709769 0.115989
H17   H     H_    0.621353 0.776634 0.668742 0.133228
H18   H     H_    0.799879 0.748582 0.641743 0.131629
H19   H     H_    0.867619 0.627943 0.660209 0.142467
H20   H     H_    0.756603 0.535467 0.704838 0.118368
H21   H     H_    0.514184 0.317124 0.287951 0.113322
H22   H     H_    0.417901 0.218322 0.335146 0.131991
H23   H     H_    0.601252 0.584019 0.845146 0.152625
H24   H     H_    0.239555 0.235925 0.368592 0.129885
H25   H     H_    0.155520 0.352107 0.351836 0.141814
H26   H     H_    0.249756 0.450671 0.302461 0.121436
H27   H     H_    0.231601 0.412901 0.750043 0.117842
H28   H     H_    0.128336 0.316542 0.794569 0.124506
H29   H     H_    0.210743 0.237014 0.890783 0.119724
H30   H     H_    0.397954 0.253516 0.942011 0.124878
H31   H     H_    0.503144 0.348840 0.897501 0.128614
H32   H     H_    0.483253 0.650743 0.100361 0.128695
H33   H     H_    0.581366 0.748770 0.054161 0.124957
H34   H     H_    0.405076 0.412286 0.155579 0.153013
H35   H     H_    0.767410 0.771464 0.104801 0.120646
H36   H     H_    0.855770 0.695432 0.202128 0.126787
H37   H     H_    0.759673 0.596395 0.248335 0.124276
H38   H     H_    0.340707 0.929419 0.484471 0.128270
H39   H     H_    0.220200 0.000390 0.546901 0.124443
H40   H     H_    0.199499 0.976698 0.675860 0.121008
H41   H     H_    0.300144 0.881492 0.742650 0.124488
H42   H     H_    0.422403 0.810598 0.681545 0.118082
H43   H     H_    0.648942 0.211049 0.327973 0.118316
H44   H     H_    0.796356 0.169307 0.267241 0.124415
H45   H     H_    0.395991 0.413409 0.681055 0.156383
H46   H     H_    0.940630 0.102334 0.336702 0.118870
H47   H     H_    0.937807 0.077587 0.467858 0.124146
H48   H     H_    0.791966 0.119660 0.529925 0.125638
H49   H     H_    0.595167 0.590929 0.317570 0.159037
H50   H     H_    0.327991 0.494090 0.919185 0.140100
H51   H     H_    0.669334 0.506851 0.080858 0.138821
H52   H     H_    0.330938 0.499229 0.052099 0.136415
N1    N     N_R   0.500010 0.499980 0.689440 -0.114900
N2    N     N_R   0.499990 0.500020 0.310560 -0.114418
N3    N     N_1   0.735076 0.667615 0.409222 -0.245751
N4    N     N_1   0.305243 0.292393 0.607931 -0.230457
O1    O     O_R   0.500000 0.398180 0.560840 -0.621771
O2    O     O_R   0.500000 0.601820 0.439160 -0.623041
O3    O     O_R   0.499960 0.398180 0.439210 -0.609219
O4    O     O_R   0.500040 0.601820 0.560790 -0.606975
O5    O     O_R   0.346380 0.499990 0.550760 -0.627107
O6    O     O_R   0.653620 0.500010 0.449240 -0.625745
O7    O     O_R   0.346330 0.499980 0.429130 -0.627159
O8    O     O_R   0.653670 0.500020 0.570870 -0.625065
Zn1   Zn    Zn3+2 0.500030 0.500000 0.581210 0.950800
Zn2   Zn    Zn3+2 0.499970 0.500000 0.418790 0.948907

loop_
_geom_bond_atom_site_label_1
_geom_bond_atom_site_label_2
_ccdc_geom_bond_type
C74   H38   S    
C66   C68   A    
C79   H42   S    
C34   C56   A    
C23   C45   A    
C40   C71   S    
C11   H23   S    
C42   H7    S    
C76   H40   S    
C73   C74   A    
C14   C18   A    
C60   H28   S    
C17   O8    A    
C24   C27   A    
C8    C23   S    
C81   C82   A    
C53   C54   A    
C72   N4    T    
C46   H16   S    
C62   C63   A    
C23   C42   A    
C16   O5    A    
C1    O1    A    
C20   N1    A    
C19   C21   A    
C24   C26   A    
C38   C39   A    
C63   H31   S    
C11   C14   A    
C57   H26   S    
C2    C41   A    
C16   C30   S    
C48   H18   S    
C43   H8    S    
C56   C78   A    
C54   H24   S    
C45   C73   S    
C1    C2    S    
C6    H15   S    
C12   O4    A    
C46   C47   A    
C1    O3    A    
C70   H37   S    
C18   C58   S    
C47   C48   A    
C52   H21   S    
C78   H10   S    
C68   C69   A    
C9    C44   S    
C22   C25   A    
C45   C67   A    
C65   H32   S    
C31   C33   A    
C16   O7    A    
C51   C57   A    
C64   C70   A    
C82   H44   S    
N2    Zn2   S    
C77   H41   S    
C85   H48   S    
C71   N3    T    
C40   C42   A    
C59   C60   A    
C22   C28   A    
C67   H9    S    
C41   C43   A    
C61   C62   A    
C10   N2    A    
C4    C7    A    
C10   C51   S    
C44   C46   A    
C77   C79   A    
C84   H47   S    
C47   H17   S    
C74   C75   A    
C51   C52   A    
C32   C35   A    
C17   O6    A    
C76   C77   A    
C4    C6    A    
C3    C8    A    
O7    Zn2   S    
C40   C86   A    
C5    C7    A    
C6    C8    A    
C58   C59   A    
C12   O2    A    
C22   H50   S    
C60   C61   A    
C75   H39   S    
C15   C19   A    
C75   C76   A    
C61   H29   S    
C80   C85   A    
C2    C78   A    
N1    Zn1   S    
C3    H11   S    
C15   C27   S    
C83   C84   A    
C5    H14   S    
C19   C64   S    
C59   H27   S    
C73   C79   A    
C55   C57   A    
C84   C85   A    
C9    C11   A    
C41   C72   S    
C35   H3    S    
C48   C49   A    
C49   C50   A    
C32   C38   A    
C66   H33   S    
C13   C15   A    
C81   H43   S    
C7    C34   S    
C20   H45   S    
C13   H34   S    
C52   C53   A    
C44   C50   A    
C58   C63   A    
C54   C55   A    
C67   C86   A    
C30   C33   A    
C55   H25   S    
C26   C28   A    
C37   H1    S    
C34   C43   A    
O6    Zn2   S    
C80   C81   A    
C3    C5    A    
C10   C13   A    
C68   H35   S    
C49   H19   S    
C12   C86   S    
C24   H51   S    
C25   C27   A    
C29   C35   A    
C31   H5    S    
C56   C80   S    
C30   C36   A    
C64   C65   A    
C36   C38   A    
C25   H52   S    
C83   H46   S    
C37   C39   A    
C33   H4    S    
C9    N1    A    
C53   H22   S    
C32   H6    S    
C69   H36   S    
O5    Zn1   S    
O1    Zn1   S    
C31   C39   A    
C18   C20   A    
C65   C66   A    
C69   C70   A    
O3    Zn2   S    
C62   H30   S    
O4    Zn1   S    
C17   C29   S    
C26   H2    S    
C82   C83   A    
C4    H13   S    
C29   C37   A    
C50   H20   S    
O8    Zn1   S    
C36   H12   S    
C21   N2    A    
C14   C28   S    
C21   H49   S    
O2    Zn2   S    
