data_mof_unit_56577.cif
_audit_creation_date              2013-03-05T15:51:50-0500
_audit_creation_method            fapswitch 2.2
_symmetry_space_group_name_H-M    P1
_symmetry_Int_Tables_number       1
_space_group_crystal_system       triclinic
_cell_length_a                    8.543184
_cell_length_b                    17.463285
_cell_length_c                    23.017732
_cell_angle_alpha                 96.022895
_cell_angle_beta                  90.347851
_cell_angle_gamma                 96.525282
_cell_volume                      3392.42040911

loop_
_atom_site_label
_atom_site_type_symbol
_atom_site_description
_atom_site_fract_x
_atom_site_fract_y
_atom_site_fract_z
_atom_type_partial_charge
P1    P     P_3+3 0.063260 0.435680 0.369690 0.506295
O1    O     O_2   0.894270 0.458150 0.360790 -0.386414
O2    O     O_3   0.134750 0.458940 0.431830 -0.393720
O3    O     O_3   0.663190 0.596710 0.395570 -0.389334
O4    O     O_2   0.784027 0.551761 0.293555 -0.347351
O5    O     O_3   0.050141 0.335063 0.347487 -0.567697
O6    O     O_3   0.690743 0.690733 0.305961 -0.575048
H1    H     H_    0.718111 0.738950 0.392449 0.139675
C1    C     C_3   0.637448 0.821680 0.339504 -1.025193
H2    H     H_    0.749046 0.857087 0.354562 0.226098
H3    H     H_    0.620275 0.824053 0.291917 0.279900
P2    P     P_3+3 0.650710 0.674870 0.544690 0.447431
P3    P     P_3+3 0.124192 0.736896 0.430980 0.435662
O7    O     O_2   0.827090 0.686050 0.527520 -0.336053
O8    O     O_3   0.077580 0.635890 0.424230 -0.369864
O9    O     O_2   0.029835 0.764123 0.483747 -0.433459
O10   O     O_3   0.695298 0.691982 0.620065 -0.571840
O11   O     O_3   0.040930 0.783043 0.376145 -0.612706
C2    C     C_3   0.088612 0.754224 0.320483 0.978967
H4    H     H_    0.034341 0.692834 0.311712 -0.023397
C3    C     C_3   0.022923 0.801969 0.275126 0.107289
H5    H     H_    0.896173 0.806331 0.281511 0.084657
C4    C     C_3   0.174635 0.700723 0.593466 0.273508
H6    H     H_    0.256708 0.673113 0.562963 0.011417
H7    H     H_    0.059161 0.694107 0.572538 0.151013
C5    C     C_3   0.229694 0.787698 0.606795 0.121322
H8    H     H_    0.359887 0.795959 0.608423 0.063135
H9    H     H_    0.197686 0.820378 0.570356 0.067688
Ba1   Ba    Ba6+2 0.852790 0.535910 0.472200 1.554860
C6    C     C_3   0.037138 0.286381 0.392568 0.723856
H10   H     H_    0.069208 0.317173 0.436494 0.127344
C7    C     C_3   0.138659 0.220218 0.379345 -0.885667
H11   H     H_    0.104551 0.186515 0.336574 0.223130
H12   H     H_    0.127427 0.180460 0.414133 0.228990
H13   H     H_    0.262138 0.243115 0.377431 0.293847
C8    C     C_3   0.562743 0.685628 0.655620 0.354891
H14   H     H_    0.563204 0.632363 0.678198 0.086253
H15   H     H_    0.450804 0.681154 0.631295 0.102153
C9    C     C_3   0.576865 0.755102 0.702493 -0.926958
H16   H     H_    0.703361 0.774823 0.713930 0.259246
H17   H     H_    0.516933 0.738801 0.743022 0.217404
H18   H     H_    0.522573 0.804736 0.687176 0.257295
P4    P     P_3+3 0.126450 0.564380 0.630310 0.511994
O12   O     O_2   0.295430 0.541870 0.639250 -0.357444
O13   O     O_3   0.054960 0.541130 0.568170 -0.374072
O14   O     O_3   0.526510 0.403350 0.604440 -0.395372
O15   O     O_3   0.162210 0.665486 0.645376 -0.572171
P5    P     P_3+3 0.067902 0.262111 0.572699 0.471347
O16   O     O_3   0.623640 0.408350 0.471030 -0.435157
O17   O     O_3   0.112120 0.364170 0.575770 -0.356800
O18   O     O_2   0.189204 0.226246 0.531743 -0.383206
O19   O     O_3   0.107536 0.226961 0.640005 -0.547610
Ba2   Ba    Ba6+2 0.337030 0.464150 0.527810 1.546662
P6    P     P_3+3 0.646092 0.593629 0.319739 0.467583
C10   C     C_3   0.638759 0.738257 0.353862 0.404973
H19   H     H_    0.516685 0.716651 0.365336 0.106642
H20   H     H_    0.540360 0.848391 0.362512 0.277529
O20   O     O_3   0.566070 0.591710 0.528970 -0.455238
C11   C     C_3   0.534257 0.348026 0.341572 1.060083
H21   H     H_    0.574265 0.404039 0.367538 0.065962
C12   C     C_3   0.655991 0.339244 0.292667 -1.058723
H22   H     H_    0.633016 0.282527 0.265646 0.237419
H23   H     H_    0.655183 0.386994 0.264389 0.260278
H24   H     H_    0.775088 0.340743 0.310890 0.281241
P7    P     P_3+3 0.537113 0.312597 0.452060 0.416094
O21   O     O_2   0.362610 0.313970 0.472520 -0.357585
O22   O     O_3   0.529738 0.284610 0.375547 -0.639479
H25   H     H_    0.026470 0.769973 0.231002 0.081368
C13   C     C_3   0.036318 0.262958 0.689934 0.886630
C14   C     C_3   0.030123 0.206736 0.737521 -0.883558
H26   H     H_    0.149921 0.195824 0.750731 0.205870
H27   H     H_    0.971938 0.230499 0.777417 0.270074
H28   H     H_    0.963002 0.150274 0.721473 0.234444
P8    P     P_3+3 0.551321 0.411894 0.681818 0.464863
C15   C     C_3   0.488735 0.264484 0.655216 0.316239
H29   H     H_    0.585217 0.267463 0.623360 0.047911
O23   O     O_2   0.407133 0.449424 0.706240 -0.344222
O24   O     O_3   0.525263 0.318618 0.704635 -0.545450
H30   H     H_    0.381939 0.277205 0.632433 0.131719
H31   H     H_    0.472619 0.140981 0.632795 0.077614
C16   C     C_3   0.460648 0.181696 0.672541 0.101121
H32   H     H_    0.337043 0.168620 0.686316 0.105367
H33   H     H_    0.170631 0.306795 0.033174 0.162593
H34   H     H_    0.089557 0.303706 0.931407 0.159822
C17   C     C_R   0.336553 0.524685 0.332939 -0.476910
C18   C     C_R   0.030423 0.563989 0.950686 -0.063804
C19   C     C_R   0.989729 0.561942 0.890615 0.546646
O25   O     O_2   0.956893 0.620983 0.871498 -0.612433
N1    N     N_R   0.983171 0.493389 0.853717 -0.142971
C20   C     C_R   0.010036 0.425281 0.876621 0.557785
O26   O     O_2   0.989884 0.363577 0.845866 -0.629006
C21   C     C_R   0.058068 0.426050 0.935825 -0.054597
C22   C     C_R   0.067117 0.495780 0.973108 -0.013470
C23   C     C_R   0.033327 0.632528 0.989122 -0.126065
C24   C     C_R   0.070243 0.633142 0.048501 -0.135125
C25   C     C_R   0.109107 0.565660 0.071295 -0.037204
C26   C     C_R   0.109648 0.496969 0.033342 -0.011618
C27   C     C_R   0.095248 0.358366 0.958883 -0.121268
C28   C     C_R   0.141944 0.360101 0.017569 -0.118981
C29   C     C_R   0.149622 0.429186 0.055653 -0.074562
C30   C     C_R   0.196028 0.432237 0.115410 0.588166
N2    N     N_R   0.197044 0.500469 0.152383 -0.147799
C31   C     C_R   0.146285 0.565385 0.131254 0.522864
C32   C     C_2   0.786445 0.465169 0.774729 -0.309442
C33   C     C_3   0.732328 0.476461 0.714073 0.086937
C34   C     C_1   0.007766 0.518895 0.689844 0.062410
C35   C     C_2   0.050301 0.523895 0.747120 0.381644
C36   C     C_2   0.936029 0.492455 0.792181 0.043364
C37   C     C_R   0.406205 0.534569 0.230997 0.482093
C38   C     C_R   0.448198 0.547114 0.291497 0.072163
C39   C     C_R   0.186218 0.488143 0.315931 0.400857
C40   C     C_R   0.141785 0.480314 0.256276 -0.312621
C41   C     C_R   0.248988 0.504576 0.213450 0.035419
O27   O     O_2   0.234847 0.374191 0.134436 -0.603111
O28   O     O_2   0.131727 0.622994 0.164764 -0.651960
C42   C     C_2   0.868256 0.481455 0.672401 0.154796
H35   H     H_    0.069687 0.687087 0.076504 0.161811
H36   H     H_    0.005532 0.685971 0.973504 0.165752
H37   H     H_    0.701582 0.443975 0.805899 0.191541
H38   H     H_    0.025233 0.453066 0.242764 0.181680
H39   H     H_    0.370520 0.531344 0.378714 0.182286
H40   H     H_    0.462098 0.147457 0.469464 0.182630
H41   H     H_    0.295116 0.893340 0.450499 0.175872
C43   C     C_R   0.419971 0.721994 0.475666 -0.623888
C44   C     C_R   0.558064 0.748474 0.507812 0.173491
C45   C     C_R   0.612229 0.828926 0.514504 0.462658
C46   C     C_R   0.515592 0.881804 0.493355 -0.117471
C47   C     C_R   0.372298 0.853421 0.464571 -0.339005
C48   C     C_R   0.325565 0.773659 0.455423 0.334077
C49   C     C_R   0.572307 0.168278 0.492466 -0.326943
C50   C     C_R   0.629968 0.246805 0.495015 0.327680
C51   C     C_R   0.868262 0.222823 0.544179 0.133732
C52   C     C_R   0.811121 0.143272 0.542713 0.494782
C53   C     C_R   0.660931 0.116013 0.516516 -0.130639
C54   C     C_1   0.602688 0.034105 0.509104 0.034729
C55   C     C_1   0.559134 0.965130 0.502314 0.028601
C56   C     C_R   0.773680 0.274166 0.523246 -0.544193
H42   H     H_    0.379046 0.660648 0.469941 0.201493
H43   H     H_    0.819026 0.334720 0.524115 0.218605
O29   O     O_3   0.174801 0.817636 0.661524 -0.568151
C57   C     C_3   0.029708 0.847074 0.654348 -0.067413
H44   H     H_    0.942079 0.803641 0.629559 0.192239
H45   H     H_    0.047137 0.901184 0.632521 0.112226
H46   H     H_    0.980889 0.861724 0.698131 0.136258
C58   C     C_3   0.869962 0.249356 0.391280 -1.002447
H47   H     H_    0.832380 0.222650 0.346675 0.272184
H48   H     H_    0.853271 0.203791 0.421407 0.227585
H49   H     H_    0.803000 0.297649 0.403848 0.249476
O30   O     O_3   0.381073 0.354409 0.319283 -0.660425
C59   C     C_3   0.334701 0.299184 0.270853 -0.176251
H50   H     H_    0.360122 0.239857 0.278247 0.139030
H51   H     H_    0.391171 0.317317 0.230389 0.183024
H52   H     H_    0.206348 0.296920 0.262888 0.205665
C60   C     C_3   0.137261 0.337402 0.713222 -0.750428
H53   H     H_    0.078140 0.368853 0.748929 0.240874
H54   H     H_    0.250551 0.324239 0.730890 0.252517
H55   H     H_    0.157445 0.376277 0.678628 0.263426
C61   C     C_3   0.867544 0.280347 0.679464 -0.852003
H56   H     H_    0.862972 0.326413 0.650269 0.226259
H57   H     H_    0.798326 0.227087 0.659594 0.232458
H58   H     H_    0.813407 0.300014 0.721348 0.274699
O31   O     O_3   0.574254 0.168748 0.714391 -0.595840
C62   C     C_3   0.507906 0.168196 0.770317 -0.091470
H59   H     H_    0.418081 0.117091 0.771702 0.110245
H60   H     H_    0.455352 0.222662 0.783653 0.153883
H61   H     H_    0.602715 0.163613 0.802484 0.151810
O32   O     O_3   0.521648 0.538531 0.189127 -0.593383
C63   C     C_3   0.544902 0.613461 0.170644 -0.203787
H62   H     H_    0.641163 0.649587 0.197140 0.192330
H63   H     H_    0.436676 0.643751 0.171468 0.121270
H64   H     H_    0.584176 0.607776 0.124590 0.168030
O33   O     O_3   0.206293 0.542997 0.764283 -0.580097
C64   C     C_3   0.238131 0.624152 0.776998 -0.058743
H65   H     H_    0.132316 0.655460 0.785203 0.143039
H66   H     H_    0.302996 0.647916 0.740343 0.161535
H67   H     H_    0.315510 0.636745 0.816527 0.132674
O34   O     O_3   0.255426 0.761087 0.317857 -0.630641
C65   C     C_3   0.300874 0.717053 0.267251 -0.328048
H68   H     H_    0.275609 0.744000 0.227188 0.204275
H69   H     H_    0.246028 0.656345 0.265226 0.151068
H70   H     H_    0.428830 0.715756 0.267857 0.192567
O35   O     O_3   0.834898 0.461749 0.614281 -0.643950
C66   C     C_3   0.746165 0.518193 0.596268 0.218186
H71   H     H_    0.818028 0.573557 0.592826 0.125901
H72   H     H_    0.648226 0.533271 0.624735 0.046144
H73   H     H_    0.691822 0.493177 0.554811 0.222612
O36   O     O_3   0.909919 0.092695 0.561363 -0.604658
C67   C     C_3   0.850270 0.061146 0.612045 -0.214402
H74   H     H_    0.778660 0.099460 0.639506 0.147197
H75   H     H_    0.951418 0.049993 0.639126 0.168535
H76   H     H_    0.778303 0.004726 0.600442 0.170097
O37   O     O_3   0.751569 0.854863 0.545269 -0.634085
C68   C     C_3   0.862514 0.891159 0.508370 -0.125171
H77   H     H_    0.848968 0.952840 0.506875 0.149605
H78   H     H_    0.857929 0.862064 0.462831 0.153906
H79   H     H_    0.982137 0.891247 0.527186 0.169483
O38   O     O_3   0.115583 0.874502 0.274518 -0.559974
C69   C     C_3   0.042607 0.933947 0.306064 -0.120360
H80   H     H_    0.024461 0.922706 0.352284 0.139718
H81   H     H_    0.929128 0.941703 0.284852 0.119765
H82   H     H_    0.120848 0.989156 0.306214 0.152477

loop_
_geom_bond_atom_site_label_1
_geom_bond_atom_site_label_2
_geom_bond_distance
_ccdc_geom_bond_type
C10   H19   1.111110 S    
C45   C46   1.426181 A    
O8    Ba1   2.761132 S    
P2    Ba1   3.433787 S    
C23   H36   1.084618 S    
C16   O31   1.416067 S    
C33   C42   1.511369 S    
C39   C40   1.410932 A    
O14   Ba2   2.758240 S    
O6    C10   1.413989 S    
C15   H29   1.106958 S    
C47   C48   1.398198 A    
C26   C29   1.413801 A    
C16   H32   1.110047 S    
H41   C47   1.083939 S    
C21   C27   1.412300 A    
C54   C55   1.213136 T    
C9    H17   1.114401 S    
Ba1   O16   2.791252 S    
C64   H65   1.115586 S    
C24   H35   1.084695 S    
C56   H43   1.082167 S    
C5    H8    1.105095 S    
C30   N2    1.388850 Am   
O16   P7    1.759297 S    
P3    O11   1.755375 S    
C67   H76   1.106893 S    
C43   H42   1.082577 S    
C8    H14   1.112487 S    
C2    C3    1.543375 S    
O11   C2    1.406552 S    
C5    O29   1.415931 S    
C66   H72   1.104216 S    
C6    H10   1.111550 S    
C34   C35   1.356666 D    
O38   C69   1.409974 S    
P6    C38   1.872008 S    
C67   H75   1.109230 S    
P1    O1    1.556370 D    
C4    C5    1.536357 S    
C12   H23   1.110951 S    
O35   C66   1.403539 S    
C21   C22   1.408469 A    
O19   C13   1.424757 S    
C37   O32   1.384304 S    
C61   H58   1.110552 S    
C11   O22   1.418404 S    
O30   C59   1.418405 S    
O12   Ba2   2.817492 S    
P4    Ba2   3.430336 S    
C63   H64   1.111717 S    
C24   C25   1.410979 A    
C51   C52   1.416055 A    
P7    O22   1.776398 S    
C59   H52   1.106240 S    
C42   O35   1.365952 S    
P2    O10   1.761196 S    
C35   C36   1.529794 S    
C17   H39   1.082029 S    
C14   H26   1.108583 S    
C1    C10   1.528536 S    
O10   C8    1.402225 S    
C18   C23   1.409502 A    
C1    H2    1.108363 S    
C2    O34   1.418710 S    
C60   H54   1.104698 S    
O3    Ba1   2.758882 S    
C68   H77   1.100404 S    
C37   C41   1.424995 A    
C32   H37   1.085555 S    
P2    O20   1.552642 S    
P5    O17   1.773269 S    
O13   Ba2   2.996440 S    
C11   H21   1.108927 S    
H33   C28   1.084716 S    
C3    H5    1.103765 S    
C61   H57   1.098354 S    
C30   O27   1.223555 D    
C40   C41   1.414382 A    
C13   C14   1.543103 S    
C69   H82   1.108670 S    
H1    C10   1.112283 S    
C32   C33   1.507501 S    
P7    C50   1.833837 S    
C58   H47   1.111833 S    
C9    H18   1.115463 S    
C35   O33   1.381396 S    
C11   O30   1.423130 S    
C69   H81   1.111109 S    
P5    O18   1.546094 D    
C11   C12   1.544835 S    
O17   Ba2   2.761667 S    
C4    O15   1.399486 S    
C58   H48   1.107066 S    
N2    C31   1.390897 Am   
C65   H70   1.095990 S    
C7    H13   1.087674 S    
C65   H68   1.109122 S    
O4    P6    1.548685 D    
C62   H61   1.109309 S    
O29   C57   1.410051 S    
C60   H55   1.101454 S    
C17   C38   1.406287 A    
C57   H46   1.109176 S    
O32   C63   1.411200 S    
C40   H38   1.082650 S    
C18   C19   1.419501 A    
C15   C16   1.533020 S    
P2    C44   1.857741 S    
C68   H78   1.114276 S    
C51   C56   1.392691 A    
P8    O23   1.541923 D    
P1    O5    1.768399 S    
C34   C42   1.330866 D    
C67   H74   1.109275 S    
P1    O2    1.547551 S    
P4    C34   1.897133 S    
C7    H12   1.111272 S    
C61   H56   1.104798 S    
C12   H24   1.094675 S    
C31   O28   1.220361 D    
C66   H71   1.095320 S    
C50   C56   1.396343 A    
C18   C22   1.412578 A    
C1    H3    1.109925 S    
C20   C21   1.419077 A    
C28   C29   1.409840 A    
P3    O8    1.753891 S    
C4    H6    1.108542 S    
C68   H79   1.107307 S    
C25   C26   1.408386 A    
C14   H28   1.109046 S    
P1    Ba1   3.429929 S    
C13   C61   1.529674 S    
C23   C24   1.399483 A    
C46   C55   1.453069 S    
C45   O37   1.386939 S    
Ba2   O21   2.824682 S    
P4    O13   1.547531 S    
O14   P8    1.780978 S    
C60   H53   1.098013 S    
C69   H80   1.110547 S    
C64   H66   1.103648 S    
C63   H62   1.114231 S    
O5    C6    1.406019 S    
P2    O7    1.556103 D    
O34   C65   1.408653 S    
P4    O15   1.754630 S    
O1    Ba1   2.816983 S    
P4    O12   1.556690 D    
C44   C45   1.420464 A    
C59   H51   1.110469 S    
C66   H73   1.085361 S    
O7    Ba1   2.824495 S    
C46   C47   1.402358 A    
C22   C26   1.428565 A    
C32   C36   1.355253 D    
C58   H49   1.087503 S    
C8    H15   1.096105 S    
O33   C64   1.411584 S    
C6    C58   1.498111 S    
O31   C62   1.410227 S    
C64   H67   1.109458 S    
O3    P6    1.745353 S    
C8    C9    1.530035 S    
C3    O38   1.416770 S    
H31   C16   1.110918 S    
C17   C39   1.401856 A    
C25   C31   1.414951 A    
C65   H69   1.105489 S    
Ba2   O20   2.790694 S    
C53   C54   1.452127 S    
C5    H9    1.112268 S    
C13   C60   1.521331 S    
H34   C27   1.084382 S    
C7    H11   1.111974 S    
C2    H4    1.116030 S    
C57   H45   1.111786 S    
C49   C50   1.398531 A    
O36   C67   1.415082 S    
C3    H25   1.108951 S    
N2    C41   1.463511 S    
C37   C38   1.424089 A    
O37   C68   1.416930 S    
P8    C33   1.904715 S    
C6    C7    1.528741 S    
O2    Ba2   2.784086 S    
O2    Ba1   2.995608 S    
C20   O26   1.219904 D    
C52   C53   1.424113 A    
Ba1   Ba2   4.666246 S    
O16   Ba2   2.994498 S    
N1    C36   1.468154 S    
C63   H63   1.115480 S    
C29   C30   1.423070 A    
C43   C48   1.389500 A    
C1    H20   1.107918 S    
P7    O21   1.568169 D    
C12   H22   1.109693 S    
C49   C53   1.403842 A    
C15   O24   1.409959 S    
C62   H59   1.112193 S    
C52   O36   1.386155 S    
C9    H16   1.117460 S    
P5    O19   1.769734 S    
C4    H7    1.084091 S    
Ba1   O20   2.995210 S    
C19   O25   1.222620 D    
C27   C28   1.402453 A    
P8    O24   1.754205 S    
P3    O9    1.526072 D    
Ba1   O13   2.783309 S    
C19   N1    1.388694 Am   
P3    C48   1.830243 S    
C59   H50   1.112300 S    
P5    C51   1.853788 S    
C62   H60   1.112640 S    
C14   H27   1.111323 S    
O6    P6    1.757544 S    
N1    C20   1.391909 Am   
C57   H44   1.111864 S    
C15   H30   1.105209 S    
H40   C49   1.083860 S    
P1    C39   1.873218 S    
C43   C44   1.395262 A    
