data_mof_unit_48908.cif
_audit_creation_date              2012-12-11T17:23:08-0500
_audit_creation_method            fapswitch 2.2
_symmetry_space_group_name_H-M    P1
_symmetry_Int_Tables_number       1
_space_group_crystal_system       triclinic
_cell_length_a                    22.364594
_cell_length_b                    7.091922
_cell_length_c                    19.413273
_cell_angle_alpha                 89.917681
_cell_angle_beta                  99.630499
_cell_angle_gamma                 89.918418
_cell_volume                      3035.69873073

loop_
_atom_site_label
_atom_site_type_symbol
_atom_type_description
_atom_site_fract_x
_atom_site_fract_y
_atom_site_fract_z
_atom_type_partial_charge
O1    O     O_R   0.443980 0.494320 0.557430 -0.535999
O2    O     O_R   0.556020 0.994320 0.442570 -0.535075
O3    O     O_R   0.441210 0.822520 0.414610 -0.547407
O4    O     O_R   0.558790 0.322520 0.585390 -0.548240
C1    C     C_R   0.426954 0.655461 0.388511 0.751483
C2    C     C_R   0.572977 0.154952 0.611504 0.750230
O5    O     O_R   0.436920 0.823940 0.555180 -0.532163
O6    O     O_R   0.563080 0.323940 0.444820 -0.532914
O7    O     O_R   0.551700 0.995760 0.584140 -0.528626
O8    O     O_R   0.448300 0.495760 0.415860 -0.530480
C3    C     C_R   0.421696 0.655412 0.575001 0.716237
C4    C     C_R   0.578329 0.155389 0.425040 0.714883
O9    O     O_3   0.537660 0.661290 0.509340 -0.371974
O10   O     O_3   0.462340 0.161290 0.490660 -0.372477
V1    V     V_3+5 0.493010 0.935560 0.498270 1.434284
V2    V     V_3+5 0.506990 0.435560 0.501730 1.431626
C5    C     C_R   0.766895 0.931866 0.227506 -0.156481
C6    C     C_R   0.232917 0.431735 0.772227 -0.154179
H1    H     H_    0.779725 0.794065 0.210809 0.111444
H2    H     H_    0.219728 0.293832 0.788450 0.112068
C7    C     C_R   0.793269 0.095100 0.204616 0.136026
C8    C     C_R   0.206980 0.595062 0.795694 0.135451
C9    C     C_R   0.775781 0.271874 0.227195 -0.158251
C10   C     C_R   0.224938 0.771971 0.773733 -0.154059
H3    H     H_    0.795560 0.399611 0.210239 0.111931
H4    H     H_    0.205509 0.899784 0.791149 0.113182
C11   C     C_R   0.732602 0.285248 0.271958 -0.155703
C12   C     C_R   0.268115 0.785384 0.728970 -0.153295
H5    H     H_    0.719792 0.423045 0.288683 0.112305
H6    H     H_    0.281273 0.923285 0.712705 0.112571
C13   C     C_R   0.706253 0.122021 0.294871 0.135430
C14   C     C_R   0.293995 0.622063 0.705443 0.135286
C15   C     C_R   0.723702 0.945244 0.272260 -0.159888
C16   C     C_R   0.276110 0.445152 0.727476 -0.158032
C17   C     C_1   0.838293 0.081540 0.158472 -0.062811
C18   C     C_1   0.161884 0.581479 0.841745 -0.058657
C19   C     C_1   0.661393 0.135649 0.341194 -0.064711
C20   C     C_1   0.338786 0.635716 0.659036 -0.061549
C21   C     C_1   0.623753 0.145784 0.379639 -0.179678
C22   C     C_1   0.376354 0.645851 0.620504 -0.178253
C23   C     C_1   0.876122 0.071587 0.120244 -0.187462
C24   C     C_1   0.123984 0.571536 0.879883 -0.184589
C25   C     C_R   0.630829 0.093704 0.804414 -0.234983
C26   C     C_R   0.368746 0.622820 0.194646 -0.234721
H7    H     H_    0.713067 0.067733 0.918874 0.123249
H8    H     H_    0.286139 0.611897 0.080093 0.122957
H9    H     H_    0.612324 0.079639 0.852355 0.118147
H10   H     H_    0.387092 0.622717 0.146350 0.118814
C27   C     C_R   0.614416 0.142815 0.679211 -0.100743
C28   C     C_R   0.385348 0.645789 0.320854 -0.100825
C29   C     C_R   0.911539 0.068954 0.760691 -0.230357
C30   C     C_R   0.089144 0.547891 0.239217 -0.247570
C31   C     C_R   0.876104 0.054733 0.694729 0.292379
C32   C     C_R   0.125282 0.523833 0.305001 0.296606
C33   C     C_R   0.812007 0.051211 0.687512 0.219254
C34   C     C_R   0.189270 0.526512 0.310901 0.226082
C35   C     C_R   0.783395 0.079397 0.747455 0.009612
C36   C     C_R   0.216977 0.573704 0.251781 0.005906
C37   C     C_R   0.821232 0.076703 0.814940 0.013386
C38   C     C_R   0.178778 0.581938 0.184692 0.013007
C39   C     C_R   0.718685 0.101693 0.743755 0.107731
C40   C     C_R   0.281355 0.603808 0.255773 0.106849
C41   C     C_R   0.693844 0.089057 0.806348 0.092243
C42   C     C_R   0.305881 0.609440 0.192865 0.092297
C43   C     C_R   0.731871 0.074510 0.870955 -0.184354
C44   C     C_R   0.267627 0.604817 0.128199 -0.184615
C45   C     C_R   0.794407 0.074491 0.875391 -0.153841
C46   C     C_R   0.205158 0.597368 0.124138 -0.154534
C47   C     C_R   0.677574 0.141847 0.681094 -0.262497
C48   C     C_R   0.322308 0.634996 0.319248 -0.262631
C49   C     C_R   0.590963 0.116890 0.741294 0.286472
C50   C     C_R   0.408646 0.638020 0.258085 0.284077
C51   C     C_R   0.885355 0.072249 0.820849 -0.145092
C52   C     C_R   0.114852 0.569084 0.179113 -0.137149
H11   H     H_    0.692965 0.177816 0.633111 0.163815
H12   H     H_    0.306685 0.657621 0.368123 0.163767
H13   H     H_    0.960538 0.066756 0.765199 0.139545
H14   H     H_    0.040263 0.538312 0.233431 0.130223
H15   H     H_    0.821711 0.068944 0.926976 0.103679
H16   H     H_    0.177597 0.600158 0.072669 0.103524
O11   O     O_R   0.051730 0.724670 0.084120 -0.534262
O12   O     O_R   0.948270 0.224670 0.915880 -0.533862
O13   O     O_R   0.063080 0.393540 0.944820 -0.536906
O14   O     O_R   0.936920 0.893540 0.055180 -0.537263
C53   C     C_R   0.078254 0.562094 0.924924 0.715446
C54   C     C_R   0.921776 0.062106 0.075105 0.714534
O15   O     O_R   0.058800 0.395030 0.085390 -0.536448
O16   O     O_R   0.941200 0.895030 0.914610 -0.536030
O17   O     O_R   0.943980 0.223310 0.057440 -0.533841
O18   O     O_R   0.056020 0.723310 0.942560 -0.533654
C55   C     C_R   0.073091 0.563349 0.111245 0.710664
C56   C     C_R   0.926976 0.063860 0.888733 0.712469
O19   O     O_3   0.962360 0.556290 0.990650 -0.369938
O20   O     O_3   0.037640 0.056290 0.009350 -0.370046
V3    V     V_3+5 0.006980 0.281990 0.001730 1.426128
V4    V     V_3+5 0.993020 0.781990 0.998270 1.425893
H17   H     H_    0.703917 0.817526 0.289229 0.112310
H18   H     H_    0.295538 0.317356 0.710037 0.111927
N1    N     N_2   0.777393 0.002099 0.621631 -0.550015
H19   H     H_    0.792229 0.058113 0.578473 0.259404
C57   C     C_3   0.761083 0.804920 0.614365 -0.557906
H20   H     H_    0.802377 0.716412 0.616350 0.189869
H21   H     H_    0.731060 0.782317 0.563431 0.198284
H22   H     H_    0.736164 0.760691 0.656626 0.217069
N2    N     N_2   0.224952 0.463315 0.374531 -0.546940
H23   H     H_    0.208973 0.499759 0.419545 0.272372
C58   C     C_3   0.244500 0.268805 0.373810 -0.554014
H24   H     H_    0.204720 0.172970 0.368129 0.191890
H25   H     H_    0.275010 0.235694 0.423590 0.199681
H26   H     H_    0.269948 0.244149 0.330148 0.216454
N3    N     N_2   0.906397 0.032553 0.636322 -0.520622
H27   H     H_    0.886511 0.940594 0.598264 0.262496
C59   C     C_3   0.925510 0.207640 0.608645 -0.562173
H28   H     H_    0.951459 0.177199 0.565910 0.202050
H29   H     H_    0.955380 0.287326 0.650074 0.211107
H30   H     H_    0.885362 0.295242 0.587445 0.185800
N4    N     N_2   0.098555 0.483523 0.365461 -0.523826
H31   H     H_    0.112021 0.358003 0.390183 0.262154
C60   C     C_3   0.036003 0.534530 0.366477 -0.555051
H32   H     H_    0.026879 0.525318 0.420863 0.201650
H33   H     H_    0.005019 0.435663 0.333604 0.189815
H34   H     H_    0.027141 0.681844 0.347933 0.206839
N5    N     N_2   0.527201 0.113535 0.740530 -0.529574
H35   H     H_    0.514290 0.023071 0.777027 0.252688
C61   C     C_3   0.499831 0.297934 0.742765 -0.546342
H36   H     H_    0.517296 0.368215 0.793254 0.187836
H37   H     H_    0.449860 0.282929 0.737667 0.197693
H38   H     H_    0.509619 0.387665 0.699124 0.209043
N6    N     N_2   0.472295 0.645518 0.258457 -0.530926
H39   H     H_    0.486342 0.560969 0.220985 0.252809
C62   C     C_3   0.496356 0.834560 0.257330 -0.543551
H40   H     H_    0.477594 0.905718 0.207303 0.186875
H41   H     H_    0.546511 0.827933 0.262288 0.198264
H42   H     H_    0.485051 0.918909 0.301525 0.210485

loop_
_geom_bond_atom_site_label_1
_geom_bond_atom_site_label_2
_ccdc_geom_bond_type
C36   C40   A    
C44   C46   A    
O16   V4    S    
O4    V2    S    
C57   H20   S    
O15   C55   A    
C11   H5    S    
N5    H35   S    
C18   C24   T    
N3    H27   S    
O1    C3    A    
C62   H42   S    
O2    C4    A    
C2    O7    A    
C41   C43   A    
C25   C41   A    
C50   N6    S    
C26   C42   A    
O5    C3    A    
C23   C54   S    
N2    C58   S    
C49   N5    S    
C20   C22   T    
C10   H4    S    
H8    C44   S    
C30   C52   A    
N4    C60   S    
C35   C37   A    
C36   C38   A    
O12   C56   A    
C40   C48   A    
O14   V4    S    
C38   C52   A    
C35   C39   A    
C39   C41   A    
C28   C50   A    
C40   C42   A    
C37   C45   A    
O16   C56   A    
C43   C45   A    
O15   V3    S    
C61   H38   S    
C58   H24   S    
C13   C15   A    
C26   C50   A    
C9    C11   A    
C37   C51   A    
C15   H17   S    
C59   H30   S    
C31   N3    S    
C31   C33   A    
O6    V2    S    
C27   C47   A    
C58   H25   S    
C3    C22   S    
C5    C15   A    
C30   H14   S    
C30   C32   A    
C60   H33   S    
C53   O18   A    
C32   C34   A    
C11   C13   A    
C29   C51   A    
C12   C14   A    
C45   H15   S    
O4    C2    A    
C24   C53   S    
O11   V4    S    
C5    H1    S    
C62   H41   S    
C5    C7    A    
C13   C19   S    
C29   C31   A    
C42   C44   A    
C52   C55   S    
O17   V3    S    
C29   H13   S    
N1    H19   S    
O6    C4    A    
O13   V3    S    
N3    C59   S    
O1    V2    S    
O20   V4    S    
O2    V1    S    
C6    C16   A    
N1    C57   S    
O19   V4    S    
C14   C20   S    
C7    C9    A    
H7    C43   S    
C61   H36   S    
C58   H26   S    
C8    C10   A    
C1    C28   S    
O9    V2    S    
C46   H16   S    
O3    V1    S    
C59   H28   S    
C60   H34   S    
C39   C47   A    
C25   C49   A    
O12   V3    S    
O13   C53   A    
C6    C8    A    
C10   C12   A    
C51   C56   S    
O14   C54   A    
O3    C1    A    
C54   O17   A    
C60   H32   S    
O18   V4    S    
C7    C17   S    
C57   H22   S    
C8    C18   S    
N2    H23   S    
C4    C21   S    
C33   C35   A    
N6    H39   S    
C12   H6    S    
C19   C21   T    
O8    V2    S    
N4    H31   S    
C48   H12   S    
O19   V3    S    
O5    V1    S    
C16   H18   S    
C34   C36   A    
C47   H11   S    
C6    H2    S    
C9    H3    S    
C2    C27   S    
C28   C48   A    
O20   V3    S    
C17   C23   T    
C34   N2    S    
N5    C61   S    
O11   C55   A    
C26   H10   S    
C1    O8    A    
C38   C46   A    
C57   H21   S    
C27   C49   A    
C32   N4    S    
C33   N1    S    
C61   H37   S    
O10   V1    S    
N6    C62   S    
C25   H9    S    
C62   H40   S    
O7    V1    S    
C14   C16   A    
C59   H29   S    
