data_mof_unit_6166.cif
_audit_creation_date              2012-12-11T14:32:53-0500
_audit_creation_method            fapswitch 2.2
_symmetry_space_group_name_H-M    P1
_symmetry_Int_Tables_number       1
_space_group_crystal_system       triclinic
_cell_length_a                    6.963009
_cell_length_b                    13.841592
_cell_length_c                    18.089229
_cell_angle_alpha                 112.951263
_cell_angle_beta                  95.145994
_cell_angle_gamma                 90.585754
_cell_volume                      1596.99549645

loop_
_atom_site_label
_atom_site_type_symbol
_atom_type_description
_atom_site_fract_x
_atom_site_fract_y
_atom_site_fract_z
_atom_type_partial_charge
O1    O     O_R   0.484560 0.544530 0.414330 -0.542156
O2    O     O_R   0.197040 0.638810 0.585080 -0.546180
O3    O     O_R   0.026800 0.455470 0.585670 -0.563597
C1    C     C_R   0.373147 0.682597 0.601519 0.673087
O4    O     O_R   0.155000 0.556150 0.414940 -0.554281
O5    O     O_R   0.984450 0.372220 0.414320 -0.555091
C2    C     C_R   0.318272 0.564678 0.386597 0.739012
O6    O     O_R   0.526900 0.627780 0.585680 -0.546170
O7    O     O_3   0.339170 0.439750 0.499990 -0.357980
V1    V     V_3+5 0.064350 0.511180 0.500000 1.381890
O8    O     O_R   0.654880 0.361190 0.414920 -0.484540
C3    C     C_R   0.816966 0.325362 0.385690 0.786146
O9    O     O_R   0.696930 0.443850 0.585060 -0.515679
C4    C     C_R   0.871852 0.426420 0.607401 0.774488
V2    V     V_3+5 0.564340 0.488820 0.500000 1.519843
O10   O     O_3   0.839390 0.560250 0.500010 -0.397070
C5    C     C_R   0.042522 0.855432 0.821561 -0.034718
C6    C     C_R   0.901068 0.380668 0.668526 -0.149806
C7    C     C_R   0.934698 0.807607 0.680657 -0.121196
C8    C     C_R   0.977899 0.779207 0.745733 -0.151362
C9    C     C_R   0.049359 0.961892 0.833333 -0.191261
C10   C     C_R   0.000832 0.993107 0.767944 0.084633
C11   C     C_R   0.953577 0.912749 0.690506 0.103929
C12   C     C_R   0.999821 0.100434 0.775945 0.057353
C13   C     C_R   0.964094 0.125050 0.705640 0.053999
C14   C     C_R   0.962472 0.040353 0.630776 -0.079671
C15   C     C_R   0.940243 0.937030 0.622677 -0.219979
C16   C     C_R   0.038008 0.183270 0.851669 -0.166957
C17   C     C_R   0.043984 0.286107 0.859223 -0.185694
C18   C     C_R   0.001253 0.312037 0.792719 0.090588
C19   C     C_R   0.949814 0.233216 0.713534 -0.027402
C20   C     C_R   0.010453 0.418542 0.807161 -0.131367
C21   C     C_R   0.964103 0.451949 0.745914 -0.211871
C22   C     C_R   0.887361 0.269891 0.649710 0.292920
H1    H     H_    0.926978 0.875087 0.562709 0.132795
H2    H     H_    0.976890 0.535310 0.759334 0.110537
H3    H     H_    0.079272 0.346976 0.919000 0.123077
H4    H     H_    0.889954 0.747014 0.621925 0.145338
H5    H     H_    0.963017 0.697332 0.736664 0.087293
H6    H     H_    0.093256 0.017390 0.893787 0.106749
H7    H     H_    0.994309 0.051474 0.577744 0.213247
H8    H     H_    0.065489 0.171590 0.907008 0.138968
H9    H     H_    0.055007 0.477285 0.866953 0.138813
H10   H     H_    0.862858 0.025675 0.209708 0.134221
C23   C     C_2   0.132228 0.047770 0.172356 0.306923
C24   C     C_2   0.974152 0.083164 0.212892 -0.212916
H11   H     H_    0.744446 0.155212 0.331575 0.191430
C25   C     C_2   0.820532 0.218148 0.322688 -0.231405
C26   C     C_2   0.937853 0.195121 0.262558 0.265601
C27   C     C_R   0.408432 0.790928 0.665686 -0.074340
C28   C     C_R   0.537813 0.477206 0.821934 -0.047735
C29   C     C_R   0.527984 0.893313 0.805043 0.174152
C30   C     C_R   0.471225 0.797234 0.742124 -0.157009
C31   C     C_R   0.404040 0.885240 0.651586 -0.223782
C32   C     C_R   0.456767 0.986275 0.715926 0.060951
C33   C     C_R   0.519502 0.987488 0.793015 0.118013
C34   C     C_R   0.449341 0.086163 0.707797 0.044187
C35   C     C_R   0.503004 0.183160 0.776288 0.064317
C36   C     C_R   0.563505 0.177691 0.850397 -0.180393
C37   C     C_R   0.573660 0.082701 0.858182 -0.189308
C38   C     C_R   0.386084 0.092968 0.634226 -0.105824
C39   C     C_R   0.368517 0.189601 0.627853 -0.088336
C40   C     C_R   0.423598 0.283645 0.693219 0.069786
C41   C     C_R   0.493958 0.282810 0.768728 0.084257
C42   C     C_R   0.409074 0.378722 0.683017 -0.097833
C43   C     C_R   0.464186 0.474179 0.746602 -0.157843
C44   C     C_R   0.550880 0.382029 0.833175 -0.197342
H12   H     H_    0.625792 0.085454 0.917176 0.155352
H13   H     H_    0.604360 0.388700 0.892761 0.095031
H14   H     H_    0.447406 0.546209 0.737066 0.091898
H15   H     H_    0.316346 0.190387 0.569930 0.182083
H16   H     H_    0.480120 0.725350 0.752470 0.080755
H17   H     H_    0.360069 0.877496 0.590794 0.109125
H18   H     H_    0.605770 0.245971 0.904419 0.131945
H19   H     H_    0.346022 0.024201 0.580120 0.144691
H20   H     H_    0.353638 0.379141 0.625347 0.154842
H21   H     H_    0.333802 0.666452 0.195208 0.151345
H22   H     H_    0.615133 0.590826 0.306993 0.147608
C45   C     C_2   0.315584 0.601495 0.319162 -0.315531
C46   C     C_2   0.476880 0.610536 0.284984 -0.099741
H23   H     H_    0.771314 0.636740 0.205694 0.128082
C47   C     C_2   0.633410 0.656152 0.183156 -0.332580
C48   C     C_2   0.472105 0.646818 0.217229 -0.108926
H24   H     H_    0.177733 0.620943 0.296611 0.125930
O11   O     O_R   0.421600 0.630430 0.917010 -0.545060
O12   O     O_R   0.793840 0.702190 0.087630 -0.543402
O13   O     O_R   0.964010 0.886170 0.088190 -0.545809
C49   C     C_R   0.630605 0.693329 0.115888 0.765484
O14   O     O_R   0.751460 0.619510 0.917500 -0.545841
O15   O     O_R   0.921330 0.802900 0.916840 -0.532293
C50   C     C_R   0.574264 0.581123 0.890493 0.661623
O16   O     O_R   0.464290 0.713700 0.088350 -0.536476
O17   O     O_3   0.609200 0.818520 0.002630 -0.364677
V3    V     V_3+5 0.884140 0.747190 0.002530 1.407222
O18   O     O_R   0.251150 0.814630 0.917340 -0.561898
C51   C     C_R   0.075237 0.823729 0.890081 0.703531
O19   O     O_R   0.293530 0.897310 0.087470 -0.491576
C52   C     C_R   0.131059 0.936131 0.114007 0.645524
V4    V     V_3+5 0.384070 0.769710 0.002370 1.443975
O20   O     O_3   0.109180 0.698190 0.002460 -0.378867
N1    N     N_3   0.007696 0.276517 0.239481 -0.543763
H25   H     H_    0.104461 0.328541 0.285562 0.270521
H26   H     H_    0.890696 0.318067 0.229271 0.204697
S1    S     S_3+6 0.335719 0.132263 0.181745 -0.009308
O21   O     O_2   0.286581 0.197123 0.133191 -0.343207
O22   O     O_2   0.385317 0.203633 0.268776 -0.331260
O23   O     O_3   0.529363 0.063473 0.147299 -0.512021
H27   H     H_    0.602971 0.106397 0.125610 0.347355
N2    N     N_3   0.600597 0.894606 0.881604 -0.634629
H28   H     H_    0.592600 0.817554 0.877383 0.267900
H29   H     H_    0.508148 0.937139 0.923889 0.239546
S2    S     S_3+6 0.790058 0.187631 0.547534 -0.065303
O24   O     O_2   0.687157 0.088083 0.540020 -0.332780
O25   O     O_2   0.646062 0.243282 0.513663 -0.345749
O26   O     O_3   0.972135 0.156140 0.488568 -0.520501
H30   H     H_    0.025287 0.224039 0.490960 0.314687

loop_
_geom_bond_atom_site_label_1
_geom_bond_atom_site_label_2
_ccdc_geom_bond_type
C13   C19   A    
C18   C20   A    
C32   C33   A    
C40   C42   A    
O17   V3    S    
C22   S2    S    
C4    C6    S    
O2    C1    A    
O18   C51   A    
C1    O6    A    
C21   H2    S    
S2    O25   D    
H23   C47   S    
O11   C50   A    
C43   H14   S    
C23   C24   D    
C38   H19   S    
C24   C26   S    
C14   C15   A    
C39   C40   A    
C42   H20   S    
C16   C17   A    
C7    H4    S    
C23   C52   S    
N2    H29   S    
O5    C3    A    
C18   C19   A    
O18   V4    S    
H21   C48   S    
O26   H30   S    
O13   V3    S    
O19   C52   A    
C5    C8    A    
O14   V3    S    
S2    O24   D    
O12   V3    S    
C28   C50   S    
O8    V2    S    
V4    O20   S    
O23   H27   S    
O1    V2    S    
C11   C15   A    
O14   C50   A    
O7    V1    S    
O17   V4    S    
C3    C25   S    
O13   C52   A    
C36   C37   A    
N1    H26   S    
O9    C4    A    
C46   C48   S    
S1    O22   D    
S1    O21   D    
O19   V4    S    
H10   C24   S    
O15   V3    S    
C35   C41   A    
C27   C30   A    
V2    O10   S    
O12   C49   A    
N1    H25   S    
C49   O16   A    
C12   C13   A    
O4    C2    A    
C8    H5    S    
C28   C44   A    
C15   H1    S    
C13   C14   A    
C14   H7    S    
C5    C9    A    
C33   C37   A    
C1    C27   S    
C44   H13   S    
C28   C43   A    
C7    C11   A    
C41   C44   A    
C17   C18   A    
O11   V4    S    
C23   S1    S    
C31   H17   S    
H11   C25   S    
V3    O20   S    
C19   C22   A    
C5    C51   S    
C27   C31   A    
C34   C38   A    
C6    C22   A    
C36   H18   S    
O3    C4    A    
C25   C26   D    
C42   C43   A    
O6    V2    S    
O9    V2    S    
C10   C12   A    
C45   C46   D    
O2    V1    S    
C29   C30   A    
C2    C45   S    
C31   C32   A    
O1    C2    A    
C12   C16   A    
O5    V1    S    
O8    C3    A    
O15   C51   A    
C20   C21   A    
C7    C8    A    
C32   C34   A    
C35   C36   A    
O4    V1    S    
O3    V1    S    
V1    O10   S    
N2    H28   S    
C26   N1    S    
C34   C35   A    
C45   H24   S    
C9    H6    S    
C29   N2    S    
C47   C49   S    
C16   H8    S    
C20   H9    S    
C39   H15   S    
H22   C46   S    
S2    O26   S    
O7    V2    S    
C38   C39   A    
C6    C21   A    
C40   C41   A    
C37   H12   S    
C47   C48   D    
C17   H3    S    
C10   C11   A    
C9    C10   A    
C30   H16   S    
S1    O23   S    
C29   C33   A    
O16   V4    S    
