data_mof_unit_13060.cif
_audit_creation_date              2012-12-11T15:55:45-0500
_audit_creation_method            fapswitch 2.2
_symmetry_space_group_name_H-M    P1
_symmetry_Int_Tables_number       1
_space_group_crystal_system       triclinic
_cell_length_a                    6.942844
_cell_length_b                    14.556088
_cell_length_c                    16.144525
_cell_angle_alpha                 90.036812
_cell_angle_beta                  90.371241
_cell_angle_gamma                 89.651916
_cell_volume                      1631.51150806

loop_
_atom_site_label
_atom_site_type_symbol
_atom_type_description
_atom_site_fract_x
_atom_site_fract_y
_atom_site_fract_z
_atom_type_partial_charge
O1    O     O_R   0.505680 0.583900 0.413320 -0.540379
O2    O     O_R   0.176010 0.594950 0.586080 -0.543449
O3    O     O_R   0.005680 0.416100 0.586680 -0.527783
C1    C     C_R   0.344620 0.615925 0.615681 0.693147
O4    O     O_R   0.175960 0.594930 0.413930 -0.544276
O5    O     O_R   0.005640 0.416080 0.413300 -0.531324
C2    C     C_R   0.344539 0.617287 0.385038 0.681131
O6    O     O_R   0.505720 0.583920 0.586700 -0.541567
O7    O     O_3   0.339190 0.441320 0.500000 -0.366963
V1    V     V_3+5 0.064350 0.510890 0.500000 1.415888
O8    O     O_R   0.675920 0.405050 0.413920 -0.555105
C3    C     C_R   0.843691 0.381995 0.385251 0.680348
O9    O     O_R   0.675960 0.405070 0.586070 -0.556843
C4    C     C_R   0.845700 0.383877 0.615437 0.704555
V2    V     V_3+5 0.564340 0.489110 0.500000 1.380105
O10   O     O_3   0.839370 0.558680 0.500000 -0.370927
C5    C     C_R   0.988123 0.242444 0.683045 0.011192
C6    C     C_R   0.856117 0.315781 0.683730 -0.132751
C7    C     C_R   0.718390 0.316412 0.747958 -0.216979
H1    H     H_    0.606966 0.368779 0.749048 0.120636
C8    C     C_R   0.726031 0.250780 0.812664 -0.162633
H2    H     H_    0.621591 0.255164 0.862060 0.118498
C9    C     C_R   0.873111 0.183396 0.815565 -0.111009
C10   C     C_R   0.992606 0.177485 0.746344 -0.079530
C11   C     C_3   0.203339 0.160428 0.737135 0.251423
C12   C     C_3   0.202822 0.237597 0.671979 0.235347
H3    H     H_    0.285708 0.179594 0.793754 0.056402
H4    H     H_    0.273117 0.302515 0.692633 0.020029
C13   C     C_R   0.024408 0.250332 0.196887 -0.174354
H5    H     H_    0.150288 0.252056 0.157650 0.124143
C14   C     C_R   0.010764 0.312286 0.263077 -0.158989
H6    H     H_    0.126952 0.360490 0.272638 0.124175
C15   C     C_R   0.849276 0.313387 0.315563 -0.102095
C16   C     C_R   0.696278 0.250165 0.298832 0.118677
C17   C     C_R   0.715508 0.187944 0.232354 -0.135197
H7    H     H_    0.604441 0.138456 0.219232 0.135034
C18   C     C_R   0.878021 0.186658 0.181818 -0.087743
C19   C     C_R   0.201997 0.696674 0.739588 -0.163373
H8    H     H_    0.070040 0.658137 0.732174 0.120267
C20   C     C_R   0.217891 0.759220 0.805394 -0.219185
H9    H     H_    0.097725 0.766807 0.847205 0.123506
C21   C     C_R   0.385286 0.812111 0.816936 -0.060460
C22   C     C_R   0.542661 0.797207 0.761753 0.152907
C23   C     C_R   0.525237 0.732657 0.697446 -0.189522
H10   H     H_    0.644234 0.722517 0.655208 0.121879
C24   C     C_R   0.355827 0.683008 0.684888 -0.065420
C25   C     C_R   0.188153 0.725294 0.281872 -0.160604
H11   H     H_    0.047445 0.707207 0.305104 0.115646
C26   C     C_R   0.199910 0.788739 0.216774 -0.149902
H12   H     H_    0.067402 0.817636 0.192136 0.118914
C27   C     C_R   0.379531 0.814539 0.184044 -0.045780
C28   C     C_R   0.547054 0.775096 0.218555 -0.160725
H13   H     H_    0.687759 0.793206 0.195335 0.115725
C29   C     C_R   0.535297 0.711649 0.283655 -0.150524
H14   H     H_    0.667802 0.682767 0.308312 0.119128
C30   C     C_R   0.355655 0.685740 0.316296 -0.046941
O11   O     O_R   0.229200 0.915950 0.913350 -0.536454
O12   O     O_R   0.559090 0.905000 0.086080 -0.545185
O13   O     O_R   0.729280 0.083880 0.086680 -0.543048
C31   C     C_R   0.390563 0.882755 0.115108 0.678030
O14   O     O_R   0.558920 0.904980 0.913920 -0.541261
O15   O     O_R   0.729110 0.083860 0.913300 -0.536154
C32   C     C_R   0.390927 0.881859 0.885423 0.713113
O16   O     O_R   0.229360 0.915970 0.086730 -0.541542
O17   O     O_3   0.395680 0.058580 0.000030 -0.368954
V3    V     V_3+5 0.670570 0.989070 0.999990 1.396189
O18   O     O_R   0.058820 0.094950 0.913870 -0.537422
C33   C     C_R   0.888742 0.117291 0.885416 0.704750
O19   O     O_R   0.058990 0.094970 0.086020 -0.543523
C34   C     C_R   0.890097 0.118199 0.113748 0.688291
V4    V     V_3+5 0.170560 0.010930 0.999930 1.412501
O20   O     O_3   0.895590 0.941310 0.999960 -0.374017
C35   C     C_3   0.729889 0.849402 0.766748 -0.383747
C36   C     C_3   0.702543 0.949432 0.741342 -0.669298
H15   H     H_    0.690886 0.953907 0.672944 0.201165
H16   H     H_    0.572337 0.981121 0.768822 0.252283
H17   H     H_    0.828896 0.988720 0.762940 0.204285
H18   H     H_    0.795393 0.843497 0.829209 0.194340
H19   H     H_    0.838778 0.818640 0.724791 0.167571
O21   O     O_3   0.257114 0.070641 0.708664 -0.547732
C37   C     C_3   0.136674 0.030741 0.646597 0.158906
H20   H     H_    0.177367 0.052988 0.583850 0.182587
H21   H     H_    0.981722 0.046149 0.653504 0.112647
C38   C     C_3   0.162893 0.927406 0.648606 -0.773098
H22   H     H_    0.125418 0.902379 0.710941 0.246428
H23   H     H_    0.067124 0.894471 0.602068 0.181439
H24   H     H_    0.314795 0.908882 0.634985 0.233869
O22   O     O_3   0.257935 0.208088 0.592237 -0.553976
C39   C     C_3   0.461791 0.204375 0.587672 0.153609
H25   H     H_    0.536040 0.205598 0.648811 0.134495
H26   H     H_    0.509930 0.264118 0.551548 0.147797
C40   C     C_3   0.529265 0.116677 0.545005 -0.789033
H27   H     H_    0.434643 0.099949 0.491937 0.235593
H28   H     H_    0.679602 0.124896 0.523212 0.182545
H29   H     H_    0.526316 0.058403 0.588966 0.233457
C41   C     C_3   0.514943 0.248595 0.351428 -0.315013
C42   C     C_3   0.377056 0.168255 0.337136 -0.798265
H30   H     H_    0.317578 0.169547 0.273472 0.230911
H31   H     H_    0.452305 0.101677 0.347536 0.220327
H32   H     H_    0.254360 0.173792 0.380709 0.242459
H33   H     H_    0.560496 0.245204 0.416899 0.188423
H34   H     H_    0.432517 0.313183 0.341001 0.193343

loop_
_geom_bond_atom_site_label_1
_geom_bond_atom_site_label_2
_ccdc_geom_bond_type
C22   C35   S    
C41   H34   S    
C11   O21   S    
C35   C36   S    
C4    C6    S    
C17   H7    S    
C38   H24   S    
C1    O6    A    
C42   H32   S    
C37   H20   S    
C25   C26   A    
C1    C24   S    
C23   H10   S    
C36   H16   S    
C5    C12   S    
C7    C8    A    
C38   H23   S    
C6    C7    A    
O13   V3    S    
O5    C3    A    
C19   H8    S    
O12   C31   A    
V2    O10   S    
C42   H30   S    
O14   C32   A    
C16   C17   A    
O16   V4    S    
O19   V4    S    
C42   H31   S    
O8    V2    S    
O14   V3    S    
O12   V3    S    
V3    O20   S    
C7    H1    S    
C23   C24   A    
C26   C27   A    
C36   H17   S    
C35   H18   S    
C14   C15   A    
O1    V2    S    
C39   H26   S    
O7    V1    S    
C20   C21   A    
C8    H2    S    
C2    C30   S    
C37   H21   S    
C28   C29   A    
O11   C32   A    
C29   C30   A    
C5    C10   A    
C36   H15   S    
O15   V3    S    
C27   C28   A    
C41   H33   S    
C10   C11   S    
O4    C2    A    
C11   C12   S    
O17   V4    S    
C40   H29   S    
O11   V4    S    
O18   C33   A    
C9    C33   S    
O2    C1    A    
C22   C23   A    
C13   H5    S    
C25   H11   S    
C9    C10   A    
C41   C42   S    
C40   H28   S    
C5    C6    A    
C35   H19   S    
C38   H22   S    
C39   C40   S    
O3    C4    A    
C20   H9    S    
O17   V3    S    
O6    V2    S    
C8    C9    A    
C21   C22   A    
O2    V1    S    
C37   C38   S    
C28   H13   S    
C29   H14   S    
C17   C18   A    
O1    C2    A    
C14   H6    S    
C16   C41   S    
O21   C37   S    
O5    V1    S    
O8    C3    A    
C11   H3    S    
C12   H4    S    
O15   C33   A    
C31   O16   A    
C18   C34   S    
O9    V2    S    
O7    V2    S    
O4    V1    S    
C13   C14   A    
O3    V1    S    
V1    O10   S    
C19   C20   A    
C3    C15   S    
C40   H27   S    
C15   C16   A    
O18   V4    S    
O19   C34   A    
C19   C24   A    
O13   C34   A    
V4    O20   S    
O22   C39   S    
C12   O22   S    
C26   H12   S    
C13   C18   A    
C27   C31   S    
C39   H25   S    
O9    C4    A    
C21   C32   S    
C25   C30   A    
