data_mof_unit_58287.cif
_audit_creation_date              2012-12-10T16:36:43-0500
_audit_creation_method            fapswitch 2.2
_symmetry_space_group_name_H-M    P1
_symmetry_Int_Tables_number       1
_space_group_crystal_system       triclinic
_cell_length_a                    14.028
_cell_length_b                    16.469345
_cell_length_c                    15.13862
_cell_angle_alpha                 89.474487
_cell_angle_beta                  91.751331
_cell_angle_gamma                 89.980044
_cell_volume                      3495.72374192

loop_
_atom_site_label
_atom_site_type_symbol
_atom_type_description
_atom_site_fract_x
_atom_site_fract_y
_atom_site_fract_z
_atom_type_partial_charge
C1    C     C_R   0.680900 0.845219 0.521303 0.866222
C2    C     C_R   0.949875 0.502876 0.109654 -0.284998
C3    C     C_R   0.580766 0.286165 0.399883 -0.143158
C4    C     C_R   0.200943 0.231604 0.374542 0.150587
C5    C     C_R   0.249943 0.221858 0.295518 -0.106130
C6    C     C_R   0.203535 0.234568 0.213520 -0.160707
C7    C     C_R   0.107558 0.256994 0.209130 -0.099798
C8    C     C_R   0.057069 0.264168 0.286660 -0.155240
C9    C     C_R   0.102629 0.249654 0.368765 -0.144484
C10   C     C_R   0.149321 0.807977 0.431140 0.157992
C11   C     C_R   0.097536 0.876719 0.455936 -0.117734
C12   C     C_R   0.011154 0.896363 0.412269 -0.131506
C13   C     C_R   0.608980 0.047398 0.126560 -0.022521
C14   C     C_R   0.976342 0.848065 0.343046 -0.111493
C15   C     C_R   0.028067 0.780231 0.317128 -0.174087
C16   C     C_R   0.114280 0.760329 0.360821 -0.140040
C17   C     C_R   0.123086 0.499939 0.124323 -0.014662
C18   C     C_R   0.610319 0.057236 0.035199 -0.253915
C19   C     C_R   0.127786 0.494515 0.032940 -0.262484
C20   C     C_2   0.254150 0.224220 0.462000 -0.168860
C21   C     C_2   0.240472 0.786533 0.479009 -0.177945
C22   C     C_2   0.752988 0.723248 0.464207 -0.171943
C23   C     C_2   0.736695 0.291151 0.486937 -0.177344
C24   C     C_2   0.749018 0.780195 0.526824 -0.367274
C25   C     C_R   0.680916 0.154661 0.519422 0.878132
C26   C     C_2   0.753368 0.216164 0.518594 -0.365654
C27   C     C_2   0.248117 0.279549 0.526292 -0.357166
C28   C     C_2   0.253404 0.715921 0.522391 -0.380144
C29   C     C_R   0.321362 0.157263 0.477922 0.820963
C30   C     C_R   0.318339 0.844994 0.481774 0.836122
C31   C     C_R   0.821135 0.657038 0.478391 0.835365
C32   C     C_R   0.817803 0.345762 0.482943 0.815220
C33   C     C_R   0.521304 0.001100 0.260542 0.809658
C34   C     C_R   0.021529 0.500937 0.260196 0.800072
C35   C     C_R   0.477753 0.999464 0.738464 0.832892
C36   C     C_R   0.181054 0.345338 0.521552 0.863860
C37   C     C_R   0.976400 0.499754 0.737947 0.846813
C38   C     C_R   0.531516 0.006627 0.164702 -0.069837
C39   C     C_R   0.032575 0.501745 0.163696 -0.082232
C40   C     C_R   0.469142 0.996905 0.834274 -0.120736
C41   C     C_R   0.968042 0.499541 0.833199 -0.108982
C42   C     C_R   0.393977 0.939539 0.963783 -0.056846
C43   C     C_R   0.870309 0.506272 0.963112 -0.050855
C44   C     C_R   0.396114 0.949890 0.871487 -0.085008
C45   C     C_R   0.877643 0.507021 0.870486 -0.090615
C46   C     C_R   0.539606 0.034382 0.887927 -0.101527
C47   C     C_R   0.181496 0.653963 0.520828 0.869863
C48   C     C_R   0.051582 0.493883 0.886176 -0.095456
C49   C     C_R   0.689064 0.081283 0.180124 0.145971
C50   C     C_R   0.765173 0.030885 0.208099 -0.095928
C51   C     C_R   0.838268 0.061431 0.263126 -0.117441
C52   C     C_R   0.836335 0.142461 0.289597 -0.082669
C53   C     C_R   0.762356 0.193587 0.259653 -0.153468
C54   C     C_R   0.688560 0.163114 0.205204 -0.185183
C55   C     C_R   0.214903 0.508778 0.174314 0.161479
C56   C     C_R   0.283663 0.446796 0.173710 -0.143168
C57   C     C_R   0.372167 0.457449 0.217076 -0.168504
C58   C     C_R   0.537909 0.024054 0.980184 0.101271
C59   C     C_R   0.392434 0.529785 0.261507 -0.132223
C60   C     C_R   0.324553 0.591886 0.261777 -0.123721
C61   C     C_R   0.236763 0.581985 0.217124 -0.110782
C62   C     C_R   0.321345 0.885181 0.002235 0.121519
C63   C     C_R   0.226299 0.910694 0.008026 -0.131416
C64   C     C_R   0.158163 0.858289 0.042758 -0.123922
C65   C     C_R   0.184478 0.780231 0.071382 -0.105193
C66   C     C_R   0.279052 0.754538 0.065523 -0.149068
C67   C     C_R   0.347434 0.806865 0.031388 -0.183237
C68   C     C_R   0.774912 0.514423 0.002336 0.125751
C69   C     C_R   0.044984 0.495824 0.978557 0.110048
C70   C     C_R   0.727450 0.589527 0.999650 -0.134815
C71   C     C_R   0.637257 0.596969 0.035592 -0.134730
C72   C     C_R   0.594217 0.529731 0.074814 -0.095450
C73   C     C_R   0.641113 0.454777 0.077776 -0.129341
C74   C     C_R   0.731116 0.446947 0.041426 -0.177983
C75   C     C_R   0.320872 0.912762 0.813369 0.151033
C76   C     C_R   0.317152 0.828264 0.801668 -0.093648
C77   C     C_R   0.246742 0.794199 0.746080 -0.123111
C78   C     C_R   0.179999 0.844086 0.701774 -0.101476
C79   C     C_R   0.183695 0.928193 0.712664 -0.173576
C80   C     C_R   0.463815 0.978030 0.018267 0.090636
C81   C     C_R   0.253868 0.962536 0.768217 -0.176809
C82   C     C_R   0.790676 0.516007 0.812491 0.116800
C83   C     C_R   0.723344 0.453098 0.806855 -0.125120
C84   C     C_R   0.640377 0.462544 0.754122 -0.154239
C85   C     C_R   0.624329 0.534690 0.706599 -0.131984
C86   C     C_R   0.691193 0.597487 0.711672 -0.143515
C87   C     C_R   0.773930 0.588435 0.764732 -0.150761
C88   C     C_R   0.616655 0.081727 0.846220 0.124319
C89   C     C_R   0.697048 0.041945 0.814468 -0.171559
C90   C     C_R   0.766964 0.086099 0.770925 -0.165107
C91   C     C_R   0.954353 0.501060 0.017277 0.085892
C92   C     C_R   0.756745 0.169931 0.758616 -0.104396
C93   C     C_R   0.676739 0.209737 0.790060 -0.114553
C94   C     C_R   0.607011 0.165956 0.834197 -0.112722
C95   C     C_R   0.145633 0.487996 0.843642 0.097533
C96   C     C_R   0.177447 0.413102 0.812175 -0.125374
C97   C     C_R   0.264911 0.407878 0.770638 -0.154980
C98   C     C_R   0.321227 0.477193 0.760746 -0.119625
C99   C     C_R   0.290097 0.551884 0.792273 -0.154594
C100  C     C_R   0.202341 0.557506 0.833317 -0.159555
C101  C     C_R   0.694512 0.727696 0.380179 0.155440
C102  C     C_R   0.460586 0.972050 0.110553 -0.274395
C103  C     C_R   0.739805 0.729031 0.298615 -0.111103
C104  C     C_R   0.686145 0.736869 0.219600 -0.145325
C105  C     C_R   0.586894 0.743306 0.221266 -0.108614
C106  C     C_R   0.541083 0.740721 0.301866 -0.161338
C107  C     C_R   0.594331 0.731855 0.380955 -0.152203
C108  C     C_R   0.639511 0.322911 0.464763 0.166441
C109  C     C_R   0.605918 0.391448 0.508961 -0.119189
C110  C     C_R   0.514291 0.421536 0.489947 -0.161003
C111  C     C_R   0.456151 0.384223 0.425781 -0.093236
C112  C     C_R   0.489881 0.317262 0.380157 -0.163032
H1    H     H_    0.402787 0.940058 0.141475 0.176879
H2    H     H_    0.895998 0.022169 0.285838 0.118821
H3    H     H_    0.891934 0.165410 0.333659 0.115491
H4    H     H_    0.761527 0.256521 0.279677 0.135239
H5    H     H_    0.630515 0.202743 0.183777 0.117346
H6    H     H_    0.268973 0.390763 0.139048 0.125261
H7    H     H_    0.425189 0.409778 0.215898 0.130998
H8    H     H_    0.460851 0.537843 0.295309 0.147185
H9    H     H_    0.339942 0.647890 0.296044 0.120983
H10   H     H_    0.185568 0.631138 0.215587 0.094333
H11   H     H_    0.205187 0.970851 0.985505 0.124946
H12   H     H_    0.881519 0.506326 0.140542 0.186846
H13   H     H_    0.084896 0.878071 0.047202 0.125384
H14   H     H_    0.131560 0.739640 0.097830 0.118445
H15   H     H_    0.299451 0.694004 0.086955 0.138597
H16   H     H_    0.420431 0.786247 0.026769 0.120521
H17   H     H_    0.760247 0.642046 0.969566 0.120283
H18   H     H_    0.600729 0.654870 0.033034 0.116622
H19   H     H_    0.524488 0.535720 0.102708 0.134138
H20   H     H_    0.607640 0.402732 0.108082 0.122644
H21   H     H_    0.766741 0.388573 0.043691 0.130290
H22   H     H_    0.368961 0.789052 0.835108 0.116636
H23   H     H_    0.669272 0.090475 0.007719 0.157939
H24   H     H_    0.243975 0.729189 0.736988 0.124676
H25   H     H_    0.125604 0.817589 0.658788 0.152102
H26   H     H_    0.132165 0.966791 0.678065 0.124300
H27   H     H_    0.256081 0.027806 0.776177 0.121005
H28   H     H_    0.735042 0.397233 0.843836 0.121291
H29   H     H_    0.588414 0.414051 0.750145 0.126177
H30   H     H_    0.560055 0.541967 0.665928 0.116190
H31   H     H_    0.678642 0.653351 0.674904 0.139670
H32   H     H_    0.824516 0.637992 0.769218 0.141214
H33   H     H_    0.704876 0.976858 0.822683 0.124062
H34   H     H_    0.197732 0.492184 0.004683 0.159225
H35   H     H_    0.828693 0.055260 0.746149 0.125585
H36   H     H_    0.810504 0.203971 0.724299 0.134707
H37   H     H_    0.668288 0.274336 0.779462 0.117472
H38   H     H_    0.544815 0.197220 0.857548 0.119475
H39   H     H_    0.134291 0.359078 0.819471 0.135348
H40   H     H_    0.289053 0.350101 0.746154 0.124315
H41   H     H_    0.388998 0.473012 0.728739 0.121113
H42   H     H_    0.334043 0.605357 0.784855 0.124192
H43   H     H_    0.178600 0.615704 0.857167 0.138429
H44   H     H_    0.816706 0.725093 0.296285 0.110917
H45   H     H_    0.286055 0.271355 0.589412 0.150547
H46   H     H_    0.721615 0.738569 0.157110 0.124524
H47   H     H_    0.545463 0.750220 0.160171 0.116653
H48   H     H_    0.464315 0.746051 0.303131 0.120543
H49   H     H_    0.557416 0.728686 0.442626 0.136514
H50   H     H_    0.650376 0.420906 0.558811 0.120707
H51   H     H_    0.488424 0.473824 0.524785 0.121700
H52   H     H_    0.385281 0.407532 0.410938 0.169721
H53   H     H_    0.445970 0.289737 0.329021 0.110160
H54   H     H_    0.605172 0.233777 0.364477 0.118835
H55   H     H_    0.324369 0.204925 0.296999 0.110391
H56   H     H_    0.321632 0.700246 0.554001 0.151588
H57   H     H_    0.242386 0.227837 0.153335 0.123830
H58   H     H_    0.072108 0.268132 0.145659 0.130232
H59   H     H_    0.982499 0.281085 0.283110 0.120455
H60   H     H_    0.060837 0.252910 0.427419 0.129076
H61   H     H_    0.123572 0.914541 0.509591 0.107318
H62   H     H_    0.971157 0.948997 0.432164 0.127705
H63   H     H_    0.909462 0.863338 0.309371 0.123919
H64   H     H_    0.001429 0.743044 0.263198 0.114729
H65   H     H_    0.153813 0.707942 0.340016 0.125099
H66   H     H_    0.790378 0.774731 0.588465 0.149180
H67   H     H_    0.826147 0.195533 0.531772 0.144482
H68   H     H_    0.766573 0.967662 0.188976 0.114315
O1    O     O_3   0.500000 0.000000 0.500000 -0.486048
O2    O     O_R   0.885830 0.337110 0.539910 -0.648708
O3    O     O_R   0.692160 0.095230 0.468550 -0.649419
O4    O     O_R   0.692160 0.904770 0.468550 -0.629656
O5    O     O_R   0.192160 0.595230 0.468550 -0.651391
O6    O     O_R   0.192160 0.404770 0.468550 -0.631896
O7    O     O_R   0.316720 0.904790 0.427870 -0.638732
O8    O     O_R   0.316720 0.095210 0.427870 -0.646926
O9    O     O_R   0.816720 0.404790 0.427870 -0.640829
O10   O     O_R   0.816720 0.595210 0.427870 -0.641503
O11   O     O_R   0.594900 0.000000 0.310900 -0.631890
O12   O     O_3   0.000000 0.500000 0.500000 -0.481191
O13   O     O_R   0.094900 0.500000 0.310900 -0.630625
O14   O     O_R   0.483090 0.932320 0.697550 -0.641207
O15   O     O_R   0.483090 0.067680 0.697550 -0.637561
O16   O     O_R   0.983090 0.432320 0.697550 -0.646304
O17   O     O_R   0.983090 0.567680 0.697550 -0.649826
O18   O     O_R   0.438930 0.000000 0.294000 -0.645312
O19   O     O_R   0.938930 0.500000 0.294000 -0.647907
O20   O     O_R   0.605310 0.837110 0.563680 -0.655765
O21   O     O_R   0.605310 0.162890 0.563680 -0.614242
O22   O     O_R   0.105310 0.337110 0.563680 -0.649980
O23   O     O_R   0.105310 0.662890 0.563680 -0.633318
O24   O     O_R   0.385830 0.162890 0.539910 -0.636926
O25   O     O_R   0.385830 0.837110 0.539910 -0.640905
O26   O     O_R   0.885830 0.662890 0.539910 -0.641482
Zn1   Zn    Zn3+2 0.493670 0.096680 0.574000 0.974175
Zn2   Zn    Zn3+2 0.493670 0.903320 0.574000 0.957935
Zn3   Zn    Zn3+2 0.993670 0.596680 0.574000 0.964821
Zn4   Zn    Zn3+2 0.993670 0.403320 0.574000 0.955457
Zn5   Zn    Zn3+2 0.617760 0.000000 0.438070 0.970701
Zn6   Zn    Zn3+2 0.117760 0.500000 0.438070 0.972793
Zn7   Zn    Zn3+2 0.394920 1.000000 0.413930 0.966423
Zn8   Zn    Zn3+2 0.894920 0.500000 0.413930 0.965601

loop_
_geom_bond_atom_site_label_1
_geom_bond_atom_site_label_2
_ccdc_geom_bond_type
C101  C107  A    
C55   C56   A    
O7    Zn7   S    
C28   C47   S    
C42   C80   A    
C59   H8    S    
C48   C95   S    
O6    Zn6   S    
C92   H36   S    
O19   Zn8   S    
C73   C74   A    
C93   H37   S    
C111  C112  A    
C48   C69   A    
C97   C98   A    
C7    C8    A    
C77   C78   A    
C56   C57   A    
C89   H33   S    
C31   O10   A    
C90   H35   S    
C22   C101  S    
C42   C44   A    
C62   C67   A    
C72   H19   S    
C33   O18   A    
C32   O2    A    
C52   H3    S    
O1    Zn1   S    
C25   O21   A    
C109  H50   S    
C5    C6    A    
C57   C59   A    
C45   C82   S    
C106  C107  A    
C112  H53   S    
C68   C74   A    
C82   C87   A    
C74   H21   S    
O2    Zn4   S    
C66   H15   S    
C17   C39   A    
C23   C26   D    
C49   C50   A    
C110  C111  A    
C104  C105  A    
C35   O14   A    
C2    C39   A    
C18   C58   A    
O12   Zn6   S    
C95   C96   A    
C8    C9    A    
C70   C71   A    
C77   H24   S    
C108  C109  A    
C87   H32   S    
C47   O5    A    
C49   C54   A    
C17   C55   S    
C8    H59   S    
C35   O15   A    
C57   H7    S    
O16   Zn4   S    
C5    H55   S    
C66   C67   A    
C73   H20   S    
C59   C60   A    
O20   Zn2   S    
C29   O24   A    
C46   C58   A    
C2    C91   A    
C36   O22   A    
O22   Zn4   S    
C34   O19   A    
O12   Zn8   S    
C83   H28   S    
C1    O4    A    
C86   H31   S    
C46   C88   S    
C20   C29   S    
C10   C21   S    
O12   Zn3   S    
C88   C94   A    
C11   H61   S    
C51   H2    S    
C22   C31   S    
C51   C52   A    
C19   H34   S    
C37   O16   A    
C107  H49   S    
O1    Zn2   S    
C76   C77   A    
C31   O26   A    
C10   C11   A    
C79   C81   A    
C76   H22   S    
C95   C100  A    
C75   C81   A    
O13   Zn6   S    
C99   H42   S    
C25   C26   S    
C85   C86   A    
C30   O25   A    
C82   C83   A    
C70   H17   S    
C43   C91   A    
C34   C39   S    
C80   C102  A    
C60   C61   A    
C14   H63   S    
C44   C75   S    
C40   C46   A    
C75   C76   A    
C26   H67   S    
C62   C63   A    
C43   C45   A    
C103  H44   S    
C90   C92   A    
C83   C84   A    
O24   Zn1   S    
C40   C44   A    
C3    C112  A    
C11   C12   A    
C96   C97   A    
C50   C51   A    
O21   Zn1   S    
O5    Zn6   S    
C47   O23   A    
C18   H23   S    
C93   C94   A    
C52   C53   A    
C84   C85   A    
O10   Zn8   S    
O12   Zn4   S    
C13   C38   A    
C13   C49   S    
C13   C18   A    
C34   O13   A    
C68   C70   A    
C21   C28   D    
C12   C14   A    
C98   C99   A    
C37   O17   A    
C24   H66   S    
C3    C108  A    
C22   C24   D    
C19   C69   A    
C1    O20   A    
C94   H38   S    
C78   H25   S    
C96   H39   S    
C16   H65   S    
C100  H43   S    
O4    Zn5   S    
C12   H62   S    
C21   C30   S    
O25   Zn2   S    
C81   H27   S    
C42   C62   S    
C86   C87   A    
C56   H6    S    
O23   Zn3   S    
C111  H52   S    
C23   C32   S    
C104  H46   S    
C72   C73   A    
C85   H30   S    
C63   H11   S    
O8    Zn7   S    
C29   O8    A    
C53   C54   A    
C6    C7    A    
C20   C27   D    
C2    H12   S    
C27   C36   S    
C27   H45   S    
O14   Zn2   S    
C105  C106  A    
C43   C68   S    
C33   C38   S    
C99   C100  A    
O1    Zn5   S    
C33   O11   A    
C53   H4    S    
C65   H14   S    
C35   C40   S    
C89   C90   A    
C71   C72   A    
C38   C102  A    
C102  H1    S    
C10   C16   A    
C109  C110  A    
C30   O7    A    
C110  H51   S    
C41   C48   A    
C78   C79   A    
O26   Zn3   S    
C105  H47   S    
C84   H29   S    
C106  H48   S    
C23   C108  S    
C55   C61   A    
C64   C65   A    
C92   C93   A    
C17   C19   A    
C97   H40   S    
C32   O9    A    
C36   O6    A    
C65   C66   A    
C37   C41   S    
C60   H9    S    
C58   C80   A    
C98   H41   S    
O17   Zn3   S    
O9    Zn8   S    
C28   H56   S    
C67   H16   S    
C63   C64   A    
C4    C20   S    
C25   O3    A    
C50   H68   S    
C4    C5    A    
C79   H26   S    
O15   Zn1   S    
C88   C89   A    
C1    C24   S    
C101  C103  A    
C64   H13   S    
C54   H5    S    
C7    H58   S    
C103  C104  A    
C41   C45   A    
C14   C15   A    
C61   H10   S    
C9    H60   S    
O1    Zn7   S    
C4    C9    A    
C69   C91   A    
O18   Zn7   S    
O3    Zn5   S    
C15   C16   A    
C3    H54   S    
O11   Zn5   S    
C71   H18   S    
C6    H57   S    
C15   H64   S    
