data_mof_unit_49220.cif
_audit_creation_date              2012-12-10T17:17:54-0500
_audit_creation_method            fapswitch 2.2
_symmetry_space_group_name_H-M    P1
_symmetry_Int_Tables_number       1
_space_group_crystal_system       triclinic
_cell_length_a                    14.809486
_cell_length_b                    15.705462
_cell_length_c                    9.631236
_cell_angle_alpha                 89.537668
_cell_angle_beta                  90.301293
_cell_angle_gamma                 90.431138
_cell_volume                      2239.96083313

loop_
_atom_site_label
_atom_site_type_symbol
_atom_type_description
_atom_site_fract_x
_atom_site_fract_y
_atom_site_fract_z
_atom_type_partial_charge
C1    C     C_R   0.379930 0.882822 0.500112 0.778650
C2    C     C_R   0.382715 0.120565 0.500529 0.779996
C3    C     C_R   0.879903 0.382849 0.500114 0.778782
C4    C     C_R   0.882727 0.620572 0.500523 0.779970
C5    C     C_R   0.267488 0.206449 0.381324 -0.141013
C6    C     C_R   0.327548 0.741824 0.437093 -0.147264
C7    C     C_R   0.767532 0.706489 0.381299 -0.141111
C8    C     C_R   0.827358 0.241998 0.436569 -0.147465
C9    C     C_R   0.699439 0.766285 0.380521 -0.186112
C10   C     C_R   0.763127 0.177888 0.436839 -0.152132
C11   C     C_R   0.199401 0.266252 0.380530 -0.185932
C12   C     C_R   0.263311 0.677719 0.437324 -0.152083
C13   C     C_R   0.668061 0.799170 0.505749 -0.110830
C14   C     C_R   0.679627 0.190829 0.499050 -0.033743
C15   C     C_R   0.168021 0.299145 0.505749 -0.110633
C16   C     C_R   0.179674 0.690785 0.499016 -0.033656
C17   C     C_R   0.661516 0.027951 0.147095 -0.111155
C18   C     C_R   0.161511 0.527936 0.147115 -0.111087
C19   C     C_R   0.730476 0.074463 0.086079 -0.276802
C20   C     C_R   0.230471 0.574455 0.086127 -0.276765
C21   C     C_R   0.728016 0.090565 0.944611 -0.012826
C22   C     C_R   0.228029 0.590548 0.944655 -0.012765
C23   C     C_R   0.664878 0.044336 0.864018 0.025625
C24   C     C_R   0.164887 0.544331 0.864041 0.025635
C25   C     C_R   0.580627 0.017713 0.926722 0.118009
C26   C     C_R   0.080628 0.517710 0.926729 0.118050
C27   C     C_R   0.579723 0.014517 0.075903 0.203992
C28   C     C_R   0.079723 0.514510 0.075909 0.203960
C29   C     C_R   0.423760 0.985904 0.073171 -0.014673
C30   C     C_R   0.923759 0.485906 0.073170 -0.014596
C31   C     C_R   0.616604 0.120349 0.499709 0.749676
C32   C     C_R   0.611205 0.875213 0.501278 0.777250
C33   C     C_R   0.116635 0.620323 0.499703 0.749590
C34   C     C_R   0.111193 0.375207 0.501277 0.777283
C35   C     C_R   0.423942 0.985017 0.925613 -0.027484
C36   C     C_R   0.923942 0.485019 0.925613 -0.027358
C37   C     C_R   0.333755 0.218371 0.757338 -0.178875
C38   C     C_R   0.202615 0.915035 0.618107 -0.236331
C39   C     C_R   0.833872 0.718451 0.757265 -0.178638
C40   C     C_R   0.702878 0.414806 0.619441 -0.236473
C41   C     C_R   0.293651 0.237988 0.883123 0.329357
C42   C     C_R   0.117259 0.929408 0.673652 0.321375
C43   C     C_R   0.793778 0.738028 0.883078 0.329638
C44   C     C_R   0.617730 0.429003 0.675833 0.321231
C45   C     C_R   0.702787 0.759606 0.886497 -0.087486
C46   C     C_R   0.552498 0.364650 0.673626 -0.132617
C47   C     C_R   0.202668 0.259589 0.886503 -0.088005
C48   C     C_R   0.052018 0.865060 0.671426 -0.132693
C49   C     C_R   0.656490 0.774090 0.761846 -0.107315
C50   C     C_R   0.572208 0.285970 0.615409 -0.226256
C51   C     C_R   0.156396 0.274063 0.761830 -0.106933
C52   C     C_R   0.071929 0.786203 0.614013 -0.226019
C53   C     C_R   0.701149 0.765336 0.633004 0.129110
C54   C     C_R   0.658305 0.269784 0.559836 0.121259
C55   C     C_R   0.201078 0.265296 0.633009 0.129534
C56   C     C_R   0.158197 0.769875 0.559172 0.121048
C57   C     C_R   0.284190 0.222638 0.631527 0.050416
C58   C     C_R   0.224270 0.835187 0.560600 0.055694
C59   C     C_R   0.784270 0.722697 0.631490 0.050134
C60   C     C_R   0.724377 0.335100 0.561250 0.055996
C61   C     C_R   0.313785 0.187011 0.504350 -0.109189
C62   C     C_R   0.309219 0.819379 0.500216 -0.058380
C63   C     C_R   0.813833 0.687048 0.504321 -0.109353
C64   C     C_R   0.809174 0.319424 0.500225 -0.058414
Cu1   Cu    Cu3+1 0.499990 1.000000 0.640660 0.939846
Cu2   Cu    Cu3+1 0.999990 0.500000 0.640660 0.939925
Cu3   Cu    Cu3+1 0.500010 1.000000 0.359340 0.954779
Cu4   Cu    Cu3+1 0.000010 0.500000 0.359340 0.954777
H1    H     H_    0.284798 0.176233 0.285027 0.207244
H2    H     H_    0.392741 0.730272 0.390416 0.139709
H3    H     H_    0.784837 0.676275 0.284996 0.207297
H4    H     H_    0.892437 0.230536 0.389479 0.139902
H5    H     H_    0.361347 0.973138 0.870453 0.151410
H6    H     H_    0.861347 0.473140 0.870452 0.151505
H7    H     H_    0.404593 0.203532 0.760710 0.179894
H8    H     H_    0.250683 0.967218 0.618627 0.162791
H9    H     H_    0.904726 0.703645 0.760564 0.180006
H10   H     H_    0.750928 0.467002 0.619926 0.163013
H11   H     H_    0.669794 0.770959 0.984595 0.138460
H12   H     H_    0.485989 0.375798 0.715672 0.193611
H13   H     H_    0.169664 0.270971 0.984582 0.138445
H14   H     H_    0.985348 0.876348 0.712777 0.193382
H15   H     H_    0.586566 0.792901 0.767733 0.168114
H16   H     H_    0.519177 0.238683 0.611647 0.144760
H17   H     H_    0.086473 0.292885 0.767681 0.168188
H18   H     H_    0.018905 0.738902 0.610245 0.144417
H19   H     H_    0.671287 0.786512 0.281685 0.173774
H20   H     H_    0.779420 0.116981 0.391854 0.124003
H21   H     H_    0.171261 0.286485 0.281689 0.173740
H22   H     H_    0.279688 0.616722 0.392684 0.123897
H23   H     H_    0.360971 0.974805 0.127476 0.143333
H24   H     H_    0.860969 0.474809 0.127475 0.143442
H25   H     H_    0.673550 0.005818 0.250591 0.195621
H26   H     H_    0.173540 0.505805 0.250611 0.195627
H27   H     H_    0.788142 0.094108 0.147863 0.144825
H28   H     H_    0.288117 0.594115 0.147953 0.144920
N1    N     N_R   0.501200 1.000000 0.147910 -0.193537
N2    N     N_R   0.001200 0.500000 0.147910 -0.193583
N3    N     N_R   0.501270 0.000000 0.852040 -0.206898
N4    N     N_R   0.001270 0.500000 0.852040 -0.206918
O1    O     O_R   0.409820 0.909830 0.618810 -0.579409
O2    O     O_R   0.409820 0.090170 0.618810 -0.595214
O3    O     O_R   0.909820 0.409830 0.618810 -0.579532
O4    O     O_R   0.909820 0.590170 0.618810 -0.595136
O5    O     O_R   0.409840 0.909830 0.381240 -0.588092
O6    O     O_R   0.409840 0.090170 0.381240 -0.551113
O7    O     O_R   0.909840 0.409830 0.381240 -0.588122
O8    O     O_R   0.909840 0.590170 0.381240 -0.551116
O9    O     O_R   0.590170 0.090170 0.618760 -0.604505
O10   O     O_R   0.590170 0.909830 0.618760 -0.606768
O11   O     O_R   0.090170 0.590170 0.618760 -0.604348
O12   O     O_R   0.090170 0.409830 0.618760 -0.606758
O13   O     O_R   0.590190 0.090180 0.381190 -0.580752
O14   O     O_R   0.590190 0.909820 0.381190 -0.604884
O15   O     O_R   0.090190 0.590180 0.381190 -0.580773
O16   O     O_R   0.090190 0.409820 0.381190 -0.604929
C65   C     C_2   0.803873 0.139744 0.882344 0.406518
H29   H     H_    0.858319 0.163390 0.947765 0.079772
O17   O     O_2   0.805672 0.155830 0.758272 -0.556590
C66   C     C_2   0.303895 0.639725 0.882415 0.406338
H30   H     H_    0.358339 0.663358 0.947851 0.079899
O18   O     O_2   0.305700 0.655824 0.758348 -0.556790
C67   C     C_2   0.712987 0.990726 0.763818 0.495168
H31   H     H_    0.720126 0.009045 0.655976 0.091851
O19   O     O_2   0.757231 0.930681 0.806048 -0.570286
C68   C     C_2   0.212986 0.490727 0.763826 0.495164
H32   H     H_    0.220149 0.509068 0.655997 0.091710
O20   O     O_2   0.257187 0.430648 0.806033 -0.570248
Br1   Br    Br    0.366058 0.237992 0.047224 -0.549631
Br2   Br    Br    0.089268 0.038046 0.749672 -0.538225
Br3   Br    Br    0.866194 0.737981 0.047171 -0.549338
Br4   Br    Br    0.590033 0.537381 0.753029 -0.538378

loop_
_geom_bond_atom_site_label_1
_geom_bond_atom_site_label_2
_ccdc_geom_bond_type
C58   C62   A    
Cu2   Cu4   S    
C68   H32   S    
C40   C60   A    
C3    O3    A    
C34   O12   A    
C13   C32   S    
Cu1   O1    S    
C14   C31   S    
C1    C62   S    
C51   H17   S    
C53   C59   A    
C50   H16   S    
C67   H31   S    
C54   C60   A    
C3    C64   S    
C22   C66   S    
C4    O8    A    
C4    C63   S    
C10   H20   S    
C50   C54   A    
C32   O10   A    
C37   C41   A    
C39   H9    S    
C12   H22   S    
C19   C21   A    
Cu3   O14   S    
C24   C26   A    
C38   C42   A    
C65   O17   D    
C6    C12   A    
C67   O19   D    
C2    O2    A    
C34   O16   A    
C6    H2    S    
Cu2   N4    S    
C9    C13   A    
C5    H1    S    
C38   C58   A    
C11   C15   A    
C25   N3    A    
C35   H5    S    
C12   C16   A    
C44   C46   A    
Cu1   Cu3   S    
C21   C65   S    
C33   O11   A    
Cu4   O7    S    
Cu2   O11   S    
C15   C34   S    
C18   C20   A    
C2    C61   S    
C23   C25   A    
C20   H28   S    
C38   H8    S    
C24   C68   S    
Cu1   O2    S    
C35   N3    A    
C66   O18   D    
C46   C50   A    
C13   C53   A    
C31   O9    A    
C33   O15   A    
C8    H4    S    
C17   C27   A    
Cu2   O4    S    
C18   C28   A    
Cu1   N3    S    
C30   H24   S    
C10   C14   A    
Cu3   O5    S    
C39   C43   A    
C3    O7    A    
C2    O6    A    
C15   C55   A    
C16   C56   A    
C16   C33   S    
C41   Br1   S    
C11   H21   S    
C48   H14   S    
C45   C49   A    
C39   C59   A    
C41   C47   A    
C5    C61   A    
C45   H11   S    
C42   C48   A    
C57   C61   A    
C43   C45   A    
C7    C63   A    
C46   H12   S    
C36   H6    S    
C43   Br3   S    
Cu4   O16   S    
C40   H10   S    
C14   C54   A    
C8    C64   A    
C55   C57   A    
C25   C27   A    
C18   H26   S    
C22   C24   A    
C17   H25   S    
C40   C44   A    
C1    O1    A    
C29   H23   S    
C19   H27   S    
C66   H30   S    
C28   N2    A    
C7    C9    A    
C23   C67   S    
C27   N1    A    
C68   O20   D    
C59   C63   A    
Cu2   O3    S    
C20   C22   A    
C47   C51   A    
C36   N4    A    
Cu3   O6    S    
C5    C11   A    
C30   C36   A    
C44   Br4   S    
C29   C35   A    
C30   N2    A    
C26   C28   A    
C42   Br2   S    
C29   N1    A    
C60   C64   A    
Cu2   O12   S    
C6    C62   A    
C21   C23   A    
Cu3   O13   S    
C65   H29   S    
C9    H19   S    
C7    H3    S    
C49   H15   S    
Cu1   O9    S    
C49   C53   A    
C4    O4    A    
C52   H18   S    
C17   C19   A    
C56   C58   A    
C51   C55   A    
C47   H13   S    
C37   H7    S    
Cu4   N2    S    
Cu1   O10   S    
Cu3   N1    S    
Cu4   O15   S    
C48   C52   A    
C8    C10   A    
C26   N4    A    
Cu4   O8    S    
C32   O14   A    
C31   O13   A    
C37   C57   A    
C52   C56   A    
C1    O5    A    
