data_mof_unit_34528.cif
_audit_creation_date              2012-12-11T15:53:40-0500
_audit_creation_method            fapswitch 2.2
_symmetry_space_group_name_H-M    P1
_symmetry_Int_Tables_number       1
_space_group_crystal_system       triclinic
_cell_length_a                    6.922703
_cell_length_b                    14.492543
_cell_length_c                    16.053896
_cell_angle_alpha                 90.679272
_cell_angle_beta                  90.519675
_cell_angle_gamma                 89.80851
_cell_volume                      1610.46052713

loop_
_atom_site_label
_atom_site_type_symbol
_atom_type_description
_atom_site_fract_x
_atom_site_fract_y
_atom_site_fract_z
_atom_type_partial_charge
O1    O     O_R   0.361600 0.167310 0.164620 -0.539774
O2    O     O_R   0.638400 0.832690 0.835380 -0.541810
O3    O     O_R   0.691080 0.157570 0.338750 -0.547954
O4    O     O_R   0.308920 0.842430 0.661250 -0.548955
O5    O     O_R   0.861410 0.336420 0.339360 -0.539728
O6    O     O_R   0.138590 0.663580 0.660640 -0.540346
C1    C     C_R   0.522525 0.135096 0.367506 0.670387
C2    C     C_R   0.477463 0.864844 0.632446 0.666924
O7    O     O_R   0.691320 0.156280 0.165240 -0.541218
O8    O     O_R   0.308680 0.843720 0.834760 -0.541363
O9    O     O_R   0.861640 0.335130 0.164600 -0.522667
O10   O     O_R   0.138360 0.664870 0.835400 -0.526692
C3    C     C_R   0.521984 0.133474 0.136311 0.722998
C4    C     C_R   0.478040 0.866661 0.863579 0.721611
O11   O     O_R   0.361370 0.168600 0.339370 -0.545107
O12   O     O_R   0.638630 0.831400 0.660630 -0.546753
O13   O     O_3   0.527990 0.310540 0.251980 -0.351290
O14   O     O_3   0.472010 0.689460 0.748020 -0.347909
V1    V     V_3+5 0.802830 0.240980 0.251990 1.437287
V2    V     V_3+5 0.197170 0.759020 0.748010 1.438109
O15   O     O_R   0.191360 0.346160 0.165220 -0.510727
O16   O     O_R   0.808640 0.653840 0.834780 -0.502239
C5    C     C_R   0.020421 0.368143 0.136097 0.784539
C6    C     C_R   0.979349 0.632199 0.864233 0.807213
O17   O     O_R   0.191130 0.347440 0.338740 -0.550993
O18   O     O_R   0.808870 0.652560 0.661260 -0.545493
C7    C     C_R   0.022482 0.370921 0.366680 0.650714
C8    C     C_R   0.977298 0.630572 0.632122 0.655002
V3    V     V_3+5 0.302840 0.262750 0.251990 1.461002
V4    V     V_3+5 0.697160 0.737250 0.748010 1.480519
O19   O     O_3   0.027820 0.193180 0.251990 -0.380749
O20   O     O_3   0.972180 0.806820 0.748010 -0.384106
C9    C     C_3   0.950358 0.417564 0.525085 -0.136570
C10   C     C_3   0.049287 0.585703 0.472598 -0.149336
C11   C     C_3   0.120105 0.476080 0.560394 -0.131704
C12   C     C_3   0.879833 0.527208 0.436967 -0.136586
H1    H     H_    0.221618 0.456979 0.611228 0.108721
H2    H     H_    0.781514 0.548089 0.385472 0.103355
H3    H     H_    0.909082 0.347512 0.545404 0.106848
H4    H     H_    0.088496 0.656429 0.453588 0.108967
C13   C     C_3   0.987275 0.561442 0.561424 -0.004284
C14   C     C_3   0.012402 0.441569 0.436171 -0.003311
C15   C     C_3   0.817513 0.503822 0.526717 -0.118237
C16   C     C_3   0.182144 0.499436 0.470709 -0.122662
H5    H     H_    0.667189 0.505666 0.550228 0.107335
H6    H     H_    0.332419 0.497657 0.447130 0.103549
C17   C     C_R   0.856695 0.492850 0.938279 0.417454
C18   C     C_R   0.145454 0.507969 0.062409 0.418212
C19   C     C_R   0.851013 0.435451 0.008766 0.046595
C20   C     C_R   0.144422 0.568471 0.994367 0.066465
C21   C     C_R   0.004093 0.437974 0.068451 -0.290622
C22   C     C_R   0.994431 0.564073 0.933404 -0.285634
C23   C     C_R   0.679805 0.025377 0.468567 -0.160668
C24   C     C_R   0.320152 0.974423 0.531268 -0.159836
H7    H     H_    0.820761 0.043832 0.445434 0.115218
H8    H     H_    0.179195 0.955962 0.554397 0.114882
C25   C     C_R   0.668309 0.960353 0.532228 -0.152167
C26   C     C_R   0.331648 0.039447 0.467607 -0.152549
H9    H     H_    0.801204 0.930741 0.556101 0.116982
H10   H     H_    0.198752 0.069053 0.443729 0.117568
C27   C     C_R   0.488319 0.933973 0.564555 -0.041882
C28   C     C_R   0.511647 0.065871 0.435316 -0.043392
C29   C     C_R   0.679694 0.026151 0.032759 -0.145848
C30   C     C_R   0.320329 0.973966 0.967147 -0.143481
H11   H     H_    0.820660 0.045276 0.056939 0.116473
H12   H     H_    0.179363 0.954822 0.942979 0.116392
C31   C     C_R   0.668981 0.962256 0.966830 -0.143656
C32   C     C_R   0.331042 0.037861 0.033074 -0.143891
H13   H     H_    0.802104 0.933882 0.942407 0.117626
H14   H     H_    0.197916 0.066222 0.057507 0.117611
C33   C     C_R   0.489159 0.935345 0.933075 -0.042095
C34   C     C_R   0.510867 0.064793 0.066815 -0.044975
O21   O     O_3   0.725887 0.480353 0.873045 -0.540917
C35   C     C_3   0.769943 0.398042 0.828005 0.109204
H15   H     H_    0.638708 0.377782 0.791968 0.146606
H16   H     H_    0.804794 0.338960 0.869113 0.131981
C36   C     C_3   0.935938 0.411058 0.766788 -0.354163
H17   H     H_    0.890869 0.460567 0.718105 0.190913
H18   H     H_    0.065219 0.438904 0.799764 0.192215
C37   C     C_3   0.990597 0.318779 0.726251 -0.833223
H19   H     H_    0.034679 0.268412 0.774527 0.236217
H20   H     H_    0.114140 0.327860 0.683773 0.227871
H21   H     H_    0.866195 0.290421 0.690183 0.225744
O22   O     O_3   0.292288 0.516062 0.121469 -0.535201
C38   C     C_3   0.220554 0.554105 0.197052 0.133492
H22   H     H_    0.296888 0.519093 0.249098 0.141374
H23   H     H_    0.062991 0.542662 0.206734 0.060911
C39   C     C_3   0.263843 0.657504 0.202480 -0.299260
H24   H     H_    0.419263 0.669320 0.189622 0.224836
H25   H     H_    0.175339 0.694343 0.155277 0.205797
C40   C     C_3   0.217332 0.697185 0.288276 -0.868367
H26   H     H_    0.062416 0.686273 0.302526 0.233674
H27   H     H_    0.246945 0.772446 0.289521 0.241204
H28   H     H_    0.309156 0.663732 0.336390 0.227509
I1    I     I_    0.597483 0.351292 0.020859 -0.345864
I2    I     I_    0.381721 0.662736 0.988544 -0.359853

loop_
_geom_bond_atom_site_label_1
_geom_bond_atom_site_label_2
_ccdc_geom_bond_type
C6    C22   S    
C29   H11   S    
C26   C28   A    
O13   V3    S    
C4    C33   S    
C12   C14   S    
O4    C2    A    
V1    O19   S    
C17   C19   A    
C36   H17   S    
O9    V1    S    
C9    H3    S    
C35   H16   S    
C10   H4    S    
C9    C14   S    
C30   C32   A    
C11   H1    S    
C18   C20   A    
O3    C1    A    
V2    O20   S    
C36   C37   S    
O12   V4    S    
C8    C13   S    
O21   C35   S    
C30   C33   A    
O7    C3    A    
C9    C11   S    
O5    C7    A    
O7    V1    S    
C18   C21   A    
O6    C8    A    
O8    V2    S    
C19   C21   A    
C35   C36   S    
C20   C22   A    
O3    V1    S    
O14   V4    S    
O14   V2    S    
C2    C27   S    
C36   H18   S    
C2    O12   A    
C13   C15   S    
C10   C13   S    
C14   C16   S    
C37   H21   S    
C11   C13   S    
C16   H6    S    
O11   V3    S    
C29   C31   A    
C23   H7    S    
O17   V3    S    
C24   H8    S    
C35   H15   S    
C38   H23   S    
C9    C15   S    
C10   C16   S    
O22   C38   S    
C17   O21   S    
C37   H20   S    
O8    C4    A    
C40   H26   S    
C23   C25   A    
C1    O11   A    
C38   H22   S    
O15   V3    S    
C18   O22   S    
C31   H13   S    
C30   H12   S    
C1    C28   S    
C40   H27   S    
C23   C28   A    
C5    C21   S    
C39   C40   S    
C32   C34   A    
O10   V2    S    
O1    V3    S    
C19   I1    S    
C11   C16   S    
C15   H5    S    
C24   C27   A    
C39   H25   S    
O18   V4    S    
O15   C5    A    
O16   C6    A    
O1    C3    A    
C24   C26   A    
C38   C39   S    
O16   V4    S    
C37   H19   S    
C25   C27   A    
C17   C22   A    
O5    V1    S    
C3    C34   S    
O17   C7    A    
O6    V2    S    
O10   C6    A    
O18   C8    A    
O2    V4    S    
C12   H2    S    
V3    O19   S    
C40   H28   S    
V4    O20   S    
C7    C14   S    
C20   I2    S    
O9    C5    A    
C29   C34   A    
O13   V1    S    
C10   C12   S    
C31   C33   A    
O2    C4    A    
C25   H9    S    
O4    V2    S    
C39   H24   S    
C32   H14   S    
C12   C15   S    
C26   H10   S    
