data_mof_unit_55455.cif
_audit_creation_date              2012-12-10T17:01:34-0500
_audit_creation_method            fapswitch 2.2
_symmetry_space_group_name_H-M    P1
_symmetry_Int_Tables_number       1
_space_group_crystal_system       triclinic
_cell_length_a                    9.941789
_cell_length_b                    10.81342
_cell_length_c                    12.959863
_cell_angle_alpha                 89.681714
_cell_angle_beta                  76.02184
_cell_angle_gamma                 110.360252
_cell_volume                      1261.36042542

loop_
_atom_site_label
_atom_site_type_symbol
_atom_type_description
_atom_site_fract_x
_atom_site_fract_y
_atom_site_fract_z
_atom_type_partial_charge
C1    C     C_R   0.442044 0.253055 0.501855 0.923958
C2    C     C_R   0.559273 0.747260 0.489739 0.832055
C3    C     C_2   0.072646 0.486072 0.479686 -0.004516
C4    C     C_2   0.919776 0.495142 0.514156 0.012564
C5    C     C_R   0.473551 0.494541 0.702254 0.844918
C6    C     C_R   0.526668 0.505460 0.297664 0.814593
C7    C     C_R   0.542878 0.511950 0.183105 -0.010686
C8    C     C_R   0.458363 0.486266 0.816575 -0.053536
C9    C     C_R   0.305750 0.406908 0.996686 -0.181461
C10   C     C_R   0.696527 0.589379 0.002850 -0.179744
C11   C     C_R   0.319133 0.419033 0.887638 -0.152540
C12   C     C_R   0.682227 0.579529 0.112200 -0.176760
C13   C     C_R   0.584014 0.543071 0.854901 -0.221786
C14   C     C_R   0.418657 0.451881 0.144209 -0.174573
C15   C     C_R   0.571401 0.532244 0.963944 0.160915
C16   C     C_R   0.431267 0.463092 0.035280 0.159016
C17   C     C_2   0.418498 0.110978 0.490950 -0.183922
C18   C     C_2   0.586846 0.890589 0.478333 -0.258634
C19   C     C_2   0.521140 0.075673 0.418324 -0.063455
C20   C     C_2   0.516695 0.937219 0.417579 -0.247989
Cu1   Cu    Cu3+1 0.647370 0.522180 0.481340 0.999228
Cu2   Cu    Cu3+1 0.352630 0.477820 0.518660 1.021929
H1    H     H_    0.312440 0.395705 0.198414 0.145664
H2    H     H_    0.691232 0.596536 0.800086 0.155542
H3    H     H_    0.779580 0.626307 0.141356 0.156614
H4    H     H_    0.221157 0.374027 0.858817 0.200473
H5    H     H_    0.197733 0.353971 0.050649 0.148066
H6    H     H_    0.804595 0.642441 0.949020 0.154643
N1    N     N_2   0.131210 0.444490 0.546730 -0.286088
N2    N     N_2   0.868790 0.555510 0.453270 -0.285612
O1    O     O_R   0.578710 0.332530 0.490040 -0.538193
O2    O     O_R   0.421290 0.667470 0.509960 -0.576723
O3    O     O_R   0.329810 0.295070 0.521560 -0.547181
O4    O     O_R   0.670190 0.704930 0.478440 -0.574713
O5    O     O_R   0.604230 0.515670 0.637800 -0.577757
O6    O     O_R   0.395770 0.484330 0.362200 -0.598540
O7    O     O_R   0.355330 0.478200 0.669330 -0.545839
O8    O     O_R   0.644670 0.521800 0.330670 -0.589405
C21   C     C_2   0.445986 0.856915 0.338827 0.527001
H7    H     H_    0.457203 0.762473 0.321840 0.079215
O9    O     O_2   0.377605 0.898135 0.289296 -0.473226
C22   C     C_2   0.638870 0.168511 0.330012 0.440774
H8    H     H_    0.742383 0.152099 0.299473 0.042888
O10   O     O_2   0.617869 0.257496 0.285920 -0.541916
C23   C     C_2   0.683481 0.979320 0.539779 0.389139
H9    H     H_    0.709471 0.085515 0.531738 0.104075
O11   O     O_2   0.735681 0.934202 0.600304 -0.500675
C24   C     C_2   0.287692 0.009013 0.565070 0.418746
H10   H     H_    0.264567 0.904190 0.557747 0.129778
O12   O     O_2   0.203876 0.041260 0.635684 -0.492834
C25   C     C_2   0.823774 0.428349 0.619383 0.421505
H11   H     H_    0.842511 0.475591 0.690860 0.057602
O13   O     O_2   0.729197 0.318032 0.627729 -0.560399
C26   C     C_2   0.129093 0.480945 0.364462 0.443906
H12   H     H_    0.107357 0.384959 0.333494 0.005634
O14   O     O_2   0.199115 0.581747 0.303857 -0.531923
C27   C     C_2   0.964683 0.675840 0.389367 0.688560
H13   H     H_    0.935159 0.706539 0.320842 0.031219
O15   O     O_2   0.073247 0.750107 0.415042 -0.531605
C28   C     C_2   0.045519 0.317671 0.604491 0.608478
H14   H     H_    0.955831 0.247190 0.577400 0.035679
O16   O     O_2   0.074603 0.285381 0.684326 -0.492143

loop_
_geom_bond_atom_site_label_1
_geom_bond_atom_site_label_2
_ccdc_geom_bond_type
C14   H1    S    
C5    C8    S    
C6    O8    A    
C8    C13   A    
Cu1   O5    S    
Cu2   N1    S    
C5    O7    A    
C2    C18   S    
Cu1   O1    S    
Cu1   N2    S    
C1    C17   S    
C19   C20   S    
C19   C22   S    
C12   H3    S    
C17   C24   S    
C2    O4    A    
C24   O12   D    
C22   O10   D    
C1    O3    A    
C21   O9    D    
Cu1   Cu2   S    
C9    C11   A    
C27   H13   S    
C6    C7    S    
Cu2   O2    S    
Cu2   O3    S    
C8    C11   A    
C15   C16   A    
C10   C12   A    
C2    O2    A    
C24   H10   S    
C17   C19   D    
C9    C16   A    
C6    O6    A    
C18   C20   D    
C10   C15   A    
C13   C15   A    
C7    C12   A    
C3    C26   S    
C26   O14   D    
C27   O15   D    
C22   H8    S    
C4    C25   S    
C3    C4    S    
C18   C23   S    
C5    O5    A    
C1    O1    A    
Cu2   O6    S    
C9    H5    S    
C28   O16   D    
C23   O11   D    
C10   H6    S    
C21   H7    S    
C3    N1    D    
C20   C21   S    
C26   H12   S    
C28   H14   S    
Cu1   O4    S    
C11   H4    S    
C14   C16   A    
C23   H9    S    
N1    C28   S    
Cu2   O7    S    
C7    C14   A    
C4    N2    D    
Cu1   O8    S    
C25   H11   S    
C13   H2    S    
N2    C27   S    
C25   O13   D    
