data_mof_unit_57611.cif
_audit_creation_date              2012-12-11T14:26:46-0500
_audit_creation_method            fapswitch 2.2
_symmetry_space_group_name_H-M    P1
_symmetry_Int_Tables_number       1
_space_group_crystal_system       triclinic
_cell_length_a                    15.020497
_cell_length_b                    14.904397
_cell_length_c                    15.031289
_cell_angle_alpha                 109.55464
_cell_angle_beta                  109.439871
_cell_angle_gamma                 109.540799
_cell_volume                      2586.53842298

loop_
_atom_site_label
_atom_site_type_symbol
_atom_type_description
_atom_site_fract_x
_atom_site_fract_y
_atom_site_fract_z
_atom_type_partial_charge
C1    C     C_R   0.005406 0.804774 0.097485 -0.170147
C2    C     C_R   0.223915 0.766894 0.313536 -0.133402
C3    C     C_R   0.933286 0.405494 0.216194 -0.152931
C4    C     C_R   0.793793 0.195606 0.703848 -0.144093
C5    C     C_R   0.301494 0.592352 0.000495 -0.144377
C6    C     C_R   0.983164 0.494795 0.317504 0.089044
C7    C     C_R   0.302970 0.501991 0.936970 0.014304
C8    C     C_R   0.326375 0.802935 0.323749 0.141571
C9    C     C_R   0.031790 0.203217 0.028714 0.132710
C10   C     C_3   0.471332 0.381203 0.857189 -0.407052
C11   C     C_3   0.369234 0.384009 0.852517 -0.446319
C12   C     C_R   0.703023 0.131205 0.704313 0.144113
C13   C     C_3   0.584502 0.537119 0.050672 -0.431268
C14   C     C_3   0.557627 0.581059 0.897885 -0.171701
C15   C     C_3   0.572929 0.498533 0.935451 0.317370
C16   C     C_R   0.091511 0.592152 0.791950 -0.147896
C17   C     C_3   0.399347 0.502712 0.930977 0.322242
C18   C     C_3   0.482395 0.537125 0.047237 -0.392697
C19   C     C_3   0.449903 0.579073 0.888691 -0.171912
C20   C     C_2   0.441036 0.864758 0.513561 -0.177800
C21   C     C_2   0.429381 0.872519 0.424479 -0.214398
C22   C     C_2   0.536566 0.950520 0.621580 0.087119
C23   C     C_R   0.061943 0.501052 0.699763 0.137557
C24   C     C_2   0.630507 0.012456 0.628140 -0.277442
C25   C     C_2   0.053953 0.412470 0.528418 -0.123742
C26   C     C_2   0.095691 0.504425 0.621079 -0.221901
C27   C     C_2   0.032519 0.417737 0.429394 -0.120145
C28   C     C_R   0.686310 0.406993 0.932679 -0.133704
C29   C     C_2   0.999299 0.487074 0.413720 -0.206129
C30   C     C_2   0.153322 0.130223 0.070174 -0.120579
C31   C     C_2   0.064405 0.135389 0.064614 -0.196413
C32   C     C_2   0.166485 0.039539 0.077291 -0.119996
C33   C     C_2   0.116647 0.986378 0.117927 -0.197735
C34   C     C_R   0.674403 0.498303 0.948962 0.033684
C35   C     C_R   0.001558 0.408870 0.700927 -0.108724
C36   C     C_R   0.776675 0.591188 0.023248 -0.157180
C37   C     C_R   0.702981 0.197617 0.794097 -0.133729
C38   C     C_R   0.094284 0.802536 0.004835 -0.113360
C39   C     C_R   0.070015 0.868121 0.070582 0.137349
C40   C     C_R   0.567075 0.566526 0.796240 0.154032
C41   C     C_R   0.663283 0.641951 0.808187 -0.146138
C42   C     C_R   0.675151 0.630796 0.717380 -0.097376
C43   C     C_R   0.591217 0.544640 0.613244 -0.088356
C44   C     C_R   0.495190 0.469543 0.599730 -0.112963
C45   C     C_R   0.019070 0.588893 0.309293 0.015784
C46   C     C_R   0.482882 0.480133 0.690267 -0.153598
C47   C     C_R   0.466348 0.695061 0.940173 0.147184
C48   C     C_R   0.548363 0.776973 0.048882 -0.176195
C49   C     C_R   0.553498 0.877999 0.096859 -0.145391
C50   C     C_R   0.477597 0.899087 0.037532 -0.106858
C51   C     C_R   0.398582 0.820718 0.928776 -0.100323
C52   C     C_R   0.393562 0.719897 0.879920 -0.155510
C53   C     C_R   0.518990 0.974860 0.716109 0.136572
C54   C     C_R   0.437491 0.001290 0.716177 -0.177431
C55   C     C_R   0.429409 0.037211 0.810252 -0.152349
C56   C     C_R   0.209196 0.409896 0.904437 -0.150334
C57   C     C_R   0.501329 0.045444 0.904000 -0.099291
C58   C     C_R   0.579674 0.014927 0.903141 -0.098342
C59   C     C_R   0.588251 0.979041 0.809302 -0.163805
C60   C     C_R   0.042551 0.697956 0.386215 0.101482
C61   C     C_R   0.111093 0.747044 0.499215 -0.188941
C62   C     C_R   0.133801 0.850684 0.570986 -0.113696
C63   C     C_R   0.089705 0.906938 0.530792 -0.088654
C64   C     C_R   0.022609 0.859495 0.418643 -0.125612
C65   C     C_R   0.999084 0.755530 0.346586 -0.150376
C66   C     C_R   0.314211 0.766210 0.221246 -0.145939
C67   C     C_R   0.960725 0.234612 0.048898 -0.146270
C68   C     C_R   0.057568 0.240086 0.962654 -0.126271
H1    H     H_    0.985912 0.835430 0.160305 0.089778
H2    H     H_    0.461547 0.345064 0.774668 0.158801
H3    H     H_    0.308936 0.354609 0.767362 0.150419
H4    H     H_    0.825704 0.165897 0.652935 0.088643
H5    H     H_    0.331916 0.324928 0.876596 0.160950
H6    H     H_    0.599035 0.481969 0.081340 0.172012
H7    H     H_    0.627241 0.663458 0.965095 0.099223
H8    H     H_    0.388539 0.537631 0.801050 0.109950
H9    H     H_    0.504224 0.619208 0.108812 0.153419
H10   H     H_    0.373100 0.803117 0.509508 0.136497
H11   H     H_    0.149597 0.676667 0.822508 0.091660
H12   H     H_    0.177057 0.325315 0.845575 0.085694
H13   H     H_    0.644875 0.980289 0.561203 0.132517
H14   H     H_    0.018228 0.331533 0.519737 0.116404
H15   H     H_    0.137000 0.584610 0.629219 0.132550
H16   H     H_    0.038153 0.360592 0.366866 0.127702
H17   H     H_    0.989697 0.541838 0.474009 0.147282
H18   H     H_    0.206406 0.180840 0.051205 0.117005
H19   H     H_    0.197807 0.004133 0.028453 0.113281
H20   H     H_    0.624080 0.321290 0.882617 0.098461
H21   H     H_    0.976796 0.324491 0.648723 0.078397
H22   H     H_    0.796951 0.676322 0.058705 0.085844
H23   H     H_    0.377994 0.783446 0.200651 0.099452
H24   H     H_    0.653171 0.174439 0.828410 0.123512
H25   H     H_    0.155681 0.829471 0.982699 0.082212
H26   H     H_    0.445519 0.478200 0.071822 0.165775
H27   H     H_    0.729907 0.709405 0.888064 0.101302
H28   H     H_    0.749623 0.689077 0.727860 0.110916
H29   H     H_    0.600498 0.536183 0.542979 0.103701
H30   H     H_    0.429935 0.403030 0.518838 0.111354
H31   H     H_    0.406856 0.421178 0.676299 0.103486
H32   H     H_    0.607098 0.762829 0.098176 0.104743
H33   H     H_    0.615438 0.939390 0.180818 0.108171
H34   H     H_    0.920558 0.212189 0.091797 0.087122
H35   H     H_    0.480462 0.976494 0.075833 0.095344
H36   H     H_    0.340430 0.837671 0.882493 0.102961
H37   H     H_    0.330051 0.659673 0.796217 0.108279
H38   H     H_    0.655473 0.621601 0.111016 0.149349
H39   H     H_    0.493996 0.933891 0.424969 0.135921
H40   H     H_    0.383410 0.998544 0.645114 0.127003
H41   H     H_    0.368704 0.060628 0.811156 0.104195
H42   H     H_    0.496174 0.075481 0.977268 0.094523
H43   H     H_    0.634852 0.020717 0.975704 0.114263
H44   H     H_    0.651180 0.958532 0.810436 0.120270
H45   H     H_    0.107430 0.225999 0.928030 0.088436
H46   H     H_    0.007984 0.083166 0.079499 0.127981
H47   H     H_    0.092487 0.025657 0.173094 0.127466
H48   H     H_    0.149406 0.706858 0.531883 0.115489
H49   H     H_    0.186212 0.887660 0.657767 0.107379
H50   H     H_    0.107844 0.987423 0.586506 0.091817
H51   H     H_    0.988718 0.903240 0.387468 0.097198
H52   H     H_    0.946746 0.720097 0.260188 0.111045
H53   H     H_    0.208153 0.790224 0.379616 0.125023
H54   H     H_    0.883934 0.320576 0.191532 0.099565
H55   H     H_    0.358539 0.678036 0.037538 0.125003
H56   H     H_    0.480332 0.324811 0.888208 0.158208
N1    N     N_R   0.993980 0.704500 0.053430 -0.037686
N2    N     N_R   0.053690 0.556380 0.849240 -0.039362
N3    N     N_R   0.790390 0.443640 0.997160 -0.038349
N4    N     N_R   0.998260 0.443670 0.792970 -0.043119
N5    N     N_R   0.845830 0.556350 0.053430 -0.042485
N6    N     N_R   0.792820 0.295510 0.849240 -0.044930
N7    N     N_R   0.051260 0.704510 0.997160 -0.042337
N8    N     N_R   0.001740 0.556330 0.207030 -0.063070
N9    N     N_R   0.154170 0.443650 0.946570 -0.033718
N10   N     N_R   0.207180 0.704490 0.150760 -0.041561
N11   N     N_R   0.948740 0.295490 0.002840 -0.038547
N12   N     N_R   0.006020 0.295500 0.946570 -0.043750
N13   N     N_R   0.149890 0.704480 0.207030 -0.044417
N14   N     N_R   0.946310 0.443620 0.150760 -0.048090
N15   N     N_R   0.209610 0.556360 0.002840 -0.035539
N16   N     N_R   0.850110 0.295520 0.792970 -0.040221
Ni1   Ni    Ni4+2 0.997880 0.629240 0.129060 0.207976
Ni2   Ni    Ni4+2 0.002120 0.370760 0.870940 0.205153
Ni3   Ni    Ni4+2 0.129260 0.629260 0.000000 0.214006
Ni4   Ni    Ni4+2 0.870740 0.370740 0.000000 0.209765

loop_
_geom_bond_atom_site_label_1
_geom_bond_atom_site_label_2
_ccdc_geom_bond_type
C46   H31   S    
C45   C60   S    
C8    C66   A    
C26   H15   S    
C6    C45   A    
C27   C29   D    
C41   C42   A    
C43   C44   A    
C3    C6    A    
N6    N16   A    
N10   N13   A    
N3    N5    A    
C56   N9    A    
C53   C59   A    
N11   N12   A    
C53   C54   A    
C40   C46   A    
N9    Ni2   S    
C33   C39   S    
C64   H51   S    
C13   C18   S    
C42   H28   S    
C19   H8    S    
C1    N1    A    
C10   H56   S    
C10   C15   S    
C49   H33   S    
C30   C31   D    
C19   C47   S    
N5    Ni1   S    
N8    N14   A    
N2    Ni3   S    
C37   N6    A    
C38   H25   S    
C17   C18   S    
C23   C26   S    
C12   C37   A    
C62   H49   S    
N12   Ni2   S    
C59   H44   S    
N10   Ni3   S    
C66   N10   A    
C44   H30   S    
C11   C17   S    
C47   C48   A    
N1    Ni1   S    
C7    C17   S    
C5    H55   S    
C28   H20   S    
C4    C12   A    
N6    Ni4   S    
C15   C34   S    
C29   H17   S    
C28   N3    A    
C68   H45   S    
C28   C34   A    
C50   H35   S    
C55   H41   S    
C61   C62   A    
N15   Ni3   S    
C7    C56   A    
C44   C46   A    
C5    N15   A    
C22   C53   S    
C38   C39   A    
C48   H32   S    
C33   H47   S    
C51   C52   A    
C68   N12   A    
C11   H5    S    
C5    C7    A    
C63   H50   S    
C9    C31   S    
C25   C26   D    
C32   H19   S    
C1    H1    S    
C58   H43   S    
C32   C33   D    
C60   C61   A    
C47   C52   A    
C67   N11   A    
C24   H13   S    
C9    C67   A    
C62   C63   A    
C4    N16   A    
N1    N7    A    
C57   H42   S    
C61   H48   S    
C50   C51   A    
C3    N14   A    
C13   H6    S    
C21   H39   S    
C35   H21   S    
C48   C49   A    
C20   C22   S    
C52   H37   S    
N9    N15   A    
C16   C23   A    
C23   C35   A    
C55   C57   A    
C25   H14   S    
C18   H26   S    
C22   C24   D    
C58   C59   A    
C30   H18   S    
C42   C43   A    
C10   H2    S    
C4    H4    S    
N7    Ni3   S    
C2    H53   S    
C36   H22   S    
N8    Ni1   S    
N13   Ni1   S    
C54   C55   A    
C27   H16   S    
N2    N4    A    
C31   H46   S    
C37   H24   S    
C2    N13   A    
C14   C19   S    
C2    C8    A    
C43   H29   S    
N16   Ni2   S    
C13   H38   S    
C8    C21   S    
C60   C65   A    
C3    H54   S    
C66   H23   S    
C54   H40   S    
C25   C27   S    
C12   C24   S    
C56   H12   S    
C20   H10   S    
C16   H11   S    
C38   N7    A    
C13   C15   S    
C51   H36   S    
C9    C68   A    
N14   Ni4   S    
C36   N5    A    
C14   H7    S    
C30   C32   S    
C57   C58   A    
C41   H27   S    
C16   N2    A    
C18   H9    S    
C64   C65   A    
C17   C19   S    
C65   H52   S    
C34   C36   A    
N3    Ni4   S    
C35   N4    A    
N11   Ni4   S    
C10   C11   S    
C1    C39   A    
C14   C40   S    
C63   C64   A    
C6    C29   S    
C20   C21   D    
C45   N8    A    
C49   C50   A    
C14   C15   S    
C40   C41   A    
N4    Ni2   S    
C11   H3    S    
C67   H34   S    
