data_mof_unit_35424.cif
_audit_creation_date              2012-10-26T18:50:26-0400
_audit_creation_method            fapswitch 2.2
_symmetry_space_group_name_H-M    P1
_symmetry_Int_Tables_number       1
_space_group_crystal_system       triclinic
_cell_length_a                    9.590589
_cell_length_b                    10.849578
_cell_length_c                    15.46313
_cell_angle_alpha                 85.461856
_cell_angle_beta                  74.119633
_cell_angle_gamma                 90.087321
_cell_volume                      1542.28833757

loop_
_atom_site_label
_atom_site_type_symbol
_atom_type_description
_atom_site_fract_x
_atom_site_fract_y
_atom_site_fract_z
_atom_type_partial_charge
C1    C     C_R   0.996847 0.261797 0.507124 0.605503
C2    C     C_R   0.250824 0.609399 0.048328 0.078537
C3    C     C_R   0.339381 0.545330 0.096115 0.055261
C4    C     C_R   0.918190 0.504994 0.671869 0.594042
C5    C     C_R   0.105093 0.631902 0.091501 -0.088507
C6    C     C_R   0.045746 0.591687 0.181989 -0.124295
C7    C     C_R   0.271229 0.493653 0.183842 -0.073818
C8    C     C_R   0.084279 0.100380 0.654721 0.232558
C9    C     C_R   0.148420 0.025854 0.710159 -0.068098
C10   C     C_R   0.162161 0.900636 0.700536 -0.166180
C11   C     C_R   0.109539 0.848403 0.636466 -0.119679
C12   C     C_R   0.684955 0.528563 0.910767 -0.010530
C13   C     C_R   0.053041 0.922642 0.574790 -0.000409
C14   C     C_R   0.045164 0.052645 0.581161 0.037859
C15   C     C_R   0.991270 0.126258 0.516781 0.012548
C16   C     C_R   0.999458 0.737057 0.501896 0.513755
C17   C     C_R   0.933742 0.069410 0.455663 -0.154577
C18   C     C_R   0.934884 0.942563 0.453175 -0.150055
C19   C     C_R   0.997113 0.869380 0.510133 0.010452
C20   C     C_R   0.697680 0.670513 0.381192 -0.066291
C21   C     C_R   0.650540 0.758089 0.325695 -0.139585
C22   C     C_R   0.506121 0.760215 0.326860 -0.114128
C23   C     C_R   0.783455 0.487146 0.959943 0.014992
C24   C     C_R   0.408274 0.673943 0.382865 -0.035120
C25   C     C_R   0.450895 0.585430 0.442452 0.184015
C26   C     C_R   0.600747 0.584561 0.441988 0.180331
C27   C     C_R   0.549344 0.419380 0.555406 0.001276
C28   C     C_R   0.082164 0.502581 0.327714 0.528826
C29   C     C_R   0.401450 0.419263 0.555264 0.001827
C30   C     C_R   0.874712 0.506683 0.770685 -0.019492
C31   C     C_R   0.129831 0.524122 0.229022 -0.006070
C32   C     C_R   0.927688 0.460766 0.913971 0.226482
C33   C     C_R   0.973295 0.475476 0.820292 -0.054278
C34   C     C_R   0.541122 0.559207 0.957742 0.012524
C35   C     C_R   0.732014 0.533228 0.815795 -0.135285
C36   C     C_R   0.490394 0.531429 0.053126 0.040671
C37   C     C_R   0.594886 0.496931 0.100557 0.195756
C38   C     C_R   0.737238 0.474898 0.053845 -0.058226
C39   C     C_R   0.448501 0.621435 0.912440 -0.111333
C40   C     C_R   0.307508 0.648757 0.957615 -0.090718
Cl1   Cl    Cl    0.024730 0.240097 0.697069 -0.645553
Cl2   Cl    Cl    0.053563 0.400875 0.969827 -0.633148
Cl3   Cl    Cl    0.569227 0.501034 0.217567 -0.676655
Cu1   Cu    Cu3+1 0.140660 0.499990 0.500010 0.972904
Cu2   Cu    Cu3+1 0.859340 0.500010 0.499990 0.962806
H1    H     H_    0.812988 0.450077 0.092580 0.209647
H2    H     H_    0.084435 0.455195 0.786247 0.187720
H3    H     H_    0.658066 0.552871 0.775358 0.132384
H4    H     H_    0.890596 0.124135 0.407584 0.143504
H5    H     H_    0.206071 0.842489 0.746453 0.116602
H6    H     H_    0.891109 0.901471 0.404212 0.116212
H7    H     H_    0.584445 0.353323 0.600804 0.133355
H8    H     H_    0.301719 0.678874 0.374972 0.177746
H9    H     H_    0.326117 0.353096 0.600509 0.157881
H10   H     H_    0.935824 0.615830 0.215434 0.141555
H11   H     H_    0.484347 0.655684 0.842369 0.105324
H12   H     H_    0.037731 0.682277 0.055530 0.125045
H13   H     H_    0.178900 0.063621 0.765376 0.164485
H14   H     H_    0.111131 0.749000 0.638517 0.157035
H15   H     H_    0.811296 0.673097 0.373239 0.164448
H16   H     H_    0.727297 0.823357 0.280325 0.118485
H17   H     H_    0.324504 0.426972 0.218261 0.194585
H18   H     H_    0.470135 0.826951 0.282184 0.131101
H19   H     H_    0.241067 0.698279 0.920519 0.111836
N1    N     N_R   0.648320 0.501210 0.499140 -0.248209
N2    N     N_R   0.352470 0.501290 0.499110 -0.247267
O1    O     O_R   0.118810 0.319640 0.500010 -0.460983
O2    O     O_R   0.881240 0.319660 0.500000 -0.490333
O3    O     O_R   0.055570 0.499980 0.629840 -0.483157
O4    O     O_R   0.818000 0.500010 0.629830 -0.494718
O5    O     O_R   0.118760 0.680340 0.500000 -0.548729
O6    O     O_R   0.881190 0.680360 0.499990 -0.527541
O7    O     O_R   0.182000 0.499990 0.370170 -0.500580
O8    O     O_R   0.944430 0.500020 0.370160 -0.508331

loop_
_geom_bond_atom_site_label_1
_geom_bond_atom_site_label_2
_ccdc_geom_bond_type
C27   C29   A    
Cu1   N2    S    
C16   O6    A    
C6    H10   S    
C28   O8    A    
C4    O4    A    
Cu1   Cu2   S    
C12   C23   A    
C30   C35   A    
C36   C37   A    
C18   C19   A    
C3    C7    A    
C5    C6    A    
C29   H9    S    
C35   H3    S    
C1    O2    A    
Cu1   O5    S    
C9    H13   S    
C22   H18   S    
C8    C9    A    
C1    C15   S    
C20   H15   S    
C9    C10   A    
C21   H16   S    
C6    C31   A    
C13   C14   A    
Cu2   O6    S    
C16   O5    A    
C11   H14   S    
C28   O7    A    
C4    O3    A    
C18   H6    S    
C7    C31   A    
C13   C19   A    
C34   C39   A    
C24   C25   A    
C17   H4    S    
C39   C40   A    
C25   C26   A    
Cu2   O8    S    
C37   Cl3   S    
C7    H17   S    
C37   C38   A    
C27   N1    A    
C39   H11   S    
Cu2   O2    S    
C17   C18   A    
Cu1   O3    S    
C8    Cl1   S    
C12   C35   A    
Cu2   N1    S    
C33   H2    S    
C22   C24   A    
C2    C5    A    
C12   C34   A    
C10   H5    S    
C27   H7    S    
C15   C17   A    
C8    C14   A    
C30   C33   A    
Cu2   O4    S    
C26   N1    A    
C28   C31   S    
C25   N2    A    
C23   C38   A    
C40   H19   S    
C5    H12   S    
C23   C32   A    
C2    C3    A    
C24   H8    S    
C32   C33   A    
C11   C13   A    
C20   C26   A    
C3    C36   A    
C16   C19   S    
C1    O1    A    
C34   C36   A    
Cu1   O7    S    
C38   H1    S    
C10   C11   A    
C29   N2    A    
C2    C40   A    
C20   C21   A    
C32   Cl2   S    
C14   C15   A    
Cu1   O1    S    
C21   C22   A    
C4    C30   S    
