data_mof_unit_55484.cif
_audit_creation_date              2012-12-10T18:37:17-0500
_audit_creation_method            fapswitch 2.2
_symmetry_space_group_name_H-M    P1
_symmetry_Int_Tables_number       1
_space_group_crystal_system       triclinic
_cell_length_a                    15.077231
_cell_length_b                    13.938147
_cell_length_c                    10.882028
_cell_angle_alpha                 90.840045
_cell_angle_beta                  93.000377
_cell_angle_gamma                 90.199732
_cell_volume                      2283.44263073

loop_
_atom_site_label
_atom_site_type_symbol
_atom_type_description
_atom_site_fract_x
_atom_site_fract_y
_atom_site_fract_z
_atom_type_partial_charge
C1    C     C_R   0.329801 0.499754 0.497544 0.785729
C2    C     C_3   0.585706 0.491933 0.932424 -0.354442
C3    C     C_R   0.094067 0.577759 0.433733 -0.091203
C4    C     C_R   0.093643 0.416888 0.516372 -0.075858
C5    C     C_R   0.186367 0.578953 0.443390 -0.163405
C6    C     C_R   0.186017 0.417382 0.524152 -0.176364
C7    C     C_R   0.232831 0.498930 0.489188 -0.032487
C8    C     C_R   0.047573 0.497229 0.471681 0.169729
C9    C     C_R   0.897016 0.438073 0.394946 0.003998
C10   C     C_R   0.910197 0.563487 0.556387 0.017914
C11   C     C_R   0.804837 0.439621 0.404000 -0.257061
C12   C     C_R   0.818034 0.563837 0.561420 -0.238696
C13   C     C_R   0.765767 0.500911 0.487930 -0.076556
C14   C     C_R   0.950430 0.499751 0.473384 -0.087650
C15   C     C_R   0.567274 0.104551 0.538156 -0.272966
C16   C     C_R   0.550032 0.896701 0.575477 -0.263241
C17   C     C_R   0.498180 0.499248 0.259615 0.763985
C18   C     C_R   0.569326 0.204776 0.549479 0.324986
C19   C     C_R   0.559288 0.796253 0.572598 0.311899
C20   C     C_R   0.426161 0.211808 0.450234 0.045407
C21   C     C_R   0.434339 0.785892 0.430890 0.064044
C22   C     C_R   0.419772 0.110495 0.447732 -0.273402
C23   C     C_R   0.429258 0.887031 0.424950 -0.283576
C24   C     C_R   0.491374 0.054215 0.492346 0.099600
C25   C     C_R   0.488975 0.944980 0.496985 0.103231
C26   C     C_R   0.669799 0.500206 0.497267 0.795839
C27   C     C_R   0.492688 0.500624 0.738945 0.767251
C28   C     C_3   0.468604 0.602664 0.072403 -0.141452
C29   C     C_3   0.423586 0.422579 0.063636 -0.144221
C30   C     C_3   0.442491 0.593648 0.931652 -0.194001
C31   C     C_3   0.431491 0.413840 0.920376 -0.167214
C32   C     C_3   0.586876 0.474364 0.072479 -0.375765
C33   C     C_3   0.494651 0.498351 0.121282 0.058239
C34   C     C_3   0.488720 0.500948 0.876438 -0.039461
Cu1   Cu    Cu3+1 0.499990 0.596430 0.500000 0.938915
Cu2   Cu    Cu3+1 0.499990 0.403570 0.500000 0.927142
H1    H     H_    0.762668 0.394543 0.343432 0.170652
H2    H     H_    0.786946 0.610192 0.626754 0.149132
H3    H     H_    0.625795 0.066997 0.570376 0.141167
H4    H     H_    0.591238 0.937498 0.640103 0.123221
H5    H     H_    0.370669 0.252618 0.412601 0.134092
H6    H     H_    0.386367 0.742822 0.377043 0.116748
H7    H     H_    0.358802 0.077339 0.411411 0.135506
H8    H     H_    0.379321 0.918710 0.363408 0.134838
H9    H     H_    0.407511 0.624711 0.118749 0.130620
H10   H     H_    0.359037 0.459700 0.075049 0.113307
H11   H     H_    0.369754 0.578711 0.926415 0.115214
H12   H     H_    0.363032 0.423199 0.878434 0.102709
H13   H     H_    0.640212 0.518602 0.119671 0.141945
H14   H     H_    0.605405 0.399352 0.092077 0.188585
H15   H     H_    0.622936 0.558433 0.914170 0.158435
H16   H     H_    0.622851 0.433918 0.887036 0.197735
H17   H     H_    0.058680 0.640183 0.399334 0.126842
H18   H     H_    0.057947 0.354711 0.546753 0.121980
H19   H     H_    0.221324 0.642090 0.414476 0.137927
H20   H     H_    0.220734 0.354866 0.559547 0.157186
N1    N     N_R   0.500020 0.258690 0.500000 -0.195093
N2    N     N_R   0.500020 0.741310 0.500000 -0.188785
O1    O     O_R   0.371450 0.581430 0.500010 -0.579946
O2    O     O_R   0.371450 0.418570 0.500010 -0.596540
O3    O     O_R   0.499980 0.581440 0.317690 -0.596204
O4    O     O_R   0.499980 0.418560 0.317690 -0.593003
O5    O     O_R   0.628540 0.581440 0.499990 -0.604099
O6    O     O_R   0.628540 0.418560 0.499990 -0.601504
O7    O     O_R   0.500010 0.581440 0.682310 -0.569524
O8    O     O_R   0.500010 0.418560 0.682310 -0.577863
C35   C     C_3   0.542175 0.681682 0.104098 -0.310883
C36   C     C_3   0.503461 0.782317 0.125996 -0.338189
C37   C     C_3   0.574303 0.851708 0.179977 -0.824702
H21   H     H_    0.601693 0.825940 0.270299 0.257774
H22   H     H_    0.628987 0.858721 0.116083 0.255606
H23   H     H_    0.544405 0.923433 0.194137 0.242647
H24   H     H_    0.474902 0.812943 0.039493 0.239470
H25   H     H_    0.448930 0.777946 0.189626 0.205680
H26   H     H_    0.584219 0.663429 0.186612 0.212811
H27   H     H_    0.591168 0.685522 0.032355 0.218983
C38   C     C_3   0.403987 0.324752 0.126949 -0.357640
C39   C     C_3   0.481047 0.252463 0.148869 -0.288062
C40   C     C_3   0.449292 0.148808 0.129916 -0.850135
H28   H     H_    0.391902 0.134221 0.186801 0.247310
H29   H     H_    0.429114 0.135085 0.031630 0.272418
H30   H     H_    0.503948 0.098996 0.157034 0.242904
H31   H     H_    0.536292 0.263995 0.089156 0.246999
H32   H     H_    0.510155 0.259165 0.243887 0.236745
H33   H     H_    0.372897 0.338788 0.215715 0.184206
H34   H     H_    0.349755 0.289295 0.069442 0.214002
C41   C     C_3   0.645106 0.246445 0.630531 -0.352641
C42   C     C_3   0.733445 0.251374 0.565424 -0.345359
C43   C     C_3   0.790333 0.161189 0.579297 -0.820831
H35   H     H_    0.795191 0.137517 0.676442 0.248127
H36   H     H_    0.763168 0.102318 0.518723 0.249286
H37   H     H_    0.858400 0.177178 0.550664 0.255937
H38   H     H_    0.720675 0.265051 0.465858 0.245190
H39   H     H_    0.773012 0.312361 0.606491 0.222849
H40   H     H_    0.628036 0.317755 0.666816 0.232307
H41   H     H_    0.653954 0.203017 0.715223 0.194386
C44   C     C_3   0.639939 0.752179 0.641305 -0.329884
C45   C     C_3   0.683809 0.813837 0.747609 -0.383494
C46   C     C_3   0.744575 0.755244 0.834034 -0.805365
H42   H     H_    0.706768 0.697003 0.875999 0.245202
H43   H     H_    0.799554 0.723701 0.783971 0.279694
H44   H     H_    0.773381 0.802520 0.908970 0.243087
H45   H     H_    0.632545 0.847137 0.803995 0.259674
H46   H     H_    0.723998 0.872057 0.708857 0.214332
H47   H     H_    0.621753 0.683051 0.680229 0.263952
H48   H     H_    0.690899 0.738828 0.573175 0.186200
C47   C     C_2   0.445144 0.687328 0.862737 0.884282
O9    O     O_2   0.515602 0.726255 0.844584 -0.635908
O10   O     O_R   0.365724 0.728689 0.817787 -0.762394
H49   H     H_    0.375775 0.790282 0.771940 0.332872
C48   C     C_2   0.457742 0.314727 0.873636 0.926932
O11   O     O_2   0.535193 0.289024 0.877448 -0.651287
O12   O     O_R   0.391913 0.254070 0.820314 -0.776510
H50   H     H_    0.416763 0.191173 0.789480 0.327351
C49   C     C_2   0.934099 0.372697 0.301189 0.822692
O13   O     O_2   0.005795 0.389798 0.258492 -0.593831
O14   O     O_R   0.885334 0.292050 0.259145 -0.778834
H51   H     H_    0.916780 0.253433 0.194950 0.338050
C50   C     C_2   0.962404 0.629235 0.641008 0.814048
O15   O     O_2   0.029036 0.600774 0.697976 -0.577187
O16   O     O_R   0.934664 0.724034 0.656020 -0.783761
H52   H     H_    0.975149 0.761964 0.716284 0.338724

loop_
_geom_bond_atom_site_label_1
_geom_bond_atom_site_label_2
_ccdc_geom_bond_type
C15   C18   A    
C41   C42   S    
C30   C47   S    
C11   C13   A    
Cu1   Cu2   S    
C4    C8    A    
C20   H5    S    
C19   C44   S    
C38   C39   S    
Cu1   N2    S    
Cu1   O1    S    
C1    O1    A    
Cu2   O8    S    
Cu1   O7    S    
C36   H25   S    
C49   O13   D    
C29   C33   S    
C2    C32   S    
C37   H22   S    
C26   O6    A    
C10   C50   S    
C17   O3    A    
C39   H31   S    
C46   H42   S    
C36   C37   S    
C49   O14   S    
C41   H40   S    
C47   O9    D    
C43   H36   S    
C44   H47   S    
C2    C34   S    
C38   H33   S    
C27   C34   S    
C47   O10   S    
C17   C33   S    
Cu2   O4    S    
C10   C12   A    
C44   C45   S    
C5    C7    A    
C50   O16   S    
C19   N2    A    
C42   H39   S    
C28   H9    S    
C30   C34   S    
C35   C36   S    
C9    C49   S    
C30   H11   S    
C28   C35   S    
C24   C25   S    
C4    C6    A    
C3    C8    A    
C10   C14   A    
C1    O2    A    
C40   H29   S    
C9    C14   A    
C39   C40   S    
C3    C5    A    
C36   H24   S    
C23   H8    S    
C40   H28   S    
C37   H23   S    
C26   O5    A    
C27   O7    A    
C17   O4    A    
C18   N1    A    
C22   H7    S    
C32   H14   S    
C41   H41   S    
C31   C34   S    
C48   O12   S    
C42   C43   S    
C43   H37   S    
C9    C11   A    
C15   H3    S    
O16   H52   S    
C2    H16   S    
C16   H4    S    
C44   H48   S    
C15   C24   A    
C46   H43   S    
C20   C22   A    
C28   C33   S    
Cu2   N1    S    
C31   H12   S    
C21   C23   A    
C22   C24   A    
C13   C26   S    
C35   H26   S    
C11   H1    S    
O12   H50   S    
C16   C25   A    
C42   H38   S    
C8    C14   S    
C48   O11   D    
C4    H18   S    
C1    C7    S    
C5    H19   S    
C6    H20   S    
Cu2   O2    S    
C38   H34   S    
C40   H30   S    
C50   O15   D    
C6    C7    A    
C18   C41   S    
C29   H10   S    
C32   C33   S    
C28   C30   S    
C43   H35   S    
C21   N2    A    
C29   C31   S    
C27   O8    A    
Cu2   O6    S    
O14   H51   S    
C3    H17   S    
Cu1   O3    S    
C16   C19   A    
C45   H46   S    
C23   C25   A    
C12   H2    S    
C37   H21   S    
C32   H13   S    
C2    H15   S    
C21   H6    S    
C39   H32   S    
C46   H44   S    
C29   C38   S    
C12   C13   A    
C45   C46   S    
C31   C48   S    
Cu1   O5    S    
C35   H27   S    
C20   N1    A    
O10   H49   S    
C45   H45   S    
