data_mof_unit_56081.cif
_audit_creation_date              2012-12-11T14:13:15-0500
_audit_creation_method            fapswitch 2.2
_symmetry_space_group_name_H-M    P1
_symmetry_Int_Tables_number       1
_space_group_crystal_system       triclinic
_cell_length_a                    11.658521
_cell_length_b                    18.718696
_cell_length_c                    10.012186
_cell_angle_alpha                 90.228303
_cell_angle_beta                  110.42994
_cell_angle_gamma                 89.802299
_cell_volume                      2047.52526097

loop_
_atom_site_label
_atom_site_type_symbol
_atom_type_description
_atom_site_fract_x
_atom_site_fract_y
_atom_site_fract_z
_atom_type_partial_charge
C1    C     C_R   0.073764 0.646612 0.139780 0.550382
C2    C     C_R   0.926388 0.353338 0.860407 0.556836
C3    C     C_R   0.925954 0.146402 0.859883 0.557559
C4    C     C_R   0.073939 0.853539 0.140057 0.560206
C5    C     C_R   0.405345 0.465399 0.523512 0.020152
C6    C     C_R   0.604127 0.539111 0.491566 0.013159
C7    C     C_R   0.600702 0.961858 0.489618 0.018824
C8    C     C_R   0.398992 0.038238 0.510128 0.018965
C9    C     C_2   0.399446 0.926521 0.928513 -0.111089
C10   C     C_2   0.600618 0.073431 0.071313 -0.109652
C11   C     C_2   0.594319 0.424007 0.083012 -0.113861
C12   C     C_2   0.367432 0.561698 0.987263 -0.097631
C13   C     C_2   0.496606 0.961934 0.010522 -0.159650
C14   C     C_2   0.503421 0.038036 0.989339 -0.159396
C15   C     C_2   0.481834 0.451161 0.036373 -0.168157
C16   C     C_2   0.464806 0.525732 0.069455 -0.169250
C17   C     C_2   0.010828 0.921270 0.110718 -0.080618
C18   C     C_2   0.988738 0.078543 0.888949 -0.080125
C19   C     C_2   0.990481 0.420608 0.890696 -0.083673
C20   C     C_2   0.010906 0.578964 0.110437 -0.076330
C21   C     C_2   0.015968 0.962014 0.001964 0.230278
C22   C     C_2   0.983349 0.037717 0.997448 0.231077
C23   C     C_2   0.986850 0.461623 0.000405 0.231351
C24   C     C_2   0.017070 0.537505 0.002675 0.226370
C25   C     C_R   0.472115 0.647818 0.444208 0.520085
C26   C     C_R   0.529548 0.353460 0.558353 0.528588
C27   C     C_R   0.529042 0.147206 0.556810 0.528046
C28   C     C_R   0.470896 0.852824 0.443134 0.529561
C29   C     C_R   0.353055 0.638076 0.007441 0.593278
C30   C     C_R   0.623886 0.355048 0.036001 0.559451
C31   C     C_R   0.624837 0.144811 0.034664 0.559294
C32   C     C_R   0.375178 0.855173 0.965296 0.568129
C33   C     C_R   0.501482 0.426570 0.498338 -0.038169
C34   C     C_R   0.506652 0.577293 0.513866 -0.040197
C35   C     C_R   0.500888 0.924769 0.507997 -0.039143
C36   C     C_R   0.498837 0.075309 0.491776 -0.039267
C37   C     C_R   0.298195 0.431845 0.527827 -0.089727
C38   C     C_R   0.709361 0.574329 0.485876 -0.097260
C39   C     C_R   0.707166 0.925837 0.488523 -0.092809
C40   C     C_R   0.292581 0.074304 0.511264 -0.092981
C41   C     C_R   0.214731 0.468300 0.574733 -0.150649
C42   C     C_R   0.796877 0.538507 0.445346 -0.155445
C43   C     C_R   0.795811 0.960422 0.448831 -0.153954
C44   C     C_R   0.203828 0.039750 0.550810 -0.154078
C45   C     C_R   0.234933 0.539435 0.615207 -0.126274
C46   C     C_R   0.784014 0.466173 0.415199 -0.136137
C47   C     C_R   0.783876 0.032566 0.417540 -0.135185
C48   C     C_R   0.215655 0.967602 0.582095 -0.135441
C49   C     C_R   0.335978 0.574660 0.604455 -0.063520
C50   C     C_R   0.682562 0.429967 0.422725 -0.072560
C51   C     C_R   0.681744 0.069629 0.421373 -0.073728
C52   C     C_R   0.317736 0.930476 0.578151 -0.073715
C53   C     C_R   0.417073 0.539527 0.548751 0.012212
C54   C     C_R   0.595328 0.464573 0.470090 0.010791
C55   C     C_R   0.592861 0.036133 0.466368 0.012987
C56   C     C_R   0.406744 0.963946 0.533267 0.012816
Cr1   Cr    Cr6+3 0.187610 0.750000 0.979860 0.996187
Cr2   Cr    Cr6+3 0.812390 0.250000 0.020140 1.007282
Cr3   Cr    Cr6+3 0.245810 0.750000 0.341640 1.002639
Cr4   Cr    Cr6+3 0.754190 0.250000 0.658360 1.004333
Cr5   Cr    Cr6+3 0.485760 0.750000 0.219910 1.007255
Cr6   Cr    Cr6+3 0.514240 0.250000 0.780090 1.011784
H1    H     H_    0.134750 0.441161 0.580528 0.100934
H2    H     H_    0.874839 0.566971 0.437229 0.106738
H3    H     H_    0.874174 0.931245 0.442776 0.103959
H4    H     H_    0.125515 0.068973 0.556878 0.103587
H5    H     H_    0.172169 0.567845 0.654111 0.130802
H6    H     H_    0.850413 0.438250 0.381245 0.123051
H7    H     H_    0.851550 0.059851 0.385886 0.118215
H8    H     H_    0.147905 0.940407 0.613851 0.118529
H9    H     H_    0.278030 0.377269 0.493545 0.129114
H10   H     H_    0.724845 0.629948 0.514387 0.134862
H11   H     H_    0.722522 0.870554 0.519493 0.130678
H12   H     H_    0.277363 0.129616 0.480476 0.130479
H13   H     H_    0.350656 0.629549 0.640756 0.137851
H14   H     H_    0.671089 0.375337 0.385134 0.133355
H15   H     H_    0.671265 0.124139 0.383581 0.130733
H16   H     H_    0.328120 0.875961 0.615898 0.132775
H17   H     H_    0.431956 0.064271 0.902574 0.166558
H18   H     H_    0.568019 0.935718 0.097374 0.166735
H19   H     H_    0.536744 0.552751 0.154381 0.173384
H20   H     H_    0.405350 0.420724 0.965309 0.152682
H21   H     H_    0.673658 0.044942 0.150375 0.134994
H22   H     H_    0.326465 0.954977 0.849301 0.134080
H23   H     H_    0.296078 0.533894 0.903588 0.144363
H24   H     H_    0.670149 0.457044 0.145676 0.138143
H25   H     H_    0.026535 0.058773 0.811139 0.081670
H26   H     H_    0.973048 0.941047 0.188544 0.081894
H27   H     H_    0.973225 0.559599 0.188302 0.084807
H28   H     H_    0.026921 0.440205 0.811921 0.079073
O1    O     O_R   0.267710 0.668200 0.902110 -0.532323
O2    O     O_R   0.732290 0.331800 0.097890 -0.519327
O3    O     O_R   0.732290 0.168200 0.097890 -0.519713
O4    O     O_R   0.267710 0.831800 0.902110 -0.516010
O5    O     O_R   0.099480 0.674460 0.038850 -0.473591
O6    O     O_R   0.900520 0.325540 0.961150 -0.455797
O7    O     O_R   0.900520 0.174460 0.961150 -0.457827
O8    O     O_R   0.099480 0.825540 0.038850 -0.456007
O9    O     O_R   0.116720 0.669210 0.267660 -0.530951
O10   O     O_R   0.883280 0.330790 0.732340 -0.532316
O11   O     O_R   0.883280 0.169210 0.732340 -0.532191
O12   O     O_R   0.116720 0.830790 0.267660 -0.530021
O13   O     O_R   0.366710 0.675440 0.427590 -0.504521
O14   O     O_R   0.633290 0.324560 0.572410 -0.506859
O15   O     O_R   0.633290 0.175440 0.572410 -0.505782
O16   O     O_R   0.366710 0.824560 0.427590 -0.503622
O17   O     O_R   0.534870 0.669390 0.371760 -0.534952
O18   O     O_R   0.465130 0.330610 0.628240 -0.522041
O19   O     O_R   0.465130 0.169390 0.628240 -0.524130
O20   O     O_R   0.534870 0.830610 0.371760 -0.523054
O21   O     O_R   0.453080 0.674480 0.075160 -0.505382
O22   O     O_R   0.546920 0.325520 0.924840 -0.496735
O23   O     O_R   0.546920 0.174480 0.924840 -0.502994
O24   O     O_R   0.453080 0.825520 0.075160 -0.496137
O25   O     O_3   0.306390 0.750000 0.180470 -0.264585
O26   O     O_3   0.693610 0.250000 0.819530 -0.245199
O27   O     O_3   0.935818 0.064260 0.097279 -0.549364
C57   C     C_3   0.031966 0.078509 0.227598 -0.007427
H29   H     H_    0.124458 0.060200 0.231624 0.118694
H30   H     H_    0.011117 0.049327 0.311908 0.129240
C58   C     C_3   0.038116 0.158013 0.262816 -0.346454
H31   H     H_    0.945818 0.180596 0.240886 0.198987
H32   H     H_    0.088776 0.167589 0.377269 0.056202
H33   H     H_    0.084935 0.186355 0.199392 0.125119
O28   O     O_3   0.063509 0.935430 0.902146 -0.549365
C59   C     C_3   0.967361 0.920858 0.772004 -0.007367
H34   H     H_    0.986680 0.951163 0.687912 0.129328
H35   H     H_    0.874395 0.937547 0.769128 0.118684
C60   C     C_3   0.964067 0.841602 0.735151 -0.346016
H36   H     H_    0.921200 0.811442 0.800445 0.130189
H37   H     H_    0.910997 0.832152 0.621293 0.056160
H38   H     H_    0.056897 0.820848 0.753039 0.195581
O29   O     O_3   0.064347 0.563441 0.902602 -0.570957
C61   C     C_3   0.968381 0.577442 0.772018 -0.009821
H39   H     H_    0.876055 0.558962 0.767483 0.124604
H40   H     H_    0.990024 0.548327 0.687409 0.129231
C62   C     C_3   0.961614 0.656938 0.737452 -0.347316
H41   H     H_    0.053833 0.679590 0.761001 0.199010
H42   H     H_    0.912375 0.666338 0.622749 0.057525
H43   H     H_    0.913501 0.685456 0.799855 0.128503
O30   O     O_3   0.941481 0.435485 0.102117 -0.548347
C63   C     C_3   0.038981 0.421499 0.231621 -0.010487
H44   H     H_    0.024432 0.454508 0.316375 0.128061
H45   H     H_    0.132079 0.434594 0.230380 0.113092
C64   C     C_3   0.037467 0.343312 0.272361 -0.347643
H46   H     H_    0.073769 0.310000 0.204398 0.133160
H47   H     H_    0.094234 0.334520 0.385246 0.057964
H48   H     H_    0.943732 0.326178 0.260138 0.189041

loop_
_geom_bond_atom_site_label_1
_geom_bond_atom_site_label_2
_ccdc_geom_bond_type
C24   O29   S    
C22   O27   S    
C32   O4    A    
C59   H34   S    
C4    O8    A    
C12   C29   S    
C17   H26   S    
Cr3   O9    S    
C44   H4    S    
C7    C55   A    
C1    O9    A    
C61   C62   S    
C64   H46   S    
Cr1   O25   S    
Cr6   O26   S    
C62   H42   S    
C50   C54   A    
C12   H23   S    
C7    C39   A    
C5    C53   A    
Cr2   O3    S    
C38   C42   A    
C5    C37   A    
C42   C46   A    
Cr6   O18   S    
C27   O15   A    
C11   H24   S    
C15   C16   S    
C10   H21   S    
C3    C18   S    
C8    C36   A    
Cr2   O6    S    
C57   H29   S    
C47   H7    S    
C58   H33   S    
C9    C13   D    
C9    C32   S    
C26   O14   A    
C11   C15   D    
C10   C31   S    
C12   C16   D    
C11   C30   S    
C28   O16   A    
C4    O12   A    
Cr5   O25   S    
C23   C24   S    
C6    C38   A    
C40   C44   A    
C1    O5    A    
C25   C34   S    
C60   H38   S    
C3    O11   A    
C35   C56   A    
C13   H18   S    
C2    O10   A    
C13   C14   S    
Cr2   O26   S    
C63   C64   S    
C8    C56   A    
Cr2   O7    S    
C6    C54   A    
C52   H16   S    
Cr5   O20   S    
C64   H47   S    
C15   H20   S    
C39   C43   A    
C62   H43   S    
C38   H10   S    
Cr3   O16   S    
C58   H32   S    
C20   C24   D    
C28   C35   S    
Cr6   O23   S    
C30   O2    A    
C10   C14   D    
C26   O18   A    
C25   O13   A    
C61   H40   S    
C59   C60   S    
C28   O20   A    
C31   O3    A    
C17   C21   D    
C6    C34   A    
C30   O22   A    
C57   C58   S    
C19   C23   D    
C51   H15   S    
C46   H6    S    
C50   H14   S    
C3    O7    A    
C26   C33   S    
C45   C49   A    
C43   H3    S    
C49   H13   S    
C14   H17   S    
C58   H31   S    
C61   H39   S    
C4    C17   S    
Cr1   O4    S    
C37   H9    S    
O28   C59   S    
C63   H45   S    
Cr4   O26   S    
C41   H1    S    
C21   O28   S    
Cr4   O11   S    
Cr5   O21   S    
C42   H2    S    
C29   O1    A    
C64   H48   S    
C25   O17   A    
C60   H36   S    
C62   H41   S    
C33   C54   A    
C1    C20   S    
C59   H35   S    
Cr1   O1    S    
C2    C19   S    
C18   C22   D    
Cr3   O12   S    
C7    C35   A    
C29   O21   A    
C48   H8    S    
Cr4   O10   S    
C47   C51   A    
C45   H5    S    
C27   C36   S    
C20   H27   S    
C46   C50   A    
C18   H25   S    
Cr3   O13   S    
C2    O6    A    
C19   H28   S    
Cr4   O14   S    
O27   C57   S    
O29   C61   S    
Cr6   O19   S    
Cr2   O2    S    
C49   C53   A    
Cr1   O8    S    
C16   H19   S    
C40   H12   S    
C51   C55   A    
C5    C33   A    
C39   H11   S    
C37   C41   A    
Cr5   O17   S    
C57   H30   S    
O30   C63   S    
C9    H22   S    
C52   C56   A    
C48   C52   A    
Cr6   O22   S    
C27   O19   A    
C34   C53   A    
Cr3   O25   S    
Cr1   O5    S    
Cr5   O24   S    
C36   C55   A    
C41   C45   A    
C63   H44   S    
C23   O30   S    
C8    C40   A    
C32   O24   A    
C21   C22   S    
C43   C47   A    
C31   O23   A    
Cr4   O15   S    
C44   C48   A    
C60   H37   S    
