data_mof_unit_47434.cif
_audit_creation_date              2012-12-11T17:01:25-0500
_audit_creation_method            fapswitch 2.2
_symmetry_space_group_name_H-M    P1
_symmetry_Int_Tables_number       1
_space_group_crystal_system       triclinic
_cell_length_a                    15.120625
_cell_length_b                    14.786875
_cell_length_c                    14.888034
_cell_angle_alpha                 109.026706
_cell_angle_beta                  109.183104
_cell_angle_gamma                 109.820167
_cell_volume                      2574.44473336

loop_
_atom_site_label
_atom_site_type_symbol
_atom_type_description
_atom_site_fract_x
_atom_site_fract_y
_atom_site_fract_z
_atom_type_partial_charge
C1    C     C_R   0.003669 0.805034 0.095973 -0.229313
C2    C     C_R   0.701451 0.133903 0.697719 -0.052657
C3    C     C_R   0.946948 0.501532 0.675810 0.070293
C4    C     C_R   0.676652 0.503842 0.979054 -0.009472
C5    C     C_R   0.989230 0.587620 0.296325 -0.143848
C6    C     C_R   0.203712 0.408700 0.896197 0.161132
C7    C     C_R   0.311452 0.746128 0.221131 0.760790
C8    C     C_R   0.978182 0.256032 0.070404 -0.091712
C9    C     C_R   0.070358 0.256113 0.979708 -0.034146
C10   C     C_R   0.224353 0.760675 0.316068 0.206890
C11   C     C_R   0.895718 0.405273 0.201417 0.267876
C12   C     C_R   0.793825 0.197060 0.700912 -0.225787
C13   C     C_R   0.292574 0.591037 0.985859 0.015834
C14   C     C_R   0.927235 0.494775 0.297812 0.013722
C15   C     C_R   0.295243 0.500790 0.924877 -0.042429
C16   C     C_R   0.324121 0.780471 0.324057 -0.173004
C17   C     C_R   0.056617 0.232892 0.058933 0.092469
C18   C     C_3   0.500288 0.459335 0.843554 -0.384885
C19   C     C_3   0.391717 0.452638 0.826367 -0.373229
C20   C     C_3   0.520785 0.432581 0.007890 0.603787
C21   C     C_3   0.600488 0.626127 0.032238 -0.044774
C22   C     C_3   0.577028 0.505737 0.966365 0.035223
C23   C     C_R   0.021451 0.592789 0.778731 -0.004127
C24   C     C_3   0.397354 0.503767 0.938350 0.119551
C25   C     C_3   0.418541 0.436920 0.997453 -0.058507
C26   C     C_3   0.493778 0.624678 0.007936 -0.398119
C27   C     C_R   0.593250 0.023631 0.504542 -0.055057
C28   C     C_R   0.617812 0.028794 0.604965 0.017372
C29   C     C_R   0.559279 0.934847 0.610059 0.215545
C30   C     C_R   0.462079 0.845893 0.514782 0.180926
C31   C     C_R   0.428600 0.855409 0.419464 -0.023852
C32   C     C_R   0.500361 0.938567 0.413470 -0.010194
C33   C     C_3   0.483861 0.012158 0.368537 1.410262
C34   C     C_R   0.685415 0.409395 0.948298 -0.033076
C35   C     C_3   0.587810 0.107178 0.470338 -0.683921
C36   C     C_R   0.918474 0.591872 0.465834 -0.084072
C37   C     C_R   0.892207 0.493479 0.379227 -0.147024
C38   C     C_R   0.847855 0.395538 0.384504 0.807946
C39   C     C_R   0.839416 0.399265 0.475511 -0.284068
C40   C     C_R   0.897224 0.500562 0.572437 0.033530
C41   C     C_R   0.925521 0.596256 0.562758 -0.165306
C42   C     C_3   0.021809 0.710468 0.631396 0.679113
C43   C     C_3   0.012967 0.706476 0.525885 0.534394
C44   C     C_R   0.045024 0.028661 0.149448 0.008508
C45   C     C_R   0.934841 0.408719 0.686592 -0.100854
C46   C     C_R   0.102892 0.988189 0.109107 0.027436
C47   C     C_R   0.172967 0.052335 0.083907 -0.206468
C48   C     C_R   0.173006 0.146881 0.084673 0.743028
C49   C     C_R   0.100392 0.176140 0.107808 -0.136474
C50   C     C_R   0.042583 0.120766 0.147340 0.034213
C51   C     C_3   0.057151 0.168759 0.259675 -0.487653
C52   C     C_3   0.060924 0.069193 0.263032 0.117928
C53   C     C_R   0.779079 0.595006 0.040568 -0.082114
C54   C     C_R   0.700006 0.195848 0.788529 0.728297
C55   C     C_R   0.096370 0.806674 0.007355 0.700643
C56   C     C_R   0.068370 0.871254 0.070228 -0.035409
H1    H     H_    0.980225 0.832696 0.156338 0.160930
H2    H     H_    0.948326 0.247890 0.125598 0.143167
H3    H     H_    0.125046 0.248030 0.950645 0.197693
H4    H     H_    0.340983 0.675451 0.006718 0.189674
H5    H     H_    0.485667 0.375733 0.793349 0.225167
H6    H     H_    0.538105 0.513748 0.814488 0.182394
H7    H     H_    0.372713 0.496913 0.781724 0.199835
H8    H     H_    0.824820 0.169243 0.648016 0.184208
H9    H     H_    0.327471 0.364796 0.774473 0.224717
H10   H     H_    0.349785 0.350601 0.947689 0.210038
H11   H     H_    0.642654 0.679728 0.004870 0.147131
H12   H     H_    0.483003 0.670872 0.963053 0.186242
H13   H     H_    0.497094 0.669010 0.086197 0.250084
H14   H     H_    0.577312 0.461510 0.094045 0.104422
H15   H     H_    0.045349 0.677658 0.802522 0.184714
H16   H     H_    0.654685 0.142653 0.454269 0.217544
H17   H     H_    0.576125 0.168806 0.524616 0.215433
H18   H     H_    0.807793 0.321697 0.474980 0.161322
H19   H     H_    0.621905 0.324428 0.899032 0.240006
H20   H     H_    0.084674 0.710941 0.518064 0.084728
H21   H     H_    0.223408 0.027436 0.057679 0.256663
H22   H     H_    0.134220 0.248316 0.318417 0.225775
H23   H     H_    0.984298 0.171253 0.259043 0.219226
H24   H     H_    0.990517 0.015047 0.265143 0.132937
H25   H     H_    0.883117 0.323097 0.624733 0.118429
H26   H     H_    0.803741 0.681510 0.076608 0.129074
H27   H     H_    0.000520 0.668109 0.339374 0.187539
N1    N     N_R   0.995640 0.706130 0.053910 -0.084766
N2    N     N_R   0.153680 0.443190 0.946090 -0.074739
N3    N     N_R   0.208920 0.706140 0.152110 -0.130878
N4    N     N_R   0.947120 0.293870 0.002870 -0.057717
N5    N     N_R   0.004360 0.293870 0.946090 -0.060355
N6    N     N_R   0.151690 0.706140 0.208890 -0.116175
N7    N     N_R   0.945990 0.443210 0.152110 -0.097768
N8    N     N_R   0.210060 0.556810 0.002870 -0.065318
N9    N     N_R   0.848310 0.293860 0.791110 -0.086554
N10   N     N_R   0.054010 0.556790 0.847890 -0.063970
N11   N     N_R   0.789940 0.443190 0.997130 -0.064552
N12   N     N_R   0.997630 0.443170 0.791110 -0.051606
N13   N     N_R   0.846320 0.556810 0.053910 -0.047789
N14   N     N_R   0.791080 0.293860 0.847890 -0.128102
N15   N     N_R   0.052880 0.706130 0.997130 -0.129563
N16   N     N_R   0.002370 0.556830 0.208890 -0.066638
Ni1   Ni    Ni4+2 0.999010 0.630300 0.130220 0.234167
Ni2   Ni    Ni4+2 0.000990 0.369700 0.869780 0.239138
Ni3   Ni    Ni4+2 0.130280 0.630280 0.000000 0.315615
Ni4   Ni    Ni4+2 0.869720 0.369720 0.000000 0.285474
I1    I     I_    0.122373 0.250991 0.755777 -0.320998
F1    F     F_    0.391449 0.761309 0.195638 -0.680837
I2    I     I_    0.206624 0.855791 0.442943 -0.188174
I3    I     I_    0.740197 0.259585 0.098278 -0.111950
F2    F     F_    0.490898 0.322975 0.947813 -0.655715
I4    I     I_    0.702577 0.707035 0.209460 -0.273478
I5    I     I_    0.424009 0.493920 0.154257 -0.221423
I6    I     I_    0.618706 0.927056 0.757085 -0.168233
I7    I     I_    0.366451 0.700296 0.513186 -0.248078
F3    F     F_    0.490875 0.989308 0.274091 -0.624463
F4    F     F_    0.393303 0.020259 0.360420 -0.690952
F5    F     F_    0.836392 0.300069 0.317184 -0.685212
I8    I     I_    0.992818 0.830426 0.725911 -0.166962
F6    F     F_    0.116725 0.714360 0.690624 -0.671108
F7    F     F_    0.982093 0.778288 0.503719 -0.626128
F8    F     F_    0.238690 0.204388 0.055862 -0.663299
I9    I     I_    0.215083 0.111490 0.385284 -0.188187
F9    F     F_    0.629616 0.158800 0.822665 -0.659021
F10   F     F_    0.177473 0.843852 0.985447 -0.667936

loop_
_geom_bond_atom_site_label_1
_geom_bond_atom_site_label_2
_ccdc_geom_bond_type
C21   C26   S    
C40   C41   A    
C4    C53   A    
C41   C42   S    
C3    C23   A    
N4    N5    A    
C2    C12   A    
N5    Ni2   S    
N2    N8    A    
C13   H4    S    
C16   C31   S    
C33   F4    S    
C29   C30   A    
C6    N2    A    
C28   C29   A    
C1    C56   A    
C24   C26   S    
C9    N5    A    
C38   C39   A    
C5    H27   S    
C11   C14   A    
C7    N3    A    
C20   C25   S    
C44   C50   A    
C18   C19   S    
C39   H18   S    
C8    H2    S    
C6    C15   A    
C35   H17   S    
C31   C32   A    
C10   N6    A    
C19   H7    S    
C7    F1    S    
C54   N14   A    
C6    I1    S    
C34   H19   S    
C44   C52   S    
C55   F10   S    
N10   N12   A    
C21   C22   S    
C21   H11   S    
C53   N13   A    
C20   H14   S    
C36   C41   A    
C44   C46   A    
N9    N14   A    
C48   F8    S    
C4    C34   A    
N6    Ni1   S    
C51   C52   S    
N1    Ni1   S    
C47   C48   A    
C23   H15   S    
C24   C25   S    
C2    C54   A    
C17   C49   S    
C39   C40   A    
C18   H6    S    
C27   C35   S    
N15   Ni3   S    
C3    C45   A    
C23   N10   A    
C30   I7    S    
C53   H26   S    
C1    N1    A    
C37   C38   A    
C1    H1    S    
C4    C22   S    
N16   Ni1   S    
C55   C56   A    
C50   C51   S    
C18   H5    S    
N11   N13   A    
C5    C14   A    
N14   Ni4   S    
N9    Ni2   S    
N4    Ni4   S    
C25   I5    S    
C9    C17   A    
C15   C24   S    
C54   F9    S    
C20   C22   S    
C35   H16   S    
C13   C15   A    
C11   I3    S    
C10   I2    S    
C42   C43   S    
C47   H21   S    
N8    Ni3   S    
C45   N12   A    
C52   I9    S    
N7    N16   A    
N2    Ni2   S    
C42   I8    S    
C43   H20   S    
C46   C47   A    
C48   C49   A    
C27   C32   A    
C18   C22   S    
C12   N9    A    
C7    C16   A    
C25   H10   S    
C34   N11   A    
N3    N6    A    
N10   Ni3   S    
C3    C40   S    
C21   I4    S    
C42   F6    S    
C5    N16   A    
N11   Ni4   S    
C33   F3    S    
C8    C17   A    
C8    N4    A    
N1    N15   A    
C32   C33   S    
C19   C24   S    
C51   H22   S    
C26   H12   S    
C10   C16   A    
C14   C37   S    
C38   F5    S    
C11   N7    A    
C30   C31   A    
C12   H8    S    
N13   Ni1   S    
C55   N15   A    
C33   C35   S    
C19   H9    S    
C45   H25   S    
C29   I6    S    
C51   H23   S    
N7    Ni4   S    
C43   F7    S    
C36   C37   A    
C49   C50   A    
C46   C56   S    
C27   C28   A    
C26   H13   S    
C36   C43   S    
C2    C28   S    
C9    H3    S    
C52   H24   S    
C13   N8    A    
N12   Ni2   S    
C20   F2    S    
N3    Ni3   S    
