data_mof_unit_65590.cif
_audit_creation_date              2012-12-10T16:57:50-0500
_audit_creation_method            fapswitch 2.2
_symmetry_space_group_name_H-M    P1
_symmetry_Int_Tables_number       1
_space_group_crystal_system       triclinic
_cell_length_a                    13.144944
_cell_length_b                    13.058711
_cell_length_c                    15.117089
_cell_angle_alpha                 86.855295
_cell_angle_beta                  100.088309
_cell_angle_gamma                 91.047758
_cell_volume                      2550.87241471

loop_
_atom_site_label
_atom_site_type_symbol
_atom_type_description
_atom_site_fract_x
_atom_site_fract_y
_atom_site_fract_z
_atom_type_partial_charge
C1    C     C_R   0.461667 0.773421 0.469108 0.835313
C2    C     C_R   0.485606 0.369382 0.131435 0.144412
C3    C     C_R   0.481379 0.554663 0.105589 -0.275390
C4    C     C_R   0.493360 0.544322 0.016446 0.143391
C5    C     C_R   0.502777 0.445401 0.984452 0.080516
C6    C     C_R   0.517632 0.435704 0.895231 0.093227
C7    C     C_R   0.509690 0.621934 0.870835 -0.210661
C8    C     C_R   0.498405 0.631751 0.959646 -0.176510
C9    C     C_2   0.544552 0.115603 0.539872 -0.240698
C10   C     C_2   0.460132 0.056028 0.524503 -0.135380
C11   C     C_2   0.443315 0.884912 0.462285 -0.037473
C12   C     C_R   0.535584 0.226995 0.532507 0.863749
C13   C     C_2   0.470087 0.944152 0.533941 0.131859
C14   C     C_2   0.112563 0.449645 0.462499 -0.265869
C15   C     C_2   0.059530 0.496273 0.515922 -0.144320
C16   C     C_2   0.889823 0.547339 0.541781 -0.316179
C17   C     C_2   0.946649 0.488278 0.500206 -0.134564
C18   C     C_R   0.777126 0.536140 0.526773 0.868303
C19   C     C_R   0.223775 0.463113 0.473415 0.845283
C20   C     C_R   0.515023 0.516747 0.741530 0.840818
C21   C     C_R   0.485404 0.480463 0.259200 0.835902
C22   C     C_R   0.517126 0.524734 0.837797 -0.073714
C23   C     C_R   0.480200 0.467814 0.163556 -0.065688
C24   C     C_R   0.496555 0.358777 0.042625 -0.189360
H1    H     H_    0.621052 0.081871 0.552589 0.165584
H2    H     H_    0.909441 0.433527 0.452854 0.191893
H3    H     H_    0.099424 0.542577 0.569246 0.159127
H4    H     H_    0.926645 0.603285 0.588041 0.164565
H5    H     H_    0.073187 0.407893 0.405972 0.143239
H6    H     H_    0.509491 0.690388 0.826950 0.193415
H7    H     H_    0.499875 0.281935 0.020509 0.199260
H8    H     H_    0.491907 0.707712 0.983520 0.166133
H9    H     H_    0.477619 0.630322 0.131076 0.163803
H10   H     H_    0.383938 0.089476 0.504196 0.173746
O1    O     O_3   0.500000 0.500000 0.500000 -0.506023
O2    O     O_R   0.733070 0.467190 0.476550 -0.641748
O3    O     O_R   0.261010 0.525210 0.419080 -0.627636
O4    O     O_R   0.532760 0.736590 0.530220 -0.622085
O5    O     O_R   0.473150 0.271000 0.574150 -0.615042
O6    O     O_R   0.407210 0.713280 0.414580 -0.614369
O7    O     O_R   0.586880 0.279120 0.481060 -0.624240
O8    O     O_R   0.723250 0.592730 0.566440 -0.630229
O9    O     O_R   0.282660 0.414860 0.537920 -0.628890
O10   O     O_R   0.563230 0.581310 0.697440 -0.631094
O11   O     O_R   0.421030 0.536630 0.288090 -0.632769
O12   O     O_R   0.459330 0.447650 0.700640 -0.614579
O13   O     O_R   0.556410 0.434400 0.313840 -0.620714
Zn1   Zn    Zn3+2 0.592480 0.421540 0.443840 1.007891
Zn2   Zn    Zn3+2 0.578450 0.600910 0.572270 1.010819
Zn3   Zn    Zn3+2 0.430000 0.409940 0.576840 1.015632
Zn4   Zn    Zn3+2 0.399070 0.567610 0.407050 1.008742
I1    I     I_    0.550848 0.288819 0.849066 -0.301007
I2    I     I_    0.475004 0.232533 0.212512 -0.275944
I3    I     I_    0.523479 0.887929 0.669467 -0.310401
I4    I     I_    0.376451 0.949909 0.333333 -0.284047

loop_
_geom_bond_atom_site_label_1
_geom_bond_atom_site_label_2
_ccdc_geom_bond_type
O10   Zn2   S    
C16   H4    S    
O9    Zn3   S    
O1    Zn2   S    
C12   O7    A    
O6    Zn4   S    
C9    C10   D    
O12   Zn3   S    
C15   H3    S    
O13   Zn1   S    
C1    C11   S    
C20   C22   S    
C4    C8    A    
C6    I1    S    
C12   O5    A    
C21   C23   S    
C24   H7    S    
C9    H1    S    
C7    C8    A    
C10   H10   S    
C7    H6    S    
O1    Zn4   S    
C11   C13   D    
C5    C24   A    
C18   O2    A    
C1    O4    A    
O1    Zn3   S    
O1    Zn1   S    
C17   H2    S    
C20   O10   A    
O7    Zn1   S    
C19   O9    A    
O2    Zn1   S    
C21   O11   A    
C18   O8    A    
C2    C24   A    
C5    C6    A    
O3    Zn4   S    
C9    C12   S    
C3    H9    S    
O8    Zn2   S    
C3    C4    A    
C7    C22   A    
O5    Zn3   S    
C11   I4    S    
C16   C18   S    
C13   I3    S    
C2    C23   A    
C15   C17   S    
O11   Zn4   S    
C14   C15   D    
C16   C17   D    
C6    C22   A    
C19   O3    A    
C1    O6    A    
O4    Zn2   S    
C3    C23   A    
C14   C19   S    
C2    I2    S    
C20   O12   A    
C14   H5    S    
C4    C5    A    
C21   O13   A    
C10   C13   S    
C8    H8    S    
