data_mof_unit_43368.cif
_audit_creation_date              2012-12-10T18:06:37-0500
_audit_creation_method            fapswitch 2.2
_symmetry_space_group_name_H-M    P1
_symmetry_Int_Tables_number       1
_space_group_crystal_system       triclinic
_cell_length_a                    12.588881
_cell_length_b                    13.136746
_cell_length_c                    15.410511
_cell_angle_alpha                 83.141565
_cell_angle_beta                  98.663108
_cell_angle_gamma                 96.877586
_cell_volume                      2487.95779833

loop_
_atom_site_label
_atom_site_type_symbol
_atom_type_description
_atom_site_fract_x
_atom_site_fract_y
_atom_site_fract_z
_atom_type_partial_charge
C1    C     C_R   0.442044 0.308598 0.507094 0.849308
C2    C     C_R   0.629522 0.379504 0.937120 0.178997
C3    C     C_R   0.531225 0.420712 0.902166 0.092546
C4    C     C_R   0.434278 0.509233 0.336256 0.852211
C5    C     C_R   0.706207 0.371680 0.881488 -0.218204
C6    C     C_R   0.686933 0.407039 0.792020 -0.212913
C7    C     C_R   0.517443 0.462279 0.814245 -0.262883
C8    C     C_R   0.643612 0.943923 0.368631 -0.200814
C9    C     C_R   0.583215 0.801462 0.469685 -0.053700
C10   C     C_R   0.332221 0.158541 0.570851 -0.193388
C11   C     C_R   0.311939 0.052732 0.589768 -0.140092
C12   C     C_R   0.414761 0.443096 0.104312 0.096210
C13   C     C_R   0.369869 0.987147 0.555275 -0.188846
C14   C     C_R   0.445818 0.027067 0.497268 0.088194
C15   C     C_R   0.452785 0.132832 0.467489 0.099493
C16   C     C_R   0.556250 0.691702 0.489190 0.856005
C17   C     C_R   0.515281 0.965761 0.467921 0.083227
C18   C     C_R   0.577172 0.006199 0.399403 0.181246
C19   C     C_R   0.570053 0.107324 0.361604 -0.252327
C20   C     C_R   0.508304 0.170014 0.395110 -0.211511
C21   C     C_R   0.526142 0.865526 0.506083 -0.254824
C22   C     C_R   0.645135 0.840850 0.402689 -0.181761
C23   C     C_R   0.310667 0.471488 0.068368 0.182750
C24   C     C_R   0.405200 0.199043 0.511997 -0.127642
C25   C     C_R   0.139508 0.633456 0.629202 -0.264536
C26   C     C_R   0.756465 0.376891 0.398947 -0.029437
C27   C     C_R   0.850024 0.337943 0.387331 -0.362287
C28   C     C_R   0.563299 0.483529 0.664262 0.861612
C29   C     C_R   0.950359 0.376977 0.430953 0.502811
C30   C     C_R   0.953091 0.459696 0.484312 -0.085136
C31   C     C_R   0.853813 0.490128 0.498882 0.106555
C32   C     C_R   0.049128 0.513160 0.524541 -0.064291
C33   C     C_R   0.044242 0.584239 0.586763 0.072851
C34   C     C_R   0.481810 0.410252 0.049460 0.071555
C35   C     C_R   0.944785 0.607162 0.604317 0.410287
C36   C     C_R   0.851185 0.562373 0.558057 -0.285619
C37   C     C_R   0.150363 0.504350 0.501390 0.026383
C38   C     C_R   0.237393 0.614362 0.608001 -0.022477
C39   C     C_R   0.389916 0.497693 0.244392 -0.048398
C40   C     C_R   0.592650 0.453781 0.758505 -0.052094
C41   C     C_R   0.245181 0.506646 0.122089 -0.225314
C42   C     C_R   0.284689 0.519763 0.209888 -0.196555
C43   C     C_R   0.452936 0.457937 0.192117 -0.275307
C44   C     C_3   0.887577 0.650052 0.730072 0.067551
C45   C     C_R   0.452322 0.425909 0.957241 0.069496
C46   C     C_3   0.790442 0.710474 0.728631 -0.320931
C47   C     C_3   0.749193 0.696281 0.817960 -0.961441
C48   C     C_3   0.056550 0.300130 0.351159 0.036869
C49   C     C_3   0.173343 0.276601 0.354883 -0.318503
C50   C     C_3   0.193822 0.243509 0.267776 -0.956189
C51   C     C_R   0.345673 0.447807 0.923239 -0.234001
C52   C     C_R   0.275102 0.467994 0.978647 -0.242087
C53   C     C_R   0.578669 0.365654 0.083160 -0.232875
C54   C     C_R   0.650229 0.348424 0.027190 -0.239754
H1    H     H_    0.194642 0.486503 0.950437 0.142478
H2    H     H_    0.503364 0.247633 0.363300 0.150077
H3    H     H_    0.312173 0.650048 0.640923 0.131337
H4    H     H_    0.448764 0.503972 0.788457 0.159121
H5    H     H_    0.138750 0.685853 0.678263 0.180883
H6    H     H_    0.161753 0.463944 0.447641 0.167327
H7    H     H_    0.679507 0.345375 0.366594 0.145238
H8    H     H_    0.842446 0.274003 0.347972 0.139934
H9    H     H_    0.777150 0.586640 0.569001 0.224460
H10   H     H_    0.745279 0.397728 0.749384 0.160334
H11   H     H_    0.723965 0.314693 0.054982 0.140360
H12   H     H_    0.780729 0.338289 0.907131 0.137376
H13   H     H_    0.164757 0.526648 0.095578 0.134502
H14   H     H_    0.233606 0.548173 0.250241 0.156390
H15   H     H_    0.534250 0.443536 0.219765 0.156172
H16   H     H_    0.314555 0.448243 0.853949 0.152124
H17   H     H_    0.599716 0.341328 0.152450 0.136584
H18   H     H_    0.946409 0.664794 0.789759 0.163370
H19   H     H_    0.860729 0.565703 0.736251 0.115513
H20   H     H_    0.813895 0.793953 0.711543 0.244451
H21   H     H_    0.724301 0.684249 0.677370 0.196811
H22   H     H_    0.730531 0.613374 0.839615 0.279895
H23   H     H_    0.689448 0.791031 0.373604 0.159920
H24   H     H_    0.674543 0.735150 0.812792 0.264985
H25   H     H_    0.810981 0.730860 0.868424 0.264285
H26   H     H_    0.041226 0.365764 0.299419 0.125942
H27   H     H_    0.002862 0.230095 0.333201 0.158923
H28   H     H_    0.229246 0.346121 0.369917 0.227068
H29   H     H_    0.190857 0.213701 0.408197 0.245821
H30   H     H_    0.143310 0.170504 0.253629 0.265032
H31   H     H_    0.280232 0.230894 0.272097 0.267872
H32   H     H_    0.174684 0.304092 0.212818 0.273784
H33   H     H_    0.613627 0.138539 0.307176 0.137056
H34   H     H_    0.690473 0.973670 0.315899 0.135181
H35   H     H_    0.486874 0.833384 0.562293 0.140447
H36   H     H_    0.293171 0.208715 0.604141 0.173665
H37   H     H_    0.351703 0.905736 0.573406 0.132998
H38   H     H_    0.254593 0.021546 0.634340 0.150666
N1    N     N_R   0.239390 0.551900 0.544730 -0.112817
N2    N     N_R   0.759950 0.448600 0.455730 -0.108647
O1    O     O_R   0.374950 0.371210 0.521360 -0.614499
O2    O     O_3   0.040634 0.323777 0.435331 -0.652729
O3    O     O_R   0.542050 0.338030 0.492790 -0.602168
O4    O     O_R   0.368720 0.526070 0.390200 -0.626717
O5    O     O_R   0.535820 0.492890 0.361630 -0.623337
O6    O     O_R   0.457950 0.661970 0.507210 -0.605354
O7    O     O_R   0.625050 0.628790 0.478640 -0.630944
O8    O     O_R   0.464180 0.507110 0.638370 -0.616922
O9    O     O_R   0.631280 0.473930 0.609800 -0.631206
O10   O     O_3   0.940130 0.686100 0.655521 -0.647245
Zn1   Zn    Zn3+2 0.388420 0.522150 0.519080 0.934701
Zn2   Zn    Zn3+2 0.611580 0.477850 0.480920 0.929482

loop_
_geom_bond_atom_site_label_1
_geom_bond_atom_site_label_2
_ccdc_geom_bond_type
C26   N2    A    
C4    O4    A    
C27   C29   A    
C41   C42   A    
C19   C20   A    
C47   H25   S    
C20   H2    S    
C9    C21   A    
C44   O10   S    
C50   H30   S    
C41   H13   S    
C54   H11   S    
C21   H35   S    
C53   C54   A    
C12   C23   A    
O6    Zn1   S    
O4    Zn1   S    
C26   H7    S    
C47   H22   S    
C12   C43   A    
C19   H33   S    
C30   C31   A    
C9    C22   A    
C45   C51   A    
C48   H27   S    
O8    Zn1   S    
C18   C19   A    
C6    H10   S    
O1    Zn1   S    
C50   H31   S    
N1    Zn1   S    
C11   H38   S    
C35   C36   A    
C8    C22   A    
C7    C40   A    
C51   H16   S    
C36   H9    S    
C7    H4    S    
C52   H1    S    
C43   H15   S    
C13   C14   A    
C13   H37   S    
C42   H14   S    
C14   C17   A    
C46   H21   S    
C44   C46   S    
C39   C42   A    
C15   C20   A    
C51   C52   A    
C35   O10   S    
C2    C54   A    
C1    O3    A    
C16   O6    A    
C39   C43   A    
C10   C24   A    
C3    C45   A    
C8    C18   A    
C8    H34   S    
C49   H28   S    
C29   C30   A    
C27   H8    S    
C25   C38   A    
C38   H3    S    
C4    C39   S    
C1    O1    A    
C17   C18   A    
C26   C27   A    
C37   N1    A    
C34   C45   A    
C32   C37   A    
C34   C53   A    
O3    Zn2   S    
C15   C24   A    
C6    C40   A    
C2    C5    A    
C12   C34   A    
C53   H17   S    
C46   H20   S    
O7    Zn2   S    
O5    Zn2   S    
C46   C47   S    
N2    Zn2   S    
C48   O2    S    
C14   C15   A    
C9    C16   S    
C22   H23   S    
C5    H12   S    
C29   O2    S    
C31   N2    A    
C3    C7    A    
C23   C41   A    
C32   C33   A    
C49   H29   S    
C2    C3    A    
C30   C32   A    
C11   C13   A    
C28   O9    A    
C48   H26   S    
C23   C52   A    
C5    C6    A    
C48   C49   S    
C38   N1    A    
C33   C35   A    
C44   H18   S    
O9    Zn2   S    
C44   H19   S    
C17   C21   A    
C37   H6    S    
C10   C11   A    
C50   H32   S    
C28   O8    A    
C16   O7    A    
C10   H36   S    
C1    C24   S    
C49   C50   S    
C4    O5    A    
C28   C40   S    
C31   C36   A    
C25   H5    S    
C47   H24   S    
C25   C33   A    
