data_mof_unit_29124.cif
_audit_creation_date              2012-12-10T18:36:29-0500
_audit_creation_method            fapswitch 2.2
_symmetry_space_group_name_H-M    P1
_symmetry_Int_Tables_number       1
_space_group_crystal_system       triclinic
_cell_length_a                    13.814142
_cell_length_b                    15.188378
_cell_length_c                    15.816548
_cell_angle_alpha                 93.47181
_cell_angle_beta                  71.489667
_cell_angle_gamma                 90.310066
_cell_volume                      3140.74982019

loop_
_atom_site_label
_atom_site_type_symbol
_atom_type_description
_atom_site_fract_x
_atom_site_fract_y
_atom_site_fract_z
_atom_type_partial_charge
C1    C     C_R   0.500065 0.670456 0.498987 0.985583
C2    C     C_R   0.500860 0.329182 0.498374 1.004434
C3    C     C_R   0.366702 0.456477 0.094367 -0.101393
C4    C     C_R   0.605586 0.396736 0.912027 -0.059002
C5    C     C_R   0.297434 0.458319 0.046901 -0.160106
C6    C     C_R   0.678791 0.404044 0.955335 -0.094889
C7    C     C_R   0.465424 0.897136 0.422278 0.365554
C8    C     C_R   0.575130 0.083953 0.439476 0.343162
C9    C     C_R   0.489279 0.805795 0.418198 0.276413
C10   C     C_R   0.579384 0.177397 0.434667 0.286660
C11   C     C_R   0.497358 0.767616 0.495774 -0.309825
C12   C     C_R   0.501548 0.231430 0.498046 -0.294684
C13   C     C_R   0.488724 0.822518 0.573306 0.284944
C14   C     C_R   0.424271 0.190564 0.564837 0.362979
C15   C     C_R   0.479864 0.913122 0.571350 -0.164905
C16   C     C_R   0.410696 0.100179 0.556049 -0.193292
C17   C     C_R   0.471397 0.950830 0.496175 -0.056711
C18   C     C_R   0.483810 0.046891 0.493034 -0.053697
C19   C     C_R   0.913993 0.443705 0.441985 -0.247140
C20   C     C_R   0.120829 0.568510 0.463790 -0.258862
C21   C     C_R   0.811820 0.443457 0.443177 0.100227
C22   C     C_R   0.222099 0.567606 0.465158 0.138107
C23   C     C_R   0.439251 0.498287 0.672705 0.947991
C24   C     C_R   0.560097 0.492022 0.328001 0.961588
C25   C     C_R   0.770923 0.561180 0.553146 0.087308
C26   C     C_R   0.196227 0.431865 0.533333 0.004563
C27   C     C_R   0.872001 0.563181 0.556096 0.361260
C28   C     C_R   0.093288 0.430562 0.535516 0.342336
C29   C     C_R   0.945531 0.502889 0.499559 0.027805
C30   C     C_R   0.054322 0.500182 0.499734 0.039352
C31   C     C_R   0.404899 0.487763 0.770852 -0.103535
C32   C     C_R   0.590489 0.470322 0.230794 -0.124246
C33   C     C_R   0.264044 0.467178 0.906401 -0.150706
C34   C     C_R   0.722965 0.452061 0.087351 -0.120657
C35   C     C_R   0.300054 0.478150 0.815045 -0.157944
C36   C     C_R   0.692616 0.478558 0.177916 -0.275724
C37   C     C_R   0.474575 0.481815 0.820558 0.272511
C38   C     C_R   0.518530 0.435290 0.190662 0.347453
C39   C     C_R   0.438697 0.451265 0.908139 -0.060549
C40   C     C_R   0.544337 0.433457 0.096687 -0.012214
C41   C     C_R   0.332666 0.456415 0.953734 0.106467
C42   C     C_R   0.649383 0.430080 0.046158 0.097528
C43   C     C_R   0.505092 0.427267 0.955995 0.060959
C44   C     C_R   0.470885 0.436395 0.050574 0.082302
Cu1   Cu    Cu3+1 0.403570 0.500010 0.500000 1.070669
Cu2   Cu    Cu3+1 0.596430 0.499990 0.500000 1.088339
N1    N     N_R   0.741310 0.499980 0.500000 -0.229017
N2    N     N_R   0.258690 0.500020 0.500000 -0.209024
O1    O     O_R   0.418570 0.628550 0.499990 -0.606887
O2    O     O_R   0.581430 0.371450 0.500010 -0.549088
O3    O     O_R   0.581440 0.628540 0.499990 -0.543397
O4    O     O_R   0.418560 0.371460 0.500010 -0.559756
O5    O     O_R   0.372890 0.500010 0.629830 -0.593575
O6    O     O_R   0.627110 0.499990 0.370170 -0.591492
O7    O     O_R   0.535760 0.500000 0.629840 -0.524776
O8    O     O_R   0.464240 0.500000 0.370160 -0.515251
H1    H     H_    0.217050 0.468989 0.083219 0.154613
H2    H     H_    0.758419 0.391925 0.917303 0.174590
H3    H     H_    0.968334 0.397873 0.396149 0.197104
H4    H     H_    0.094423 0.622560 0.434793 0.194871
H5    H     H_    0.789280 0.399117 0.397320 0.185743
H6    H     H_    0.271585 0.620960 0.437095 0.184013
H7    H     H_    0.715309 0.608625 0.593757 0.219875
H8    H     H_    0.226368 0.377612 0.557918 0.216441
S1    S     S_3+6 0.902801 0.639716 0.632174 0.077013
O9    O     O_2   0.961780 0.713900 0.581619 -0.280655
O10   O     O_2   0.807337 0.676508 0.700995 -0.160107
O11   O     O_3   0.974693 0.589720 0.683828 -0.494950
H9    H     H_    0.998130 0.638011 0.717227 0.379773
S2    S     S_3+6 0.015531 0.342523 0.585059 0.058345
O12   O     O_2   0.001650 0.280064 0.512532 -0.248037
O13   O     O_2   0.064781 0.293767 0.640972 -0.220456
O14   O     O_3   0.900781 0.381960 0.650085 -0.472978
H10   H     H_    0.858315 0.329130 0.667011 0.389837
S3    S     S_3+6 0.421240 0.362563 0.250105 0.037072
O15   O     O_2   0.393990 0.298079 0.185570 -0.244085
O16   O     O_2   0.459029 0.311355 0.311853 -0.236666
O17   O     O_3   0.315856 0.419918 0.310903 -0.562945
H11   H     H_    0.264149 0.374677 0.335031 0.374248
S4    S     S_3+6 0.591981 0.540478 0.788800 0.055923
O18   O     O_2   0.675545 0.482263 0.727190 -0.265721
O19   O     O_2   0.580070 0.619862 0.741824 -0.179443
O20   O     O_3   0.626503 0.576697 0.877625 -0.472771
H12   H     H_    0.570087 0.616630 0.913671 0.366723
H13   H     H_    0.749821 0.500935 0.207569 0.178623
H14   H     H_    0.244932 0.483080 0.779744 0.200679
H15   H     H_    0.182402 0.467650 0.940188 0.162817
H16   H     H_    0.803276 0.452680 0.048741 0.163797
H17   H     H_    0.337563 0.472736 0.165002 0.207888
H18   H     H_    0.629516 0.374655 0.842190 0.192833
S5    S     S_3+6 0.414564 0.943377 0.344199 0.109581
O21   O     O_2   0.342808 0.018577 0.389247 -0.251977
O22   O     O_2   0.499291 0.977351 0.268228 -0.170064
O23   O     O_3   0.349298 0.866740 0.304204 -0.457909
H19   H     H_    0.328736 0.895995 0.258121 0.395747
S6    S     S_3+6 0.685257 0.013488 0.387437 0.113576
O24   O     O_2   0.688285 0.985740 0.293825 -0.187714
O25   O     O_2   0.782343 0.060161 0.384135 -0.151803
O26   O     O_3   0.682999 0.922474 0.443469 -0.531087
H20   H     H_    0.726805 0.878540 0.399152 0.390676
S7    S     S_3+6 0.525003 0.741556 0.314724 0.056117
O27   O     O_2   0.439104 0.681990 0.311018 -0.284668
O28   O     O_2   0.551857 0.798419 0.236270 -0.176438
O29   O     O_3   0.628519 0.680198 0.307595 -0.570515
H21   H     H_    0.661219 0.665335 0.242940 0.370900
S8    S     S_3+6 0.683122 0.224161 0.351837 0.088128
O30   O     O_2   0.770635 0.236355 0.388339 -0.255512
O31   O     O_2   0.716482 0.164247 0.268322 -0.165022
O32   O     O_3   0.653100 0.321486 0.322673 -0.556316
H22   H     H_    0.716084 0.339030 0.276398 0.357720
S9    S     S_3+6 0.498356 0.782433 0.672018 0.079718
O33   O     O_2   0.609060 0.761315 0.655767 -0.172172
O34   O     O_2   0.463085 0.850548 0.748831 -0.226906
O35   O     O_3   0.427032 0.692028 0.697324 -0.539473
H23   H     H_    0.356950 0.711227 0.702221 0.336168
S10   S     S_3+6 0.362786 0.245009 0.670754 0.024943
O36   O     O_2   0.290657 0.315679 0.664471 -0.283755
O37   O     O_2   0.304204 0.180129 0.735536 -0.244294
O38   O     O_3   0.453356 0.290853 0.708725 -0.566931
H24   H     H_    0.424791 0.291784 0.774681 0.375486
H25   H     H_    0.483345 0.955652 0.627842 0.217539
H26   H     H_    0.347413 0.069387 0.603899 0.218095

loop_
_geom_bond_atom_site_label_1
_geom_bond_atom_site_label_2
_ccdc_geom_bond_type
C22   N2    A    
S7    O27   D    
C27   C29   A    
O14   H10   S    
C6    H2    S    
S9    O33   D    
C1    C11   S    
S3    O15   D    
C2    C12   S    
O35   H23   S    
C39   C41   A    
C20   C30   A    
Cu1   Cu2   S    
C32   C36   A    
C19   C21   A    
C35   H14   S    
S5    O22   D    
S8    O30   D    
C24   O6    A    
S6    O26   S    
S10   O36   D    
C7    C9    A    
C25   H7    S    
C26   H8    S    
C16   H26   S    
C8    S6    S    
C2    O2    A    
O20   H12   S    
Cu1   O8    S    
O11   H9    S    
S1    O10   D    
C34   C42   A    
Cu2   O7    S    
S2    O12   D    
C32   C38   A    
C20   H4    S    
C25   N1    A    
C21   H5    S    
C26   N2    A    
C40   C42   A    
Cu1   O5    S    
S7    O28   D    
S4    O20   S    
O29   H21   S    
C23   O5    A    
C4    H18   S    
C38   S3    S    
C37   S4    S    
C3    C44   A    
S4    O19   D    
S5    O21   D    
O17   H11   S    
C39   C43   A    
Cu1   O4    S    
C19   H3    S    
Cu2   O3    S    
C8    C18   A    
C31   C37   A    
S6    O25   D    
C23   C31   S    
C43   C44   A    
C24   C32   S    
C29   C30   S    
C27   S1    S    
C22   H6    S    
S3    O16   D    
O26   H20   S    
Cu1   O1    S    
S1    O11   S    
C7    S5    S    
S6    O24   D    
Cu2   O6    S    
S2    O14   S    
C17   C18   S    
S9    O34   D    
C16   C18   A    
C34   H16   S    
C1    O3    A    
C10   C12   A    
C4    C6    A    
C12   C14   A    
S7    O29   S    
C9    C11   A    
C14   C16   A    
C10   S8    S    
C24   O8    A    
C19   C29   A    
Cu1   N2    S    
C15   C17   A    
C5    C41   A    
Cu2   N1    S    
C15   H25   S    
C8    C10   A    
C28   S2    S    
C20   C22   A    
S4    O18   D    
C3    C5    A    
C7    C17   A    
O38   H24   S    
S10   O38   S    
C23   O7    A    
C4    C43   A    
C36   H13   S    
C25   C27   A    
Cu2   O2    S    
C26   C28   A    
C2    O4    A    
C5    H1    S    
C3    H17   S    
C33   C41   A    
C13   C15   A    
C33   H15   S    
C37   C39   A    
O32   H22   S    
S5    O23   S    
C38   C40   A    
C11   C13   A    
S8    O31   D    
C14   S10   S    
C13   S9    S    
C31   C35   A    
C28   C30   A    
C33   C35   A    
S10   O37   D    
S9    O35   S    
C34   C36   A    
O23   H19   S    
S3    O17   S    
C40   C44   A    
C9    S7    S    
S1    O9    D    
C6    C42   A    
S2    O13   D    
C1    O1    A    
C21   N1    A    
S8    O32   S    
