data_mof_unit_56328.cif
_audit_creation_date              2012-12-10T18:03:18-0500
_audit_creation_method            fapswitch 2.2
_symmetry_space_group_name_H-M    P1
_symmetry_Int_Tables_number       1
_space_group_crystal_system       triclinic
_cell_length_a                    10.793714
_cell_length_b                    9.769092
_cell_length_c                    15.113693
_cell_angle_alpha                 90.178038
_cell_angle_beta                  95.149658
_cell_angle_gamma                 90.926752
_cell_volume                      1587.00327786

loop_
_atom_site_label
_atom_site_type_symbol
_atom_type_description
_atom_site_fract_x
_atom_site_fract_y
_atom_site_fract_z
_atom_type_partial_charge
C1    C     C_R   0.263074 0.498748 0.500440 0.759838
C2    C     C_R   0.944015 0.606180 0.539562 -0.217873
C3    C     C_R   0.929598 0.387317 0.463487 -0.179248
C4    C     C_R   0.072018 0.604078 0.541974 -0.192909
C5    C     C_R   0.432249 0.606597 0.093525 -0.170038
C6    C     C_R   0.452341 0.379767 0.902029 -0.178762
C7    C     C_R   0.499463 0.622964 0.906164 -0.169981
C8    C     C_R   0.544304 0.393144 0.096541 -0.178253
C9    C     C_R   0.440167 0.607747 0.185641 -0.189627
C10   C     C_R   0.452738 0.380583 0.809998 -0.194535
C11   C     C_R   0.499111 0.623491 0.814321 -0.189076
C12   C     C_R   0.737272 0.500417 0.499655 0.748697
C13   C     C_R   0.551271 0.393890 0.188966 -0.205208
C14   C     C_R   0.497830 0.500498 0.233884 -0.010613
C15   C     C_R   0.482595 0.501122 0.765634 -0.021480
C16   C     C_R   0.484175 0.499312 0.048245 0.106524
C17   C     C_R   0.478700 0.500479 0.950885 0.108125
C18   C     C_R   0.871834 0.499132 0.499889 -0.008962
C19   C     C_R   0.129439 0.495766 0.502432 0.002911
C20   C     C_3   0.404108 0.116217 0.340127 -0.318773
C21   C     C_3   0.282364 0.194841 0.318917 -0.312839
C22   C     C_3   0.249837 0.206869 0.218870 -0.888234
C23   C     C_R   0.500283 0.499948 0.330581 0.763269
C24   C     C_3   0.718059 0.878049 0.581134 -0.351811
C25   C     C_3   0.724253 0.793255 0.667454 -0.288110
C26   C     C_3   0.840467 0.825425 0.730140 -0.929854
C27   C     C_3   0.611396 0.127549 0.657119 -0.337587
C28   C     C_3   0.729263 0.219840 0.670967 -0.288843
C29   C     C_3   0.771333 0.239500 0.769590 -0.909509
C30   C     C_3   0.275158 0.879246 0.433137 -0.317462
C31   C     C_3   0.242793 0.798273 0.346217 -0.315103
C32   C     C_3   0.102295 0.781841 0.325373 -0.883010
C33   C     C_R   0.494524 0.500188 0.669355 0.759362
C34   C     C_R   0.430602 0.069939 0.435997 0.131384
C35   C     C_R   0.589808 0.930434 0.549908 0.131421
C36   C     C_R   0.572386 0.074015 0.563159 0.137562
C37   C     C_R   0.410143 0.927100 0.450624 0.136174
C38   C     C_R   0.058251 0.385718 0.464726 -0.190195
Cu1   Cu    Cu3+1 0.500000 0.640660 0.500000 0.922015
Cu2   Cu    Cu3+1 0.500000 0.359340 0.500000 0.919926
H1    H     H_    0.384506 0.689022 0.057717 0.123925
H2    H     H_    0.902746 0.690152 0.570359 0.155215
H3    H     H_    0.875450 0.302337 0.433231 0.142879
H4    H     H_    0.125794 0.686968 0.574928 0.136587
H5    H     H_    0.326198 0.258796 0.187073 0.272888
H6    H     H_    0.232768 0.103717 0.188633 0.252129
H7    H     H_    0.164117 0.267661 0.205857 0.244579
H8    H     H_    0.203211 0.142346 0.346468 0.193199
H9    H     H_    0.289249 0.299005 0.347288 0.245772
H10   H     H_    0.486302 0.168459 0.317185 0.201806
H11   H     H_    0.400737 0.025263 0.296208 0.151752
H12   H     H_    0.430682 0.285159 0.934956 0.126381
H13   H     H_    0.926796 0.807348 0.697657 0.253993
H14   H     H_    0.841004 0.933553 0.751927 0.262812
H15   H     H_    0.840716 0.759339 0.789808 0.253320
H16   H     H_    0.642790 0.815247 0.703654 0.206780
H17   H     H_    0.723439 0.682287 0.653148 0.235846
H18   H     H_    0.758387 0.829715 0.524956 0.193819
H19   H     H_    0.783411 0.965992 0.592116 0.170495
H20   H     H_    0.698604 0.292408 0.803534 0.267803
H21   H     H_    0.790446 0.140304 0.802872 0.251832
H22   H     H_    0.857684 0.303456 0.776900 0.250024
H23   H     H_    0.518126 0.718124 0.942223 0.123724
H24   H     H_    0.807008 0.177637 0.636919 0.199497
H25   H     H_    0.712232 0.323251 0.645722 0.256188
H26   H     H_    0.530495 0.170943 0.684864 0.196120
H27   H     H_    0.627734 0.039833 0.702354 0.171299
H28   H     H_    0.060064 0.729075 0.380304 0.274316
H29   H     H_    0.059008 0.883586 0.314832 0.251566
H30   H     H_    0.082316 0.719975 0.263830 0.244454
H31   H     H_    0.278787 0.851386 0.289253 0.193682
H32   H     H_    0.283483 0.695445 0.349799 0.244204
H33   H     H_    0.243619 0.828961 0.492227 0.201202
H34   H     H_    0.587351 0.310847 0.062886 0.128773
H35   H     H_    0.214510 0.969462 0.431507 0.150283
H36   H     H_    0.399545 0.691600 0.218893 0.128753
H37   H     H_    0.428191 0.287189 0.774150 0.137834
H38   H     H_    0.511655 0.720047 0.782133 0.134839
H39   H     H_    0.599067 0.311979 0.225170 0.135458
H40   H     H_    0.101543 0.299847 0.435344 0.128324
N1    N     N_R   0.500000 0.852070 0.500000 -0.191418
N2    N     N_R   0.500000 0.147930 0.500000 -0.194058
O1    O     O_R   0.319640 0.618740 0.499990 -0.589543
O2    O     O_R   0.680360 0.381260 0.500010 -0.590903
O3    O     O_R   0.680360 0.618740 0.500010 -0.585276
O4    O     O_R   0.319640 0.381260 0.499990 -0.586852
O5    O     O_R   0.499990 0.618780 0.371460 -0.580768
O6    O     O_R   0.500010 0.381220 0.628540 -0.586473
O7    O     O_R   0.500010 0.618780 0.628540 -0.589321
O8    O     O_R   0.499990 0.381220 0.371460 -0.589050

loop_
_geom_bond_atom_site_label_1
_geom_bond_atom_site_label_2
_ccdc_geom_bond_type
C13   H39   S    
C8    C13   A    
C2    C18   A    
C34   C37   A    
Cu2   O2    S    
C35   C36   A    
C25   H16   S    
Cu1   O5    S    
C26   H15   S    
C21   H9    S    
C35   N1    A    
C7    C11   A    
C3    H3    S    
C12   O3    A    
C28   C29   S    
C11   H38   S    
C33   O6    A    
C20   H11   S    
C10   C15   A    
C30   C31   S    
C12   O2    A    
C3    C18   A    
Cu2   O4    S    
C5    C16   A    
C20   H10   S    
C4    C19   A    
C11   C15   A    
C3    C38   A    
C36   N2    A    
C16   C17   S    
C7    C17   A    
C9    H36   S    
C32   H28   S    
C21   H8    S    
C20   C34   S    
C31   H31   S    
C22   H7    S    
C8    C16   A    
C23   O5    A    
C13   C14   A    
C37   N1    A    
C25   H17   S    
C26   H14   S    
C10   H37   S    
C29   H21   S    
C1    C19   S    
C24   C35   S    
Cu2   N2    S    
C24   C25   S    
Cu1   N1    S    
Cu1   Cu2   S    
C30   H33   S    
C32   H30   S    
C4    H4    S    
C25   C26   S    
C30   C37   S    
C14   C23   S    
C2    C4    A    
C9    C14   A    
C5    C9    A    
C19   C38   A    
C33   O7    A    
C31   C32   S    
C29   H20   S    
C8    H34   S    
C23   O8    A    
C7    H23   S    
C28   H24   S    
C31   H32   S    
C22   H6    S    
Cu1   O3    S    
C26   H13   S    
C1    O4    A    
C6    C17   A    
C5    H1    S    
C29   H22   S    
C6    C10   A    
C32   H29   S    
C27   C36   S    
C1    O1    A    
Cu2   O8    S    
Cu2   O6    S    
C28   H25   S    
Cu1   O1    S    
C27   H26   S    
C30   H35   S    
C38   H40   S    
C2    H2    S    
C24   H19   S    
Cu1   O7    S    
C27   H27   S    
C22   H5    S    
C20   C21   S    
C24   H18   S    
C12   C18   S    
C27   C28   S    
C34   N2    A    
C6    H12   S    
C21   C22   S    
C15   C33   S    
