data_mof_unit_13196.cif
_audit_creation_date              2012-12-11T17:05:29-0500
_audit_creation_method            fapswitch 2.2
_symmetry_space_group_name_H-M    P1
_symmetry_Int_Tables_number       1
_space_group_crystal_system       triclinic
_cell_length_a                    6.972413
_cell_length_b                    14.636747
_cell_length_c                    15.993387
_cell_angle_alpha                 90.155383
_cell_angle_beta                  90.408093
_cell_angle_gamma                 89.905063
_cell_volume                      1632.13065006

loop_
_atom_site_label
_atom_site_type_symbol
_atom_type_description
_atom_site_fract_x
_atom_site_fract_y
_atom_site_fract_z
_atom_type_partial_charge
O1    O     O_R   0.494380 0.415640 0.412830 -0.557309
O2    O     O_R   0.823960 0.405540 0.586560 -0.534713
O3    O     O_R   0.994270 0.584360 0.587170 -0.505995
C1    C     C_R   0.655702 0.384066 0.615567 0.781223
O4    O     O_R   0.824090 0.404620 0.413450 -0.516692
O5    O     O_R   0.994400 0.583430 0.412820 -0.497296
C2    C     C_R   0.655256 0.382371 0.384601 0.835481
O6    O     O_R   0.494250 0.416570 0.587180 -0.540059
O7    O     O_3   0.660800 0.558670 0.500000 -0.348839
V1    V     V_3+5 0.935650 0.489120 0.500000 1.708831
O8    O     O_R   0.324110 0.594460 0.413440 -0.558402
C3    C     C_R   0.154268 0.613463 0.382295 0.738006
O9    O     O_R   0.323980 0.595380 0.586550 -0.549383
C4    C     C_R   0.155959 0.616778 0.615632 0.871543
V2    V     V_3+5 0.435660 0.510880 0.500000 1.618993
O10   O     O_3   0.160640 0.441330 0.500000 -0.383322
C5    C     C_3   0.128397 0.637390 0.773972 0.341319
C6    C     C_3   0.089305 0.711923 0.844107 -0.235141
H1    H     H_    0.933762 0.707634 0.858463 0.238646
H2    H     H_    0.836327 0.703398 0.686109 0.231453
C7    C     C_3   0.964139 0.747177 0.675296 0.356631
C8    C     C_3   0.330788 0.750351 0.687051 -0.327818
C9    C     C_3   0.147839 0.686721 0.686044 -0.307324
H3    H     H_    0.459439 0.706232 0.693114 0.255859
C10   C     C_3   0.124178 0.812121 0.808778 -0.301130
C11   C     C_3   0.960468 0.826564 0.740549 0.287859
C12   C     C_3   0.329472 0.813570 0.766360 0.409496
C13   C     C_R   0.252695 0.820032 0.245578 -0.077590
C14   C     C_R   0.122082 0.811078 0.179193 -0.122722
C15   C     C_R   0.006273 0.732802 0.177032 0.535524
C16   C     C_R   0.008540 0.668622 0.243156 -0.141728
C17   C     C_R   0.138273 0.680118 0.312230 -0.120202
C18   C     C_R   0.258692 0.756900 0.311393 -0.013526
C19   C     C_3   0.473473 0.757505 0.314829 -0.237288
C20   C     C_3   0.467752 0.823765 0.240659 -0.166510
H4    H     H_    0.535560 0.689446 0.300141 0.209299
C21   C     C_R   0.493032 0.316956 0.741143 0.128619
C22   C     C_R   0.648777 0.319049 0.686350 -0.218252
C23   C     C_R   0.800485 0.257939 0.701852 -0.165190
H5    H     H_    0.922880 0.256609 0.660831 0.163342
C24   C     C_R   0.789472 0.193028 0.766367 0.640091
C25   C     C_R   0.625815 0.186645 0.817285 -0.184223
C26   C     C_R   0.481971 0.252074 0.805068 -0.087273
C27   C     C_3   0.275761 0.235100 0.788161 -0.358285
C28   C     C_3   0.286366 0.305971 0.719626 0.473031
H6    H     H_    0.183858 0.255248 0.841682 0.234772
H7    H     H_    0.255580 0.164751 0.763579 0.211786
H8    H     H_    0.261104 0.278798 0.655508 0.062638
C29   C     C_R   0.513534 0.241815 0.316602 -0.093777
C30   C     C_R   0.648484 0.312630 0.316662 -0.314693
C31   C     C_R   0.783676 0.312539 0.251056 0.555932
C32   C     C_R   0.768773 0.249634 0.183969 0.608036
C33   C     C_R   0.623739 0.182489 0.182175 -0.228781
C34   C     C_R   0.502219 0.178167 0.251585 -0.163263
C35   C     C_3   0.288567 0.175904 0.255587 0.467053
C36   C     C_3   0.301379 0.244913 0.326649 0.455556
H9    H     H_    0.229635 0.108303 0.273494 0.074142
H10   H     H_    0.237488 0.312862 0.312950 0.141236
O11   O     O_R   0.771490 0.080820 0.910070 -0.504297
O12   O     O_R   0.441590 0.092730 0.083780 -0.529680
O13   O     O_R   0.271350 0.913900 0.084390 -0.569164
C37   C     C_R   0.610755 0.115057 0.112520 0.786320
O14   O     O_R   0.441780 0.091820 0.910670 -0.560026
O15   O     O_R   0.271540 0.912980 0.910040 -0.535954
C38   C     C_R   0.610838 0.114665 0.882527 0.763371
O16   O     O_R   0.771300 0.081740 0.084420 -0.522516
O17   O     O_3   0.604960 0.938700 0.997240 -0.382053
V3    V     V_3+5 0.330090 0.008230 0.997220 1.594936
O18   O     O_R   0.941820 0.901930 0.910640 -0.496580
C39   C     C_R   0.110231 0.882584 0.879580 0.813907
O19   O     O_R   0.941630 0.902840 0.083750 -0.533829
C40   C     C_R   0.111424 0.880010 0.111563 0.761146
V4    V     V_3+5 0.830090 0.986410 0.997190 1.683335
O20   O     O_3   0.105080 0.055990 0.997200 -0.355714
F1    F     F_    0.968756 0.580757 0.770403 -0.661729
C41   C     C_2   0.413366 0.909275 0.753352 0.474506
H11   H     H_    0.521741 0.933999 0.796774 0.163635
O21   O     O_2   0.360623 0.960942 0.698199 -0.567641
F2    F     F_    0.941186 0.777589 0.593683 -0.679798
C42   C     C_2   0.962387 0.917699 0.696620 0.609722
H12   H     H_    0.057291 0.929642 0.644676 0.085244
O22   O     O_2   0.843140 0.975833 0.713130 -0.466071
F3    F     F_    0.903427 0.714568 0.106485 -0.700757
C43   C     C_2   0.888611 0.586174 0.231125 0.524972
H13   H     H_    0.887159 0.552035 0.170793 0.146113
O23   O     O_2   0.780200 0.559434 0.285181 -0.524678
C44   C     C_2   0.548267 0.795880 0.395963 0.539587
H14   H     H_    0.484338 0.856832 0.422837 0.079769
O24   O     O_2   0.682943 0.759055 0.431572 -0.460360
C45   C     C_2   0.541736 0.782453 0.160337 0.542453
H15   H     H_    0.623396 0.823935 0.117685 0.121617
O25   O     O_2   0.504311 0.703635 0.140820 -0.489394
C46   C     C_2   0.544540 0.918762 0.256304 0.286915
H16   H     H_    0.447324 0.976448 0.260356 0.058298
O26   O     O_2   0.716770 0.931466 0.264205 -0.529682
C47   C     C_2   0.294798 0.573693 0.796608 0.628401
H17   H     H_    0.288885 0.535480 0.854553 0.060253
O27   O     O_2   0.430545 0.559968 0.750548 -0.520826
F4    F     F_    0.932856 0.131685 0.774742 -0.689664
F5    F     F_    0.181903 0.383751 0.738149 -0.647687
F6    F     F_    0.922199 0.377344 0.248379 -0.659838
F7    F     F_    0.885736 0.259490 0.117160 -0.588198
F8    F     F_    0.206902 0.212664 0.184348 -0.619009
F9    F     F_    0.246229 0.208223 0.402406 -0.679317
C48   C     C_2   0.176437 0.688447 0.929220 0.478902
H18   H     H_    0.125887 0.627864 0.961215 0.083100
O28   O     O_2   0.299287 0.735031 0.963215 -0.458430
F10   F     F_    0.785888 0.821394 0.780496 -0.630813
C49   C     C_2   0.366503 0.799027 0.605023 0.437834
H19   H     H_    0.254252 0.809919 0.559248 0.103765
O29   O     O_2   0.526818 0.827482 0.589508 -0.449505
F11   F     F_    0.455493 0.773198 0.822653 -0.594563

loop_
_geom_bond_atom_site_label_1
_geom_bond_atom_site_label_2
_ccdc_geom_bond_type
C35   C36   S    
O14   C38   A    
C46   H16   S    
V4    O20   S    
C1    O6    A    
C23   C24   A    
C33   C34   A    
C32   C33   A    
C48   O28   D    
C32   F7    S    
C5    C9    S    
O15   V3    S    
C13   C14   A    
C21   C22   A    
C43   O23   D    
C6    H1    S    
C49   O29   D    
O5    C3    A    
C15   C16   A    
V3    O20   S    
C29   C34   A    
C35   F8    S    
O12   C37   A    
C19   C20   S    
C24   C25   A    
C15   F3    S    
O14   V3    S    
O8    V2    S    
C13   C20   S    
C36   H10   S    
C47   O27   D    
C12   F11   S    
C25   C38   S    
C24   F4    S    
O18   V4    S    
O17   V4    S    
O15   C39   A    
O7    V1    S    
O11   V4    S    
C27   H7    S    
C14   C40   S    
C46   O26   D    
O9    C4    A    
C3    C17   S    
C6    C10   S    
C7    C11   S    
C27   H6    S    
C5    C6    S    
C20   C46   S    
C37   O16   A    
C31   C32   A    
C41   H11   S    
C36   F9    S    
C42   O22   D    
C11   F10   S    
C23   H5    S    
O19   V4    S    
C10   C11   S    
O16   V4    S    
C11   C42   S    
C16   C43   S    
O17   V3    S    
C4    C9    S    
C21   C26   A    
O2    C1    A    
C26   C27   S    
C35   H9    S    
C14   C15   A    
C33   C37   S    
C45   O25   D    
C16   C17   A    
C8    C49   S    
C47   H17   S    
C7    F2    S    
C30   C31   A    
C5    C47   S    
C43   H13   S    
O3    C4    A    
O1    V2    S    
O13   C40   A    
C1    C22   S    
C13   C18   A    
O6    V2    S    
C8    C12   S    
O9    V2    S    
C8    H3    S    
C10   C12   S    
C25   C26   A    
C21   C28   S    
C12   C41   S    
O2    V1    S    
C27   C28   S    
O4    C2    A    
C28   H8    S    
C34   C35   S    
O1    C2    A    
C2    C30   S    
C41   O21   D    
C42   H12   S    
C28   F5    S    
O5    V1    S    
O8    C3    A    
C31   F6    S    
C29   C36   S    
C48   H18   S    
C17   C18   A    
C7    C9    S    
O7    V2    S    
C6    C48   S    
O19   C40   A    
O3    V1    S    
V1    O10   S    
C49   H19   S    
O11   C38   A    
O13   V3    S    
C45   H15   S    
C22   C23   A    
C18   C19   S    
C19   H4    S    
C19   C44   S    
O18   C39   A    
C20   C45   S    
O4    V1    S    
H2    C7    S    
O12   V3    S    
C44   H14   S    
C29   C30   A    
C5    F1    S    
C44   O24   D    
C8    C9    S    
C10   C39   S    
V2    O10   S    
