data_mof_unit_63536.cif
_audit_creation_date              2013-03-05T15:57:30-0500
_audit_creation_method            fapswitch 2.2
_symmetry_space_group_name_H-M    P1
_symmetry_Int_Tables_number       1
_space_group_crystal_system       triclinic
_cell_length_a                    7.049498
_cell_length_b                    20.137868
_cell_length_c                    21.712192
_cell_angle_alpha                 92.937671
_cell_angle_beta                  90.465859
_cell_angle_gamma                 89.660896
_cell_volume                      3078.10417754

loop_
_atom_site_label
_atom_site_type_symbol
_atom_site_description
_atom_site_fract_x
_atom_site_fract_y
_atom_site_fract_z
_atom_type_partial_charge
O1    O     O_R   0.505910 0.557140 0.441630 -0.565275
O2    O     O_R   0.175760 0.566370 0.557960 -0.565797
O3    O     O_R   0.005440 0.442860 0.558370 -0.582496
C1    C     C_R   0.344767 0.583989 0.580489 0.972257
O4    O     O_R   0.176200 0.564760 0.442040 -0.567570
O5    O     O_R   0.005880 0.441250 0.441620 -0.570760
C2    C     C_R   0.344782 0.582468 0.419707 0.914865
O6    O     O_R   0.505470 0.558750 0.558380 -0.565139
O7    O     O_3   0.339200 0.459480 0.500000 -0.259430
V1    V     V_3+5 0.064350 0.507520 0.500000 1.162613
O8    O     O_R   0.676160 0.433630 0.442040 -0.570161
C3    C     C_R   0.844899 0.415571 0.420092 0.947286
O9    O     O_R   0.675730 0.435240 0.557960 -0.558527
C4    C     C_R   0.846389 0.420855 0.577301 0.976357
V2    V     V_3+5 0.564340 0.492480 0.500000 1.178301
O10   O     O_3   0.839360 0.540520 0.500000 -0.272801
C5    C     C_3   0.061472 0.294345 0.752487 0.056518
C6    C     C_3   0.720809 0.277916 0.730755 0.232394
C7    C     C_3   0.730541 0.230468 0.784394 -0.549199
H1    H     H_    0.989520 0.331253 0.784609 0.098369
H2    H     H_    0.693683 0.328753 0.751736 0.146322
H3    H     H_    0.716121 0.259053 0.829068 0.249867
H4    H     H_    0.608940 0.197974 0.781214 0.260524
C8    C     C_1   0.915706 0.107427 0.874174 -0.295933
C9    C     C_3   0.914775 0.277212 0.697565 -0.323623
C10   C     C_3   0.098020 0.231054 0.790769 0.690216
C11   C     C_3   0.913977 0.187031 0.780901 -0.071455
C12   C     C_3   0.910084 0.153120 0.714194 -0.556777
C13   C     C_3   0.943384 0.205096 0.662945 1.074662
C14   C     C_1   0.905474 0.140494 0.830122 0.062978
C15   C     C_1   0.896181 0.329656 0.654938 0.159373
C16   C     C_1   0.868401 0.371970 0.619936 -0.174866
H5    H     H_    0.006267 0.110665 0.705846 0.162704
H6    H     H_    0.770163 0.129033 0.710060 0.182481
C17   C     C_1   0.923088 0.130403 0.138289 -0.299278
C18   C     C_1   0.911396 0.173754 0.181155 0.075232
C19   C     C_1   0.895991 0.224928 0.232114 0.004596
C20   C     C_1   0.882650 0.268066 0.275106 0.003706
C21   C     C_1   0.867183 0.319303 0.325997 0.059082
C22   C     C_1   0.855471 0.362730 0.368787 -0.310756
C23   C     C_1   0.355827 0.635247 0.633539 -0.307753
C24   C     C_1   0.367524 0.676892 0.678054 0.076346
C25   C     C_1   0.382741 0.725878 0.731183 0.003645
C26   C     C_1   0.395842 0.767046 0.776031 0.000819
C27   C     C_1   0.411065 0.815963 0.829209 0.062577
C28   C     C_1   0.422768 0.857492 0.873808 -0.301920
C29   C     C_1   0.355481 0.633960 0.368180 -0.301410
C30   C     C_1   0.367337 0.675787 0.325736 0.074760
C31   C     C_1   0.382878 0.725734 0.274793 -0.005082
C32   C     C_1   0.396090 0.767396 0.232250 -0.005106
C33   C     C_1   0.411624 0.817341 0.181305 0.076490
C34   C     C_1   0.423457 0.859167 0.138859 -0.304004
O11   O     O_R   0.273200 0.934350 0.948680 -0.568202
O12   O     O_R   0.602630 0.928390 0.064980 -0.564437
O13   O     O_R   0.772790 0.051930 0.065390 -0.561354
C35   C     C_R   0.434080 0.910661 0.087332 0.924978
O14   O     O_R   0.602920 0.926780 0.949060 -0.570769
O15   O     O_R   0.773080 0.050310 0.948640 -0.592440
C36   C     C_R   0.433815 0.908576 0.926979 0.935857
O16   O     O_R   0.272900 0.935970 0.065430 -0.561878
O17   O     O_3   0.439420 0.033650 0.007040 -0.266715
V3    V     V_3+5 0.714330 0.985650 0.007020 1.145565
O18   O     O_R   0.102790 0.057980 0.949020 -0.587136
C37   C     C_R   0.932671 0.069185 0.926783 1.014570
O19   O     O_R   0.102500 0.059590 0.064940 -0.562477
C38   C     C_R   0.933754 0.077605 0.086924 0.965055
V4    V     V_3+5 0.214320 0.000760 0.006970 1.146400
O20   O     O_3   0.939360 0.952680 0.006990 -0.269135
N1    N     N_R   0.128873 0.253374 0.856318 0.216425
O21   O     O_R   0.300469 0.261017 0.878013 -0.347755
O22   O     O_R   0.989648 0.276531 0.890169 -0.419424
N2    N     N_R   0.234924 0.329960 0.737600 0.292101
O23   O     O_R   0.225883 0.377352 0.699143 -0.389089
O24   O     O_R   0.362241 0.336912 0.781028 -0.335873
O25   O     O_3   0.267245 0.198952 0.768091 -0.597488
C39   C     C_3   0.304337 0.131465 0.782610 0.220254
H7    H     H_    0.410343 0.111626 0.748786 0.152567
H8    H     H_    0.186446 0.097092 0.775565 0.076986
C40   C     C_3   0.383785 0.121014 0.847153 -0.312630
H9    H     H_    0.510248 0.151180 0.858968 0.231749
H10   H     H_    0.277250 0.134732 0.882489 0.237292
C41   C     C_3   0.435568 0.047776 0.850953 -0.967692
H11   H     H_    0.313210 0.015412 0.837705 0.239742
H12   H     H_    0.474013 0.038294 0.898509 0.317495
H13   H     H_    0.557805 0.034567 0.820665 0.243367
N3    N     N_R   0.564918 0.263194 0.687138 0.298019
O26   O     O_R   0.499007 0.203410 0.678624 -0.409623
O27   O     O_R   0.517568 0.307420 0.648192 -0.408362
O28   O     O_3   0.130573 0.195357 0.639158 -0.671631
C42   C     C_3   0.190448 0.238891 0.592999 0.338158
H14   H     H_    0.337478 0.223494 0.581178 0.191520
H15   H     H_    0.200740 0.290598 0.611298 0.168323
C43   C     C_3   0.083701 0.236473 0.530722 -0.486228
H16   H     H_    0.075625 0.184867 0.511479 0.225713
H17   H     H_    0.939499 0.258207 0.535259 0.247946
C44   C     C_3   0.187735 0.276964 0.484022 -0.954966
H18   H     H_    0.198039 0.329742 0.501082 0.291962
H19   H     H_    0.108650 0.274678 0.439562 0.268762
H20   H     H_    0.332704 0.256669 0.475732 0.266565
O29   O     O_3   0.810988 0.196472 0.612486 -0.677835
C45   C     C_3   0.758303 0.130381 0.591488 0.238244
H21   H     H_    0.672620 0.135597 0.548829 0.114244
H22   H     H_    0.655419 0.108601 0.622842 0.139003
C46   C     C_3   0.919638 0.080576 0.574210 -0.399564
H23   H     H_    0.966302 0.087467 0.526388 0.197263
H24   H     H_    0.044785 0.085636 0.604857 0.246120
C47   C     C_3   0.850416 0.009037 0.576364 -1.003084
H25   H     H_    0.809323 0.998286 0.624123 0.265987
H26   H     H_    0.965795 0.974161 0.561479 0.276828
H27   H     H_    0.726538 0.000759 0.545001 0.270502

loop_
_geom_bond_atom_site_label_1
_geom_bond_atom_site_label_2
_geom_bond_distance
_ccdc_geom_bond_type
C9    C15   1.444210 S    
O13   V3    1.839063 S    
O25   C39   1.432877 S    
O15   V3    1.912548 S    
C45   H21   1.110801 S    
C28   C36   1.508282 S    
C6    H2    1.115105 S    
C23   C24   1.249286 T    
O2    C1    1.327544 A    
C17   C18   1.245902 T    
C39   C40   1.528998 S    
C1    O6    1.322568 A    
C46   H24   1.102743 S    
O11   C36   1.322895 A    
O14   V3    1.856873 S    
C27   C28   1.249157 T    
C10   C11   1.582641 S    
C43   H16   1.101650 S    
C5    C10   1.575728 S    
C12   C13   1.586000 S    
C39   H8    1.089534 S    
O5    C3    1.321852 A    
C20   C21   1.476888 S    
N3    O27   1.299505 A    
O14   C36   1.327854 A    
C1    C23   1.508618 S    
V2    O10   2.171835 S    
C44   H20   1.111007 S    
C5    H1    1.115467 S    
C6    C7    1.544674 S    
N1    O22   1.300814 A    
O8    V2    1.860577 S    
C15   C16   1.184879 T    
O16   V4    1.907569 S    
O19   V4    1.860475 S    
C44   H19   1.109852 S    
C47   H25   1.111173 S    
O1    V2    1.904109 S    
C7    C11   1.557083 S    
O7    V1    2.160519 S    
C12   H6    1.102736 S    
C45   H22   1.106459 S    
O9    C4    1.306807 A    
C11   C14   1.458871 S    
C9    C13   1.613026 S    
C47   H26   1.110637 S    
O17   V3    2.160535 S    
C6    C9    1.550460 S    
C13   O28   1.429744 S    
C46   H23   1.107450 S    
C32   C33   1.537657 S    
O18   V4    1.910720 S    
O15   C37   1.291364 A    
O12   C35   1.344230 A    
V4    O20   2.171834 S    
C7    H3    1.107369 S    
C39   H7    1.110285 S    
N2    O24   1.299390 A    
C21   C22   1.245746 T    
C40   H10   1.101902 S    
N3    O26   1.296892 A    
O12   V3    1.925857 S    
C17   C38   1.502919 S    
O18   C37   1.311779 A    
C41   H11   1.111269 S    
C35   O16   1.336463 A    
C2    C29   1.566455 S    
C3    C22   1.502558 S    
C7    H4    1.081125 S    
C25   C26   1.249289 T    
C19   C20   1.245867 T    
O17   V4    1.723094 S    
C42   H15   1.097907 S    
C29   C30   1.283514 T    
C44   H18   1.110057 S    
C10   O25   1.432245 S    
C6    N3    1.466487 S    
O3    C4    1.286275 A    
C30   C31   1.537655 S    
C12   H5    1.096717 S    
O19   C38   1.326997 A    
C43   C44   1.528003 S    
C41   H12   1.091373 S    
O9    V2    1.910725 S    
C47   H27   1.111092 S    
C24   C25   1.482529 S    
O2    V1    1.856628 S    
O13   C38   1.321761 A    
C26   C27   1.482459 S    
C42   C43   1.540822 S    
O4    C2    1.344148 A    
C18   C19   1.477063 S    
C13   O29   1.437818 S    
O1    C2    1.336468 A    
C4    C16   1.392635 S    
N2    O23   1.300829 A    
O5    V1    1.839081 S    
C40   C41   1.523444 S    
O8    C3    1.326891 A    
O6    V2    1.840796 S    
C41   H13   1.111003 S    
V3    O20   1.716050 S    
C5    C9    1.597651 S    
O7    V2    1.724260 S    
C33   C34   1.283515 T    
O3    V1    1.912646 S    
V1    O10   1.716029 S    
C42   H14   1.108460 S    
O29   C45   1.434606 S    
C8    C37   1.413858 S    
N1    O21   1.301682 A    
O11   V4    1.841480 S    
C8    C14   1.194592 T    
C40   H9    1.102878 S    
O4    V1    1.926049 S    
C5    N2    1.467851 S    
C43   H17   1.107511 S    
C31   C32   1.283576 T    
C11   C12   1.569397 S    
C10   N1    1.485052 S    
C45   C46   1.547600 S    
O28   C42   1.432643 S    
C46   C47   1.526891 S    
C34   C35   1.566450 S    
