data_mof_unit_35697.cif
_audit_creation_date              2012-12-10T17:13:41-0500
_audit_creation_method            fapswitch 2.2
_symmetry_space_group_name_H-M    P1
_symmetry_Int_Tables_number       1
_space_group_crystal_system       triclinic
_cell_length_a                    27.721259
_cell_length_b                    10.639536
_cell_length_c                    9.989087
_cell_angle_alpha                 90.765647
_cell_angle_beta                  89.980362
_cell_angle_gamma                 89.890739
_cell_volume                      2945.92603084

loop_
_atom_site_label
_atom_site_type_symbol
_atom_type_description
_atom_site_fract_x
_atom_site_fract_y
_atom_site_fract_z
_atom_type_partial_charge
C1    C     C_R   0.502115 0.262159 0.498915 0.855299
C2    C     C_R   0.277657 0.499960 0.380908 -0.193715
C3    C     C_R   0.252836 0.512395 0.502243 0.229933
C4    C     C_R   0.101559 0.509606 0.503436 -0.118036
C5    C     C_R   0.127692 0.406750 0.553761 -0.009345
C6    C     C_R   0.103248 0.303715 0.606127 -0.152922
C7    C     C_R   0.126391 0.613389 0.449552 -0.126443
C8    C     C_R   0.353323 0.504664 0.500617 -0.089532
C9    C     C_R   0.646686 0.497355 0.500571 -0.057461
C10   C     C_R   0.975376 0.392999 0.537993 0.055546
C11   C     C_R   0.973707 0.617869 0.480110 0.064188
C12   C     C_R   0.405997 0.500587 0.500055 0.895295
C13   C     C_R   0.949280 0.503943 0.507870 0.034268
C14   C     C_R   0.949819 0.279335 0.553553 -0.225702
C15   C     C_R   0.899857 0.276354 0.546501 -0.137778
C16   C     C_R   0.873750 0.386650 0.524988 -0.013307
C17   C     C_R   0.898344 0.500913 0.506332 -0.058718
C18   C     C_R   0.871910 0.612110 0.486673 -0.048208
C19   C     C_R   0.821516 0.606978 0.485024 0.526733
C20   C     C_R   0.823323 0.385703 0.521493 0.526130
C21   C     C_R   0.722007 0.491211 0.623838 0.155521
C22   C     C_R   0.671725 0.493579 0.622608 -0.279465
C23   C     C_R   0.495607 0.737084 0.500926 0.952190
C24   C     C_R   0.672343 0.498081 0.379472 -0.206553
C25   C     C_R   0.722425 0.495978 0.380519 -0.154646
C26   C     C_R   0.747198 0.492778 0.502217 0.336899
C27   C     C_R   0.026108 0.399028 0.550196 0.071336
C28   C     C_R   0.050579 0.507836 0.506238 0.069518
C29   C     C_R   0.024433 0.613868 0.462759 -0.010303
C30   C     C_R   0.053295 0.299622 0.604270 -0.231838
C31   C     C_R   0.100011 0.713471 0.393891 0.511754
C32   C     C_R   0.946353 0.731174 0.474302 0.080416
C33   C     C_R   0.896061 0.726348 0.474186 -0.189998
C34   C     C_R   0.594001 0.499895 0.500046 0.869598
C35   C     C_R   0.049556 0.709195 0.396117 -0.300523
C36   C     C_2   0.474972 0.934286 0.395810 0.560586
C37   C     C_2   0.484329 0.867753 0.505487 -0.356725
C38   C     C_2   0.472754 0.070004 0.414577 -0.389360
C39   C     C_2   0.505263 0.128277 0.492881 0.272573
C40   C     C_2   0.529795 0.566564 0.925713 -0.149136
C41   C     C_2   0.527716 0.572447 0.076088 -0.121567
C42   C     C_R   0.177976 0.409351 0.550936 0.566192
C43   C     C_R   0.177142 0.612371 0.451709 0.538113
C44   C     C_R   0.277924 0.524821 0.623683 0.545324
C45   C     C_R   0.328337 0.517422 0.622302 -0.330304
C46   C     C_R   0.327686 0.496848 0.379844 -0.222269
H1    H     H_    0.346194 0.486892 0.284774 0.172812
H2    H     H_    0.653805 0.500822 0.284127 0.165445
H3    H     H_    0.876023 0.813623 0.467452 0.193894
H4    H     H_    0.742121 0.497516 0.286908 0.143488
H5    H     H_    0.030441 0.778343 0.338698 0.178530
H6    H     H_    0.485222 0.912529 0.604043 0.125179
H7    H     H_    0.444055 0.121739 0.365490 0.134386
H8    H     H_    0.258004 0.491588 0.287527 0.162821
H9    H     H_    0.557074 0.622484 0.876509 0.161152
H10   H     H_    0.472850 0.454035 0.897277 0.163745
H11   H     H_    0.551138 0.639215 0.126954 0.156699
H12   H     H_    0.480519 0.432663 0.101141 0.159234
H13   H     H_    0.122650 0.224814 0.647669 0.184986
H14   H     H_    0.652491 0.492953 0.717031 0.164411
H15   H     H_    0.881765 0.187058 0.558757 0.186206
H16   H     H_    0.967660 0.190207 0.567088 0.134694
H17   H     H_    0.036811 0.218285 0.648379 0.142490
H18   H     H_    0.347796 0.521586 0.716163 0.169631
N1    N     N_R   0.201399 0.511515 0.501820 -0.347210
N2    N     N_R   0.798553 0.494927 0.502003 -0.348310
N3    N     N_2   0.500520 0.501330 0.852150 -0.192077
N4    N     N_2   0.500540 0.501360 0.147810 -0.185443
O1    O     O_R   0.499990 0.319060 0.613040 -0.630980
O2    O     O_2   0.799121 0.276979 0.537696 -0.556177
O3    O     O_2   0.202325 0.711395 0.406027 -0.516340
O4    O     O_2   0.795535 0.712931 0.467409 -0.553689
O5    O     O_R   0.500010 0.319100 0.386900 -0.622396
O6    O     O_R   0.428750 0.500000 0.613050 -0.622843
O7    O     O_R   0.428760 0.500040 0.386920 -0.615366
O8    O     O_R   0.499990 0.680900 0.613100 -0.625871
O9    O     O_R   0.500010 0.680940 0.386960 -0.558711
O10   O     O_R   0.571240 0.499960 0.613080 -0.619006
O11   O     O_R   0.571250 0.500000 0.386950 -0.616466
O12   O     O_2   0.203473 0.310400 0.596317 -0.549399
Zn1   Zn    Zn3+2 0.499990 0.499970 0.650990 0.932477
Zn2   Zn    Zn3+2 0.500010 0.500030 0.349010 0.966219
O13   O     O_3   0.252210 0.532075 0.742761 -0.630235
C47   C     C_3   0.265090 0.639905 0.819509 0.074485
H19   H     H_    0.231992 0.697523 0.834294 0.175091
H20   H     H_    0.292132 0.702398 0.771095 0.123846
C48   C     C_3   0.283617 0.599351 0.956696 -0.351201
H21   H     H_    0.255458 0.542918 0.007404 0.241290
H22   H     H_    0.316241 0.539610 0.943806 0.214722
C49   C     C_3   0.296246 0.712665 0.045133 -0.900565
H23   H     H_    0.325023 0.769321 0.997608 0.256744
H24   H     H_    0.309515 0.680064 0.143607 0.274281
H25   H     H_    0.263862 0.772486 0.061901 0.282708
O14   O     O_3   0.123583 0.806949 0.323479 -0.595773
C50   C     C_3   0.110424 0.929006 0.369517 0.114181
H26   H     H_    0.143719 0.977103 0.404753 0.187726
H27   H     H_    0.084859 0.930760 0.455989 0.117421
C51   C     C_3   0.089269 0.003303 0.253163 -0.361712
H28   H     H_    0.116607 0.009995 0.172139 0.242113
H29   H     H_    0.057229 0.953564 0.212101 0.218165
C52   C     C_3   0.074296 0.135514 0.297347 -0.928650
H30   H     H_    0.045859 0.130772 0.375448 0.265458
H31   H     H_    0.059621 0.187065 0.210410 0.270206
H32   H     H_    0.105894 0.187932 0.337241 0.275437
N5    N     N_3   0.968837 0.852358 0.482538 -0.483725
H33   H     H_    0.956510 0.898317 0.569233 0.189433
H34   H     H_    0.957652 0.904804 0.400299 0.181328
O15   O     O_3   0.463128 0.875213 0.274918 -0.628274
C53   C     C_3   0.484882 0.934319 0.163947 0.111852
H35   H     H_    0.502581 0.859682 0.102418 0.156850
H36   H     H_    0.513930 0.002667 0.190806 0.139237
C54   C     C_3   0.446225 0.997364 0.078379 -0.327972
H37   H     H_    0.418609 0.926685 0.048636 0.234291
H38   H     H_    0.428093 0.073033 0.137216 0.216606
C55   C     C_3   0.468057 0.053779 0.952524 -1.001919
H39   H     H_    0.495376 0.126002 0.979765 0.264234
H40   H     H_    0.439257 0.098995 0.892664 0.272065
H41   H     H_    0.485327 0.979034 0.890197 0.258267
O16   O     O_3   0.547214 0.066345 0.532812 -0.652721
C56   C     C_3   0.558308 0.090526 0.669085 0.049732
H42   H     H_    0.567097 0.999182 0.715970 0.156738
H43   H     H_    0.527602 0.129829 0.728281 0.154821
C57   C     C_3   0.602794 0.174935 0.679849 -0.287811
H44   H     H_    0.634785 0.123346 0.640362 0.232324
H45   H     H_    0.597592 0.259644 0.618250 0.228005
C58   C     C_3   0.612263 0.215562 0.824518 -0.936320
H46   H     H_    0.581599 0.272718 0.863424 0.269664
H47   H     H_    0.645523 0.273405 0.829384 0.260602
H48   H     H_    0.617230 0.131964 0.888546 0.260967
N6    N     N_3   0.747718 0.488695 0.748040 -0.446748
H49   H     H_    0.737472 0.567701 0.804636 0.186510
H50   H     H_    0.736792 0.408907 0.799894 0.194454

loop_
_geom_bond_atom_site_label_1
_geom_bond_atom_site_label_2
_ccdc_geom_bond_type
C10   C27   A    
C21   C26   A    
C42   O12   S    
C58   H46   S    
C12   O6    A    
C36   O15   S    
C50   H26   S    
C47   C48   S    
C23   O8    A    
C48   H21   S    
C44   O13   S    
C54   H38   S    
C50   C51   S    
C57   H44   S    
C2    C46   A    
N5    H34   S    
C52   H30   S    
C49   H25   S    
C20   N2    A    
C28   C29   A    
C47   H20   S    
C53   H36   S    
C22   H14   S    
C5    C6    A    
C9    C22   A    
C57   H45   S    
C33   H3    S    
C15   C16   A    
C14   H16   S    
O15   C53   S    
C19   N2    A    
C18   C19   A    
C25   H4    S    
C8    C45   A    
C47   H19   S    
C16   C17   A    
C55   H40   S    
C40   N3    D    
C42   N1    A    
C58   H47   S    
C7    C43   A    
C56   C57   S    
C43   N1    A    
C55   H41   S    
C52   H31   S    
C21   C22   A    
C27   C30   A    
C20   O2    S    
C19   O4    S    
C3    N1    S    
C4    C7    A    
C54   H37   S    
C4    C28   A    
C56   H43   S    
C41   N4    D    
C3    C44   A    
C7    C31   A    
C24   H2    S    
C24   C25   A    
C2    H8    S    
C53   C54   S    
C37   H6    S    
C57   C58   S    
C58   H48   S    
C25   C26   A    
C23   C37   S    
C1    O1    A    
C26   N2    S    
N6    H50   S    
C34   O11   A    
C49   H24   S    
O13   C47   S    
C8    C12   S    
C40   H9    S    
C17   C18   A    
C15   H15   S    
O7    Zn2   S    
C16   C20   A    
C23   O9    A    
H12   N4    S    
C40   C41   S    
C6    C30   A    
C11   C32   A    
N3    Zn1   S    
C52   H32   S    
C51   H29   S    
C32   N5    S    
C48   H22   S    
C31   O14   S    
C35   H5    S    
C9    C34   S    
C31   C35   A    
C48   C49   S    
O6    Zn1   S    
C51   C52   S    
O5    Zn2   S    
C56   H42   S    
C5    C42   A    
C46   H1    S    
C36   C37   D    
C43   O3    S    
C6    H13   S    
C44   C45   A    
C4    C5    A    
C10   C13   A    
O8    Zn1   S    
O11   Zn2   S    
O16   C56   S    
C50   H27   S    
C9    C24   A    
H10   N3    S    
N5    H33   S    
C29   C35   A    
C45   H18   S    
C13   C17   A    
C1    O5    A    
C32   C33   A    
C36   C38   S    
C2    C3    A    
N4    Zn2   S    
C53   H35   S    
C34   O10   A    
C11   C13   A    
O10   Zn1   S    
C49   H23   S    
C38   C39   D    
C38   H7    S    
O9    Zn2   S    
C39   O16   S    
N6    H49   S    
O14   C50   S    
C18   C33   A    
C8    C46   A    
C21   N6    S    
O1    Zn1   S    
C1    C39   S    
C41   H11   S    
C11   C29   A    
C51   H28   S    
C12   O7    A    
C27   C28   A    
C14   C15   A    
C30   H17   S    
C54   C55   S    
C55   H39   S    
C10   C14   A    
