data_mof_unit_54961.cif
_audit_creation_date              2012-12-10T17:36:37-0500
_audit_creation_method            fapswitch 2.2
_symmetry_space_group_name_H-M    P1
_symmetry_Int_Tables_number       1
_space_group_crystal_system       triclinic
_cell_length_a                    11.996631
_cell_length_b                    12.815375
_cell_length_c                    15.746331
_cell_angle_alpha                 90.124134
_cell_angle_beta                  86.510596
_cell_angle_gamma                 93.186122
_cell_volume                      2412.6367946

loop_
_atom_site_label
_atom_site_type_symbol
_atom_type_description
_atom_site_fract_x
_atom_site_fract_y
_atom_site_fract_z
_atom_type_partial_charge
C1    C     C_R   0.522068 0.700356 0.504021 0.888223
C2    C     C_R   0.554673 0.027049 0.522933 0.097828
C3    C     C_R   0.952448 0.393522 0.426206 -0.126166
C4    C     C_R   0.047314 0.605823 0.574350 -0.125933
C5    C     C_R   0.836476 0.406737 0.432881 0.072000
C6    C     C_R   0.163162 0.592237 0.567912 0.089521
C7    C     C_R   0.858132 0.545189 0.531184 -0.052991
C8    C     C_R   0.141840 0.455035 0.468578 -0.047511
C9    C     C_R   0.975969 0.538687 0.526749 -0.005470
C10   C     C_R   0.023891 0.461130 0.473386 -0.006904
C11   C     C_R   0.500472 0.500138 0.661974 0.868574
C12   C     C_R   0.478363 0.299794 0.507683 0.892742
C13   C     C_R   0.499530 0.499855 0.338008 0.926983
C14   C     C_3   0.472051 0.593241 0.028664 -0.052922
C15   C     C_3   0.528134 0.406057 0.971139 -0.053454
C16   C     C_3   0.575305 0.572932 0.969535 -0.056292
C17   C     C_3   0.424878 0.426357 0.030294 -0.054872
C18   C     C_1   0.501424 0.500078 0.750593 -0.104307
C19   C     C_1   0.498582 0.499688 0.249333 -0.105070
C20   C     C_3   0.397554 0.519963 0.974684 -0.301356
C21   C     C_3   0.602634 0.479329 0.025149 -0.301344
C22   C     C_3   0.502095 0.499454 0.916416 0.102817
C23   C     C_R   0.649793 0.972311 0.495261 0.019714
C24   C     C_3   0.498078 0.499864 0.083434 0.102954
C25   C     C_1   0.501938 0.499871 0.825689 0.102958
C26   C     C_1   0.498136 0.499660 0.174207 0.104669
C27   C     C_R   0.465765 0.188693 0.523039 -0.150168
C28   C     C_R   0.536319 0.811687 0.515814 -0.147696
C29   C     C_2   0.660777 0.655563 0.937536 0.474452
C30   C     C_2   0.339391 0.343729 0.062255 0.473587
C31   C     C_2   0.439889 0.698883 0.059399 0.916116
C32   C     C_2   0.560314 0.300522 0.940099 0.920255
C33   C     C_2   0.648432 0.180185 0.594353 0.487731
C34   C     C_R   0.350210 0.027946 0.524700 0.020493
C35   C     C_2   0.370496 0.820021 0.620751 0.516195
C36   C     C_2   0.756950 0.023811 0.460491 0.516092
C37   C     C_2   0.238538 0.976366 0.511450 0.515547
C38   C     C_2   0.994572 0.307522 0.371454 0.457181
C39   C     C_2   0.005320 0.691552 0.629552 0.451395
C40   C     C_R   0.637370 0.864226 0.488361 -0.295949
C41   C     C_R   0.361493 0.135981 0.515465 -0.292615
C42   C     C_R   0.446691 0.866853 0.550580 -0.046762
C43   C     C_R   0.559771 0.133457 0.540456 -0.039644
C44   C     C_R   0.448499 0.973232 0.533159 0.091280
H1    H     H_    0.686250 0.462753 0.046787 0.180905
H2    H     H_    0.293423 0.297030 0.017145 0.072530
H3    H     H_    0.409671 0.794518 0.158971 0.363846
H4    H     H_    0.590735 0.205368 0.840191 0.365924
H5    H     H_    0.647440 0.260821 0.615000 0.094383
H6    H     H_    0.378694 0.740280 0.641132 0.051614
H7    H     H_    0.831712 0.979677 0.454715 0.055703
H8    H     H_    0.164243 0.020800 0.520233 0.056683
H9    H     H_    0.077381 0.279754 0.376582 0.054164
H10   H     H_    0.921834 0.718207 0.625835 0.064400
H11   H     H_    0.313945 0.536541 0.953032 0.180938
H12   H     H_    0.289142 0.178848 0.501943 0.162498
H13   H     H_    0.706190 0.821113 0.461196 0.166066
H14   H     H_    0.183327 0.400307 0.427255 0.126124
H15   H     H_    0.816581 0.600254 0.572110 0.128645
H16   H     H_    0.219019 0.641317 0.603879 0.163214
H17   H     H_    0.780096 0.356400 0.397944 0.196972
H18   H     H_    0.706821 0.702224 0.982625 0.071983
N1    N     N_R   0.207800 0.519340 0.515560 -0.122223
N2    N     N_R   0.792200 0.480660 0.484440 -0.128308
O1    O     O_R   0.421700 0.658830 0.504150 -0.624676
O2    O     O_2   0.321049 0.328460 0.138396 -0.541465
O3    O     O_2   0.420652 0.765620 0.007779 -0.575234
O4    O     O_R   0.431977 0.720640 0.146454 -0.800430
O5    O     O_2   0.579473 0.233537 0.991528 -0.575386
O6    O     O_R   0.568370 0.279172 0.852964 -0.808873
O7    O     O_2   0.719383 0.126964 0.622081 -0.558882
O8    O     O_2   0.303651 0.872050 0.661325 -0.516804
O9    O     O_2   0.762212 0.113767 0.434537 -0.544019
O10   O     O_2   0.228333 0.885980 0.487154 -0.558540
O11   O     O_2   0.935478 0.264687 0.319744 -0.511801
O12   O     O_R   0.578300 0.341170 0.495850 -0.639287
O13   O     O_2   0.065340 0.735545 0.680083 -0.506426
O14   O     O_R   0.609310 0.646410 0.494170 -0.618166
O15   O     O_R   0.390690 0.353590 0.505830 -0.617505
O16   O     O_R   0.406210 0.506220 0.628210 -0.633163
O17   O     O_R   0.593790 0.493780 0.371790 -0.616471
O18   O     O_R   0.593830 0.493800 0.618230 -0.613170
O19   O     O_R   0.406170 0.506200 0.381770 -0.592558
O20   O     O_2   0.679010 0.670885 0.861392 -0.541520
Zn1   Zn    Zn3+2 0.374730 0.508290 0.506660 0.978255
Zn2   Zn    Zn3+2 0.625270 0.491710 0.493340 0.968184

loop_
_geom_bond_atom_site_label_1
_geom_bond_atom_site_label_2
_ccdc_geom_bond_type
C37   O10   D    
C11   C18   S    
C16   C21   S    
C1    O14   A    
C34   C37   S    
C14   C31   S    
C15   C32   S    
C31   O3    D    
C18   C25   T    
C14   C24   S    
C39   O13   D    
C24   C26   S    
C39   H10   S    
C28   C40   A    
C33   H5    S    
C23   C40   A    
C12   O15   A    
C13   O17   A    
C17   C20   S    
C7    C9    A    
N2    Zn2   S    
C35   C42   S    
C19   C26   T    
C8    H14   S    
C15   C22   S    
C3    C38   S    
C2    C44   A    
C22   C25   S    
C1    C28   S    
C1    O1    A    
C9    C10   A    
O17   Zn2   S    
O14   Zn2   S    
N1    Zn1   S    
C17   C30   S    
C34   C41   A    
C42   C44   A    
C20   H11   S    
C7    H15   S    
C21   H1    S    
C38   O11   D    
C11   O18   A    
C31   O4    S    
C17   C24   S    
C13   C19   S    
C12   C27   S    
C33   C43   S    
C6    H16   S    
C34   C44   A    
C29   O20   D    
C4    C6    A    
C11   O16   A    
C37   H8    S    
C32   O6    S    
C16   C29   S    
O18   Zn2   S    
C5    N2    A    
C6    N1    A    
C41   H12   S    
O16   Zn1   S    
C14   C20   S    
C27   C41   A    
C4    C39   S    
C2    C43   A    
C35   H6    S    
C5    H17   S    
C30   O2    D    
C36   H7    S    
O19   Zn1   S    
C20   C22   S    
C35   O8    D    
C12   O12   A    
C14   C16   S    
O12   Zn2   S    
H3    O4    S    
O15   Zn1   S    
C15   C17   S    
C29   H18   S    
C16   C22   S    
C40   H13   S    
C30   H2    S    
H4    O6    S    
C3    C5    A    
O1    Zn1   S    
C32   O5    D    
C13   O19   A    
C3    C10   A    
C38   H9    S    
C28   C42   A    
C7    N2    A    
C36   O9    D    
C33   O7    D    
C8    N1    A    
C27   C43   A    
C15   C21   S    
C8    C10   A    
C23   C36   S    
C21   C24   S    
C2    C23   A    
C4    C9    A    
