data_mof_unit_18076.cif
_audit_creation_date              2012-12-10T18:27:17-0500
_audit_creation_method            fapswitch 2.2
_symmetry_space_group_name_H-M    P1
_symmetry_Int_Tables_number       1
_space_group_crystal_system       triclinic
_cell_length_a                    14.865054
_cell_length_b                    14.059019
_cell_length_c                    27.60625
_cell_angle_alpha                 89.703721
_cell_angle_beta                  90.172335
_cell_angle_gamma                 89.868668
_cell_volume                      5769.25849448

loop_
_atom_site_label
_atom_site_type_symbol
_atom_type_description
_atom_site_fract_x
_atom_site_fract_y
_atom_site_fract_z
_atom_type_partial_charge
C1    C     C_R   0.327257 0.500134 0.500316 0.957883
C2    C     C_R   0.672754 0.500004 0.499793 0.978602
C3    C     C_R   0.458056 0.483155 0.101136 -0.220697
C4    C     C_R   0.438801 0.474299 0.897359 -0.219014
C5    C     C_R   0.396397 0.537838 0.128069 -0.232902
C6    C     C_R   0.487964 0.405547 0.871378 -0.240386
C7    C     C_R   0.324600 0.583271 0.104161 0.625501
C8    C     C_R   0.531999 0.331886 0.896530 0.626511
C9    C     C_R   0.529119 0.435103 0.125042 -0.117977
C10   C     C_R   0.391307 0.546322 0.872172 -0.113324
C11   C     C_R   0.496219 0.500133 0.352980 -0.165012
C12   C     C_R   0.484971 0.497918 0.646248 -0.148876
C13   C     C_R   0.385405 0.537970 0.974639 0.063513
C14   C     C_R   0.507252 0.416545 0.023856 0.063433
C15   C     C_R   0.493901 0.405562 0.973468 -0.130448
C16   C     C_R   0.382819 0.532206 0.025912 -0.128838
C17   C     C_R   0.438773 0.472154 0.948604 0.010337
C18   C     C_R   0.449107 0.477038 0.050209 0.009957
C19   C     C_R   0.340422 0.610482 0.948612 -0.212506
C20   C     C_R   0.580031 0.373158 0.048293 -0.211676
C21   C     C_R   0.342688 0.614471 0.898359 0.660144
C22   C     C_R   0.590782 0.381733 0.097974 0.662047
C23   C     C_R   0.500042 0.500236 0.405889 0.940764
C24   C     C_R   0.498078 0.499684 0.593981 0.934800
C25   C     C_R   0.317202 0.579738 0.053980 0.502201
C26   C     C_R   0.534112 0.331140 0.946807 0.501378
C27   C     C_R   0.812046 0.507337 0.455501 0.589150
C28   C     C_R   0.187956 0.509644 0.544506 0.582774
C29   C     C_R   0.767749 0.500304 0.499323 -0.160837
C30   C     C_R   0.232283 0.500481 0.500820 -0.151171
C31   C     C_R   0.812396 0.495644 0.543027 -0.357647
C32   C     C_R   0.187656 0.492240 0.457289 -0.365966
C33   C     C_R   0.905681 0.499789 0.544308 0.092716
C34   C     C_R   0.094363 0.496159 0.455926 0.094035
C35   C     C_R   0.953118 0.500910 0.499728 -0.014442
C36   C     C_R   0.046924 0.500657 0.500439 -0.013901
C37   C     C_R   0.906146 0.502496 0.454519 -0.077574
C38   C     C_R   0.093902 0.504594 0.545584 -0.076116
C39   C     C_R   0.951574 0.501116 0.589171 -0.050059
C40   C     C_R   0.048460 0.494492 0.411081 -0.050249
C41   C     C_R   0.046007 0.504003 0.589983 -0.076938
C42   C     C_R   0.954125 0.499446 0.410171 -0.078432
C43   C     C_R   0.556548 0.797236 0.469917 0.622150
C44   C     C_R   0.443092 0.202603 0.529951 0.584874
C45   C     C_R   0.443699 0.796911 0.530243 0.611833
C46   C     C_R   0.556993 0.202906 0.470075 0.585910
C47   C     C_R   0.407225 0.543278 0.178477 0.589602
C48   C     C_R   0.491636 0.412574 0.820812 0.596205
C49   C     C_R   0.441638 0.898057 0.531292 -0.153003
C50   C     C_R   0.558926 0.101743 0.468967 -0.149804
C51   C     C_R   0.558735 0.898380 0.468942 -0.157632
C52   C     C_R   0.441414 0.101429 0.531203 -0.147717
C53   C     C_R   0.500155 0.949175 0.500095 -0.018974
C54   C     C_R   0.500164 0.050680 0.500088 -0.013590
C55   C     C_R   0.383389 0.949082 0.562445 -0.042861
C56   C     C_R   0.617516 0.050474 0.437989 -0.049077
C57   C     C_R   0.617297 0.949693 0.437956 -0.046442
C58   C     C_R   0.383122 0.049874 0.562353 -0.047610
C59   C     C_R   0.536894 0.442883 0.175448 0.569912
C60   C     C_R   0.396279 0.549535 0.821430 0.552034
C61   C     C_R   0.510714 0.580580 0.275616 -0.217433
C62   C     C_R   0.500774 0.568981 0.725330 -0.200534
C63   C     C_R   0.517417 0.582189 0.325882 0.635381
C64   C     C_R   0.515176 0.572750 0.675566 0.605262
C65   C     C_R   0.468998 0.417072 0.329066 -0.284340
C66   C     C_R   0.438447 0.421099 0.666971 -0.227481
C67   C     C_R   0.462034 0.416093 0.278976 -0.133357
C68   C     C_R   0.423339 0.418223 0.716472 -0.124971
C69   C     C_R   0.482773 0.497721 0.252260 0.199648
C70   C     C_R   0.455322 0.491493 0.745822 0.194091
H1    H     H_    0.451839 0.353186 0.349067 0.194092
H2    H     H_    0.413053 0.363587 0.644860 0.229103
H3    H     H_    0.772778 0.490533 0.575821 0.176429
H4    H     H_    0.227309 0.485017 0.424637 0.168640
H5    H     H_    0.440257 0.352031 0.260794 0.156025
H6    H     H_    0.388112 0.358320 0.732249 0.148874
H7    H     H_    0.526367 0.625217 0.748179 0.172800
H8    H     H_    0.527415 0.643462 0.254710 0.167306
H9    H     H_    0.307243 0.668828 0.966421 0.242755
H10   H     H_    0.632695 0.336093 0.029285 0.238958
N1    N     N_R   0.476064 0.495618 0.200765 -0.354669
N2    N     N_R   0.446782 0.484049 0.797198 -0.357076
N3    N     N_R   0.500000 0.750030 0.500000 -0.208029
N4    N     N_R   0.500000 0.249970 0.500000 -0.196436
O1    O     O_R   0.367850 0.580280 0.500010 -0.583755
O2    O     O_R   0.632150 0.419720 0.499990 -0.584783
O3    O     O_R   0.632150 0.580280 0.499990 -0.571243
O4    O     O_R   0.367850 0.419720 0.500010 -0.588999
O5    O     O_R   0.500010 0.580260 0.428760 -0.537397
O6    O     O_R   0.499990 0.419740 0.571240 -0.609494
O7    O     O_R   0.499990 0.580260 0.571240 -0.524919
O8    O     O_R   0.500010 0.419740 0.428760 -0.599171
O9    O     O_2   0.349524 0.595152 0.205249 -0.515440
O10   O     O_2   0.541355 0.350063 0.795267 -0.483001
O11   O     O_2   0.351512 0.617379 0.796303 -0.500187
O12   O     O_2   0.604466 0.398358 0.199279 -0.498722
Zn1   Zn    Zn3+2 0.500000 0.607200 0.500000 1.118588
Zn2   Zn    Zn3+2 0.500000 0.392800 0.500000 1.057190
C71   C     C_R   0.900966 0.498779 0.635595 0.105687
C72   C     C_R   0.855682 0.580358 0.651814 -0.166266
C73   C     C_R   0.806188 0.577335 0.694783 -0.107124
C74   C     C_R   0.802041 0.493179 0.721869 -0.092670
C75   C     C_R   0.847535 0.411952 0.706069 -0.110425
C76   C     C_R   0.896824 0.414562 0.663019 -0.156315
H11   H     H_    0.858293 0.645766 0.630972 0.143023
H12   H     H_    0.770870 0.640136 0.707027 0.164007
H13   H     H_    0.763543 0.490898 0.755072 0.154947
H14   H     H_    0.844305 0.346860 0.727086 0.155750
H15   H     H_    0.931354 0.351108 0.650899 0.126276
C77   C     C_R   0.098817 0.485559 0.364812 0.119881
C78   C     C_R   0.144836 0.564025 0.345380 -0.207026
C79   C     C_R   0.194444 0.554363 0.302716 -0.087387
C80   C     C_R   0.197946 0.466646 0.279151 -0.059837
C81   C     C_R   0.151640 0.388538 0.298134 -0.154847
C82   C     C_R   0.102201 0.397808 0.340863 -0.146189
H16   H     H_    0.142817 0.632101 0.363532 0.141064
H17   H     H_    0.230354 0.614782 0.288012 0.187424
H18   H     H_    0.236512 0.459100 0.246205 0.171863
H19   H     H_    0.154365 0.320700 0.279839 0.143901
H20   H     H_    0.067058 0.336709 0.355481 0.123239
C83   C     C_R   0.092936 0.502524 0.637686 0.216574
C84   C     C_R   0.090452 0.582459 0.667947 -0.113818
C85   C     C_R   0.133387 0.580050 0.713107 -0.098474
C86   C     C_R   0.179560 0.498359 0.728103 -0.054712
C87   C     C_R   0.182170 0.418599 0.698208 -0.144501
C88   C     C_R   0.138400 0.420205 0.653298 -0.073042
H21   H     H_    0.054974 0.646166 0.656591 0.111384
H22   H     H_    0.130847 0.641389 0.736570 0.152549
H23   H     H_    0.213050 0.496670 0.762956 0.163629
H24   H     H_    0.218097 0.355642 0.709976 0.124963
H25   H     H_    0.140517 0.358119 0.630345 0.133786
C89   C     C_R   0.907474 0.499295 0.362410 0.211500
C90   C     C_R   0.910695 0.579895 0.332235 -0.089381
C91   C     C_R   0.867081 0.579538 0.287270 -0.132698
C92   C     C_R   0.819487 0.499205 0.272373 -0.061397
C93   C     C_R   0.816407 0.418606 0.302118 -0.087945
C94   C     C_R   0.861036 0.418142 0.346807 -0.087684
H26   H     H_    0.947008 0.642680 0.343587 0.110730
H27   H     H_    0.869974 0.641546 0.263958 0.136614
H28   H     H_    0.785117 0.499345 0.237749 0.174574
H29   H     H_    0.779264 0.356719 0.290473 0.157185
H30   H     H_    0.858352 0.355655 0.369756 0.138006
F1    F     F_    0.610429 0.744055 0.441207 -0.583494
F2    F     F_    0.388283 0.255487 0.558310 -0.651084
F3    F     F_    0.390106 0.743437 0.559142 -0.610037
F4    F     F_    0.611529 0.256042 0.441523 -0.633696
C95   C     C_R   0.321893 0.898719 0.596104 0.182976
C96   C     C_R   0.349069 0.879704 0.643919 -0.082224
C97   C     C_R   0.289311 0.837181 0.676422 -0.078454
C98   C     C_R   0.202346 0.813708 0.661354 -0.079972
C99   C     C_R   0.175379 0.831170 0.613575 -0.113561
C100  C     C_R   0.234907 0.873753 0.580957 -0.088648
H31   H     H_    0.415917 0.898965 0.656046 0.138525
H32   H     H_    0.310077 0.823288 0.713404 0.170307
H33   H     H_    0.155638 0.782710 0.686806 0.123708
H34   H     H_    0.108087 0.812585 0.601977 0.121825
H35   H     H_    0.213120 0.888381 0.544191 0.111851
C101  C     C_R   0.680670 0.099860 0.404901 0.201984
C102  C     C_R   0.770144 0.114909 0.419251 -0.094192
C103  C     C_R   0.832478 0.151048 0.386177 -0.147844
C104  C     C_R   0.805778 0.172291 0.338746 -0.136104
C105  C     C_R   0.716290 0.159376 0.324572 -0.108304
C106  C     C_R   0.653771 0.123034 0.357506 -0.098778
H36   H     H_    0.791882 0.096371 0.455577 0.113200
H37   H     H_    0.901690 0.161625 0.397135 0.124758
H38   H     H_    0.854452 0.199108 0.313031 0.132203
H39   H     H_    0.695675 0.176337 0.287893 0.157608
H40   H     H_    0.585132 0.110812 0.345880 0.118719
C107  C     C_R   0.679429 0.899567 0.404682 0.174831
C108  C     C_R   0.652896 0.880715 0.356862 -0.037743
C109  C     C_R   0.713005 0.837674 0.324850 -0.060085
C110  C     C_R   0.799682 0.813495 0.340413 -0.086167
C111  C     C_R   0.826055 0.830955 0.388183 -0.110050
C112  C     C_R   0.766179 0.874073 0.420308 -0.091929
H41   H     H_    0.586204 0.900283 0.344379 0.126080
H42   H     H_    0.692676 0.823775 0.287885 0.134541
H43   H     H_    0.846609 0.781885 0.315359 0.116946
H44   H     H_    0.893124 0.811840 0.400168 0.121595
H45   H     H_    0.787457 0.888522 0.457091 0.114586
C113  C     C_R   0.320418 0.099107 0.595621 0.202294
C114  C     C_R   0.230498 0.113882 0.581831 -0.097154
C115  C     C_R   0.168959 0.150839 0.614990 -0.141825
C116  C     C_R   0.196905 0.173221 0.661941 -0.128718
C117  C     C_R   0.286849 0.160674 0.675524 -0.134068
C118  C     C_R   0.348568 0.123435 0.642516 -0.098213
H46   H     H_    0.207852 0.094661 0.545872 0.111197
H47   H     H_    0.099404 0.161175 0.604481 0.125103
H48   H     H_    0.148792 0.200503 0.687749 0.129055
H49   H     H_    0.308448 0.178633 0.711811 0.140046
H50   H     H_    0.417622 0.111662 0.653684 0.130842
F5    F     F_    0.259973 0.630625 0.129096 -0.565812
F6    F     F_    0.573205 0.259520 0.872803 -0.560312
F7    F     F_    0.560636 0.647616 0.656432 -0.660593
F8    F     F_    0.545490 0.663246 0.347670 -0.618300
F9    F     F_    0.298482 0.686960 0.875841 -0.603202
F10   F     F_    0.662532 0.337928 0.119052 -0.604394
F11   F     F_    0.241111 0.616505 0.034011 -0.613682
F12   F     F_    0.570024 0.253163 0.968752 -0.610934
F13   F     F_    0.761565 0.519680 0.414786 -0.646103
F14   F     F_    0.238266 0.524401 0.584993 -0.656192

loop_
_geom_bond_atom_site_label_1
_geom_bond_atom_site_label_2
_ccdc_geom_bond_type
C110  H43   S    
C66   C68   A    
C109  C110  A    
C73   C74   A    
C27   C29   A    
C58   C113  S    
C43   N3    A    
C107  C108  A    
C14   C18   A    
C62   H7    S    
C43   F1    S    
C35   C36   A    
C102  H36   S    
C94   H30   S    
C7    F5    S    
C99   H34   S    
C81   C82   A    
O8    Zn2   S    
C92   C93   A    
C39   C41   A    
C53   C54   A    
C117  C118  A    
C5    C47   A    
C72   H11   S    
C33   C39   A    
C48   O10   S    
C2    C29   S    
C34   C40   A    
C88   H25   S    
C35   C37   A    
C8    F6    S    
C105  C106  A    
C11   C63   A    
C32   H4    S    
C76   H15   S    
C12   C64   A    
C26   F12   S    
C9    C22   A    
C31   H3    S    
C108  C109  A    
C114  C115  A    
C84   H21   S    
C8    C26   A    
C56   C57   A    
C62   C70   A    
C3    C18   A    
C41   C83   S    
C37   C42   A    
C61   C63   A    
C115  C116  A    
C72   C73   A    
C62   C64   A    
C75   C76   A    
C95   C96   A    
C77   C78   A    
C60   N2    A    
C87   H24   S    
C66   H2    S    
C78   C79   A    
C89   C90   A    
C65   C67   A    
C56   C101  S    
C107  C112  A    
C23   O5    A    
C2    O2    A    
C75   H14   S    
C51   C57   A    
C45   C49   A    
C104  H38   S    
C44   F2    S    
C44   C52   A    
C1    O4    A    
C40   C42   A    
C71   C76   A    
C90   H26   S    
C97   H32   S    
C29   C31   A    
C22   F10   S    
C45   N3    A    
C70   N2    S    
C79   C80   A    
O7    Zn1   S    
C52   C54   A    
C104  C105  A    
C57   C107  S    
C108  H41   S    
C10   C21   A    
C1    O1    A    
C92   H28   S    
C20   H10   S    
C14   C20   A    
C85   C86   A    
C27   F13   S    
C96   C97   A    
C38   C41   A    
C4    C6    A    
C91   H27   S    
C5    C7    A    
C13   C19   A    
C15   C26   A    
C40   C77   S    
C44   N4    A    
C89   C94   A    
C111  C112  A    
C12   C66   A    
C50   C56   A    
C105  H39   S    
O5    Zn1   S    
C67   C69   A    
C32   C34   A    
C101  C102  A    
C10   C60   A    
C116  C117  A    
C93   H29   S    
C3    C9    A    
C90   C91   A    
C55   C95   S    
C102  C103  A    
C14   C15   A    
C28   C38   A    
C61   H8    S    
C99   C100  A    
C49   C55   A    
C64   F7    S    
C31   C33   A    
C47   O9    S    
C63   F8    S    
C74   H13   S    
C28   F14   S    
C103  H37   S    
C21   F9    S    
C19   H9    S    
C83   C84   A    
C78   H16   S    
C52   C58   A    
C101  C106  A    
C69   N1    S    
C46   N4    A    
C4    C17   A    
C16   C18   A    
C20   C22   A    
C98   H33   S    
C7    C25   A    
C87   C88   A    
C45   F3    S    
C13   C16   A    
C67   H5    S    
C59   O12   S    
C4    C10   A    
C24   O7    A    
C118  H50   S    
C73   H12   S    
C110  C111  A    
C80   C81   A    
C61   C69   A    
C16   C25   A    
C15   C17   A    
C46   C50   A    
C100  H35   S    
C19   C21   A    
C117  H49   S    
C59   N1    A    
C11   C23   S    
C93   C94   A    
C3    C5    A    
C24   O6    A    
C6    C8    A    
C114  H46   S    
C25   F11   S    
C91   C92   A    
C68   H6    S    
C109  H42   S    
C12   C24   S    
C98   C99   A    
C71   C72   A    
C13   C17   A    
C79   H17   S    
N4    Zn2   S    
C103  C104  A    
C36   C38   A    
C95   C100  A    
C84   C85   A    
C83   C88   A    
C50   C54   A    
C65   H1    S    
C97   C98   A    
C30   C32   A    
C43   C51   A    
C85   H22   S    
C46   F4    S    
C81   H19   S    
C111  H44   S    
C27   C37   A    
C49   C53   A    
C112  H45   S    
C28   C30   A    
C1    C30   S    
C33   C35   A    
C48   N2    A    
C86   H23   S    
C106  H40   S    
C34   C36   A    
C115  H47   S    
C47   N1    A    
C74   C75   A    
O2    Zn2   S    
O1    Zn1   S    
C113  C118  A    
C80   H18   S    
C60   O11   S    
C2    O3    A    
C39   C71   S    
C68   C70   A    
C82   H20   S    
N3    Zn1   S    
C55   C58   A    
C6    C48   A    
C23   O8    A    
C42   C89   S    
C51   C53   A    
C96   H31   S    
C116  H48   S    
C9    C59   A    
C77   C82   A    
O6    Zn2   S    
O4    Zn2   S    
C113  C114  A    
C11   C65   A    
C86   C87   A    
O3    Zn1   S    
