data_mof_unit_65309.cif
_audit_creation_date              2012-12-10T18:40:33-0500
_audit_creation_method            fapswitch 2.2
_symmetry_space_group_name_H-M    P1
_symmetry_Int_Tables_number       1
_space_group_crystal_system       triclinic
_cell_length_a                    10.774382
_cell_length_b                    11.575396
_cell_length_c                    16.705653
_cell_angle_alpha                 90.002606
_cell_angle_beta                  84.238961
_cell_angle_gamma                 89.975066
_cell_volume                      2072.96775027

loop_
_atom_site_label
_atom_site_type_symbol
_atom_type_description
_atom_site_fract_x
_atom_site_fract_y
_atom_site_fract_z
_atom_type_partial_charge
C1    C     C_R   0.499983 0.718850 0.500005 0.909743
C2    C     C_R   0.518356 0.504126 0.345931 0.900317
C3    C     C_R   0.466898 0.536459 0.738232 -0.126730
C4    C     C_R   0.530903 0.528445 0.259827 -0.136781
C5    C     C_R   0.551468 0.617286 0.763765 -0.251925
C6    C     C_R   0.431238 0.499081 0.216136 -0.245203
C7    C     C_R   0.533947 0.662704 0.840735 -0.138200
C8    C     C_R   0.430222 0.534979 0.137211 -0.127814
C9    C     C_R   0.432813 0.625981 0.893745 0.122166
C10   C     C_R   0.528679 0.602036 0.100811 0.119793
C11   C     C_R   0.345336 0.548864 0.867728 -0.197314
C12   C     C_R   0.500019 0.281147 0.500013 0.915685
C13   C     C_R   0.630954 0.627465 0.142730 -0.200190
C14   C     C_R   0.361824 0.503405 0.790240 0.383075
C15   C     C_R   0.632842 0.592132 0.222216 0.384763
C16   C     C_2   0.428789 0.649138 0.979763 -0.198331
C17   C     C_2   0.532841 0.635177 0.016242 -0.190502
C18   C     C_1   0.499966 0.838956 0.500013 -0.156853
C19   C     C_1   0.500052 0.161026 0.500029 -0.161214
C20   C     C_1   0.499996 0.940835 0.500023 0.023697
C21   C     C_1   0.500038 0.059143 0.500032 0.023296
C22   C     C_1   0.930251 0.500011 0.499998 0.085937
C23   C     C_1   0.069750 0.500008 0.499992 0.076846
C24   C     C_R   0.481653 0.502374 0.654067 0.914977
Cl1   Cl    Cl    0.761309 0.636852 0.272158 -0.595342
Cl2   Cl    Cl    0.252979 0.400927 0.762545 -0.595743
H1    H     H_    0.630189 0.647076 0.723604 0.177894
H2    H     H_    0.352924 0.449390 0.243483 0.179259
H3    H     H_    0.623646 0.632479 0.981494 0.159810
H4    H     H_    0.338132 0.651036 0.014661 0.158603
H5    H     H_    0.268041 0.519075 0.909117 0.166879
H6    H     H_    0.708572 0.676682 0.113909 0.171153
H7    H     H_    0.353202 0.508270 0.104654 0.147973
H8    H     H_    0.601285 0.723827 0.859643 0.151091
N1    N     N_1   0.819370 0.500000 0.500010 -0.060284
N2    N     N_1   0.180630 0.500000 0.499990 -0.065430
O1    O     O_R   0.397470 0.665550 0.500010 -0.612091
O2    O     O_R   0.602530 0.334450 0.499990 -0.609557
O3    O     O_R   0.602530 0.665550 0.499990 -0.594392
O4    O     O_R   0.397470 0.334450 0.500010 -0.597887
O5    O     O_R   0.385350 0.500000 0.615800 -0.564847
O6    O     O_R   0.614650 0.500000 0.384200 -0.556240
O7    O     O_R   0.590410 0.500000 0.615800 -0.625728
O8    O     O_R   0.409590 0.500000 0.384200 -0.622918
Zn1   Zn    Zn3+2 0.363080 0.500000 0.500000 1.026658
Zn2   Zn    Zn3+2 0.636920 0.500000 0.500000 1.031897

loop_
_geom_bond_atom_site_label_1
_geom_bond_atom_site_label_2
_ccdc_geom_bond_type
C12   O4    A    
C2    C4    S    
C24   O5    A    
C17   H3    S    
C13   H6    S    
C1    O1    A    
C4    C15   A    
C3    C24   S    
C11   H5    S    
N2    Zn1   S    
C14   Cl2   S    
C22   N1    T    
C9    C11   A    
C1    C18   S    
C3    C14   A    
C2    O6    A    
O3    Zn2   S    
C12   C19   S    
C4    C6    A    
C19   C21   T    
C9    C16   S    
C18   C20   T    
C8    H7    S    
C13   C15   A    
C12   O2    A    
O4    Zn1   S    
O7    Zn2   S    
C15   Cl1   S    
O2    Zn2   S    
C1    O3    A    
C10   C17   S    
O1    Zn1   S    
C7    C9    A    
C20   C21   S    
C8    C10   A    
C23   N2    T    
O6    Zn2   S    
C7    H8    S    
C11   C14   A    
C5    C7    A    
C24   O7    A    
O5    Zn1   S    
C22   C23   S    
C6    C8    A    
C5    H1    S    
N1    Zn2   S    
C16   H4    S    
C6    H2    S    
O8    Zn1   S    
C2    O8    A    
C16   C17   D    
C3    C5    A    
C10   C13   A    
