data_mof_unit_45397.cif
_audit_creation_date              2012-12-11T16:25:26-0500
_audit_creation_method            fapswitch 2.2
_symmetry_space_group_name_H-M    P1
_symmetry_Int_Tables_number       1
_space_group_crystal_system       triclinic
_cell_length_a                    19.996689
_cell_length_b                    7.304612
_cell_length_c                    13.557131
_cell_angle_alpha                 89.999708
_cell_angle_beta                  102.640484
_cell_angle_gamma                 89.99992
_cell_volume                      1932.26687425

loop_
_atom_site_label
_atom_site_type_symbol
_atom_type_description
_atom_site_fract_x
_atom_site_fract_y
_atom_site_fract_z
_atom_type_partial_charge
O1    O     O_R   0.449520 0.506760 0.599710 -0.503115
O2    O     O_R   0.550480 0.006760 0.400290 -0.503106
O3    O     O_R   0.587930 0.180200 0.595790 -0.534304
O4    O     O_R   0.412070 0.680200 0.404210 -0.534298
C1    C     C_R   0.614412 0.344330 0.617538 0.689334
C2    C     C_R   0.385587 0.844331 0.382464 0.689319
O5    O     O_R   0.452350 0.177380 0.611700 -0.543990
O6    O     O_R   0.547650 0.677380 0.388300 -0.543984
O7    O     O_R   0.413930 0.001760 0.416320 -0.542602
O8    O     O_R   0.586070 0.501760 0.583680 -0.542596
C3    C     C_R   0.437894 0.345447 0.640145 0.707855
C4    C     C_R   0.562108 0.845448 0.359857 0.707944
O9    O     O_3   0.487550 0.337460 0.435880 -0.374868
O10   O     O_3   0.512450 0.837460 0.564120 -0.374873
V1    V     V_3+5 0.502310 0.064670 0.511900 1.488870
V2    V     V_3+5 0.497690 0.564670 0.488100 1.488884
C5    C     C_R   0.612814 0.699918 0.120629 -0.145186
C6    C     C_R   0.387188 0.199913 0.879377 -0.145221
H1    H     H_    0.525564 0.655440 0.185043 0.135427
H2    H     H_    0.474440 0.155443 0.814966 0.135406
H3    H     H_    0.698553 0.667813 0.996663 0.133703
H4    H     H_    0.301451 0.167843 0.003349 0.133709
H5    H     H_    0.592415 0.615649 0.055150 0.130465
H6    H     H_    0.407589 0.115655 0.944859 0.130460
C7    C     C_R   0.597032 0.846031 0.274457 -0.118899
C8    C     C_R   0.402970 0.346023 0.725546 -0.118840
C9    C     C_R   0.924155 0.931182 0.309678 -0.196357
C10   C     C_R   0.075848 0.431208 0.690324 -0.196362
C11   C     C_R   0.885914 0.961545 0.381759 -0.191910
C12   C     C_R   0.114086 0.461525 0.618234 -0.191868
C13   C     C_R   0.814600 0.939786 0.358825 0.333769
C14   C     C_R   0.185397 0.439684 0.641156 0.333851
C15   C     C_R   0.779998 0.890038 0.258161 0.062477
C16   C     C_R   0.220001 0.389985 0.741829 0.062427
C17   C     C_R   0.820961 0.846232 0.186873 0.045158
C18   C     C_R   0.179038 0.346216 0.813124 0.045172
C19   C     C_R   0.707108 0.868718 0.226895 -0.003715
C20   C     C_R   0.292890 0.368679 0.773099 -0.003663
C21   C     C_R   0.679948 0.767443 0.137946 0.081073
C22   C     C_R   0.320052 0.267427 0.862056 0.081076
C23   C     C_R   0.720311 0.732436 0.068422 -0.153158
C24   C     C_R   0.279690 0.232440 0.931583 -0.153187
C25   C     C_R   0.789282 0.778209 0.090785 -0.100476
C26   C     C_R   0.210719 0.278211 0.909218 -0.100442
C27   C     C_R   0.659582 0.937657 0.281104 0.374913
C28   C     C_R   0.340414 0.437624 0.718890 0.374886
C29   C     C_R   0.574002 0.726388 0.193121 -0.200546
C30   C     C_R   0.426001 0.226385 0.806885 -0.200557
C31   C     C_R   0.892936 0.871167 0.212955 -0.034807
C32   C     C_R   0.107065 0.371172 0.787045 -0.034818
H7    H     H_    0.978734 0.956650 0.329518 0.112255
H8    H     H_    0.021271 0.456707 0.670491 0.112252
H9    H     H_    0.912323 0.003359 0.456880 0.121697
H10   H     H_    0.087676 0.503340 0.543113 0.121674
H11   H     H_    0.818354 0.748560 0.034131 0.139478
H12   H     H_    0.181648 0.248582 0.965877 0.139453
H13   H     H_    0.093076 0.900540 0.462078 0.127866
H14   H     H_    0.906912 0.400850 0.537914 0.127885
C33   C     C_R   0.242606 0.806803 0.032205 0.322562
C34   C     C_R   0.757400 0.306743 0.967789 0.322556
C35   C     C_R   0.302815 0.774235 0.998615 -0.125534
C36   C     C_R   0.697196 0.274098 0.001378 -0.125524
C37   C     C_R   0.365847 0.771395 0.065613 -0.215327
C38   C     C_R   0.634165 0.271202 0.934380 -0.215298
C39   C     C_R   0.370022 0.799751 0.167869 -0.141680
C40   C     C_R   0.629985 0.299598 0.832126 -0.141700
C41   C     C_R   0.310601 0.827228 0.206477 0.035650
C42   C     C_R   0.689402 0.327160 0.793519 0.035638
C43   C     C_R   0.244709 0.830634 0.138191 -0.016333
C44   C     C_R   0.755294 0.330595 0.861803 -0.016324
C45   C     C_R   0.316844 0.851107 0.312043 -0.157118
C46   C     C_R   0.683155 0.351105 0.687956 -0.157154
C47   C     C_R   0.257171 0.870193 0.351048 0.050085
C48   C     C_R   0.742825 0.370275 0.648950 0.050126
C49   C     C_R   0.191414 0.870758 0.284925 0.059659
C50   C     C_R   0.808583 0.370838 0.715069 0.059671
C51   C     C_R   0.184928 0.856337 0.178866 -0.174222
C52   C     C_R   0.815073 0.356349 0.821127 -0.174244
C53   C     C_R   0.261645 0.884722 0.456164 -0.111142
C54   C     C_R   0.738347 0.384889 0.543834 -0.111096
C55   C     C_R   0.202871 0.894234 0.495532 -0.126476
C56   C     C_R   0.797118 0.394489 0.504465 -0.126659
C57   C     C_R   0.138551 0.893131 0.431194 -0.178179
C58   C     C_R   0.861440 0.393372 0.568799 -0.178242
C59   C     C_R   0.132642 0.882448 0.327161 -0.136840
C60   C     C_R   0.867353 0.382601 0.672831 -0.136798
H15   H     H_    0.300980 0.754647 0.918824 0.189343
H16   H     H_    0.699034 0.254486 0.081169 0.189343
H17   H     H_    0.412023 0.748970 0.037895 0.142680
H18   H     H_    0.587992 0.248705 0.962096 0.142683
H19   H     H_    0.420649 0.798878 0.216530 0.098447
H20   H     H_    0.579358 0.298688 0.783465 0.098460
H21   H     H_    0.310621 0.890303 0.508883 0.170185
H22   H     H_    0.689369 0.390455 0.491115 0.170149
H23   H     H_    0.207276 0.903297 0.576417 0.180513
H24   H     H_    0.792708 0.403625 0.423580 0.180489
H25   H     H_    0.081432 0.880645 0.280419 0.080668
H26   H     H_    0.918564 0.380799 0.719569 0.080660
O11   O     O_R   0.913760 0.203480 0.916370 -0.523210
O12   O     O_R   0.086240 0.703480 0.083630 -0.523209
O13   O     O_R   0.047590 0.535230 0.888250 -0.510292
O14   O     O_R   0.952410 0.035230 0.111750 -0.510290
C61   C     C_R   0.065089 0.369488 0.863583 0.683996
C62   C     C_R   0.934912 0.869487 0.136418 0.683996
O15   O     O_R   0.912020 0.532880 0.904260 -0.545243
O16   O     O_R   0.087980 0.032880 0.095740 -0.545249
O17   O     O_R   0.949590 0.708460 0.099750 -0.531775
O18   O     O_R   0.050410 0.208460 0.900250 -0.531779
C63   C     C_R   0.884888 0.364953 0.886622 0.776204
C64   C     C_R   0.115113 0.864952 0.113372 0.776210
O19   O     O_3   0.012370 0.375360 0.064120 -0.370442
O20   O     O_3   0.987630 0.875360 0.935880 -0.370449
V3    V     V_3+5 0.997700 0.648160 0.988110 1.533569
V4    V     V_3+5 0.002300 0.148160 0.011890 1.533565
Cl1   Cl    Cl    0.168963 0.820901 0.933290 -0.679227
Cl2   Cl    Cl    0.831040 0.320926 0.066706 -0.679219
Cl3   Cl    Cl    0.666288 0.166096 0.323896 -0.687188
Cl4   Cl    Cl    0.333682 0.666029 0.676054 -0.687307
N1    N     N_2   0.779722 0.968182 0.438671 -0.484007
H27   H     H_    0.805825 0.050390 0.495782 0.277823
C65   C     C_3   0.755553 0.807043 0.481089 -0.537190
H28   H     H_    0.714626 0.846392 0.520680 0.211497
H29   H     H_    0.798436 0.746396 0.537456 0.204658
H30   H     H_    0.733872 0.706404 0.421383 0.193571
N2    N     N_2   0.220267 0.467944 0.561287 -0.484043
H31   H     H_    0.194157 0.550014 0.504107 0.277770
C66   C     C_3   0.244539 0.306780 0.519020 -0.537070
H32   H     H_    0.285616 0.346108 0.479716 0.211501
H33   H     H_    0.201761 0.246207 0.462436 0.204637
H34   H     H_    0.266055 0.206066 0.578773 0.193527

loop_
_geom_bond_atom_site_label_1
_geom_bond_atom_site_label_2
_ccdc_geom_bond_type
C40   C42   A    
C37   C39   A    
O12   C64   A    
C50   C60   A    
C9    C11   A    
O13   V3    S    
C43   C51   A    
O1    C3    A    
C38   H18   S    
O2    C4    A    
C31   C62   S    
O3    V1    S    
C21   C23   A    
O5    C3    A    
C12   H10   S    
C5    H5    S    
C48   C50   A    
O16   V4    S    
C6    H6    S    
O15   V3    S    
C20   C22   A    
C58   C60   A    
C53   H21   S    
C1    C46   S    
C55   H23   S    
H1    C29   S    
C44   C52   A    
O11   C63   A    
C2    O7    A    
C28   Cl4   S    
C34   C36   A    
C5    C21   A    
O18   V4    S    
C35   C37   A    
C33   Cl1   S    
C6    C22   A    
O17   V3    S    
C65   H30   S    
C36   C38   A    
C35   H15   S    
C10   C32   A    
C49   C59   A    
C39   C41   A    
C17   C31   A    
H13   C57   S    
C61   O18   A    
C52   C63   S    
C17   C25   A    
C7    C29   A    
C16   C18   A    
C8    C30   A    
C22   C24   A    
C32   C61   S    
O6    V2    S    
C48   C54   A    
C11   C13   A    
C23   C25   A    
C24   C26   A    
O11   V4    S    
O20   V3    S    
C55   C57   A    
C9    H7    S    
N1    C65   S    
C2    C45   S    
C33   C35   A    
C56   H24   S    
C59   H25   S    
C46   C48   A    
C53   C55   A    
C40   H20   S    
C3    C8    S    
C36   H16   S    
C15   C19   A    
C42   C46   A    
C41   C43   A    
C38   C40   A    
C14   N2    S    
O4    V2    S    
C66   H33   S    
O14   V4    S    
H14   C58   S    
C26   H12   S    
C34   C44   A    
O6    C4    A    
C37   H17   S    
C13   C15   A    
C47   C53   A    
O1    V2    S    
O14   C62   A    
O2    V1    S    
C49   C51   A    
C13   N1    S    
C65   H28   S    
H2    C30   S    
C33   C43   A    
H3    C23   S    
O4    C2    A    
C57   C59   A    
C56   C58   A    
N2    H31   S    
C18   C26   A    
C47   C49   A    
C19   C27   A    
C66   H32   S    
C7    C27   A    
C65   H29   S    
C18   C32   A    
C45   C47   A    
O16   C64   A    
C27   Cl3   S    
C39   H19   S    
O15   C63   A    
C16   C20   A    
O12   V3    S    
C5    C29   A    
C50   C52   A    
O3    C1    A    
C6    C30   A    
N1    H27   S    
C25   H11   S    
O13   C61   A    
C4    C7    S    
C10   C12   A    
O7    V1    S    
C66   H34   S    
C1    O8    A    
C19   C21   A    
O8    V2    S    
C12   C14   A    
C10   H8    S    
H4    C24   S    
C11   H9    S    
O5    V1    S    
C15   C17   A    
C54   C56   A    
O19   V4    S    
C41   C45   A    
C51   C64   S    
C60   H26   S    
C20   C28   A    
C34   Cl2   S    
C8    C28   A    
C42   C44   A    
O9    V2    S    
N2    C66   S    
O10   V1    S    
C54   H22   S    
C62   O17   A    
C9    C31   A    
C14   C16   A    
