data_mof_unit_24193.cif
_audit_creation_date              2012-12-11T17:29:16-0500
_audit_creation_method            fapswitch 2.2
_symmetry_space_group_name_H-M    P1
_symmetry_Int_Tables_number       1
_space_group_crystal_system       triclinic
_cell_length_a                    6.977435
_cell_length_b                    21.489015
_cell_length_c                    23.665582
_cell_angle_alpha                 90.214677
_cell_angle_beta                  90.260637
_cell_angle_gamma                 90.153397
_cell_volume                      3548.3003941

loop_
_atom_site_label
_atom_site_type_symbol
_atom_type_description
_atom_site_fract_x
_atom_site_fract_y
_atom_site_fract_z
_atom_type_partial_charge
O1    O     O_R   0.385180 0.195030 0.193850 -0.535083
O2    O     O_R   0.614820 0.804970 0.806150 -0.535084
O3    O     O_R   0.714780 0.188250 0.308340 -0.534658
O4    O     O_R   0.285220 0.811750 0.691660 -0.534660
O5    O     O_R   0.885140 0.307540 0.308730 -0.535049
O6    O     O_R   0.114860 0.692460 0.691270 -0.535049
C1    C     C_R   0.546140 0.173273 0.327621 0.719921
C2    C     C_R   0.453860 0.826727 0.672379 0.719918
O7    O     O_R   0.714890 0.187670 0.194260 -0.537582
O8    O     O_R   0.285110 0.812330 0.805740 -0.537583
O9    O     O_R   0.885250 0.306950 0.193830 -0.535461
O10   O     O_R   0.114750 0.693050 0.806170 -0.535452
C3    C     C_R   0.545692 0.172504 0.174891 0.723187
C4    C     C_R   0.454308 0.827496 0.825109 0.723189
O11   O     O_R   0.385070 0.195610 0.308740 -0.534855
O12   O     O_R   0.614930 0.804390 0.691260 -0.534859
O13   O     O_3   0.551660 0.290420 0.251280 -0.367177
O14   O     O_3   0.448340 0.709580 0.748720 -0.367174
V1    V     V_3+5 0.826490 0.244020 0.251290 1.429972
V2    V     V_3+5 0.173510 0.755980 0.748710 1.429984
O15   O     O_R   0.214970 0.314310 0.194240 -0.534187
O16   O     O_R   0.785030 0.685690 0.805760 -0.534184
C5    C     C_R   0.046062 0.329235 0.174849 0.718570
C6    C     C_R   0.953938 0.670765 0.825151 0.718547
O17   O     O_R   0.214860 0.314890 0.308320 -0.534239
O18   O     O_R   0.785140 0.685110 0.691680 -0.534240
C7    C     C_R   0.046682 0.329969 0.327592 0.722592
C8    C     C_R   0.953317 0.670031 0.672408 0.722600
V3    V     V_3+5 0.326500 0.258540 0.251290 1.436745
V4    V     V_3+5 0.673500 0.741460 0.748710 1.436755
O19   O     O_3   0.051460 0.212150 0.251290 -0.368715
O20   O     O_3   0.948540 0.787850 0.748710 -0.368719
C9    C     C_3   0.904028 0.473986 0.542140 0.366099
C10   C     C_3   0.095970 0.526016 0.457859 0.366095
C11   C     C_3   0.095849 0.450627 0.518184 0.366426
C12   C     C_3   0.904149 0.549374 0.481815 0.366427
C13   C     C_1   0.038789 0.375537 0.372837 -0.186979
C14   C     C_1   0.961211 0.624463 0.627163 -0.186971
C15   C     C_3   0.820625 0.482571 0.481960 -0.406872
C16   C     C_3   0.179373 0.517430 0.518039 -0.406871
C17   C     C_3   0.015470 0.459006 0.457783 -0.035859
C18   C     C_3   0.984529 0.540995 0.542216 -0.035860
C19   C     C_1   0.030379 0.413306 0.411014 0.072821
C20   C     C_1   0.969620 0.586695 0.588985 0.072825
H1    H     H_    0.281243 0.564856 0.974512 0.190869
H2    H     H_    0.718746 0.435164 0.025506 0.190792
C21   C     C_R   0.172476 0.494221 0.030548 0.443903
C22   C     C_R   0.827518 0.505798 0.969464 0.443964
C23   C     C_R   0.014262 0.456564 0.044820 -0.047104
C24   C     C_R   0.985726 0.543457 0.955197 -0.047171
C25   C     C_R   0.842330 0.463127 0.014391 -0.309392
C26   C     C_R   0.157655 0.536894 0.985626 -0.309264
C27   C     C_1   0.026453 0.411763 0.090919 0.031290
C28   C     C_1   0.973543 0.588246 0.909089 0.031635
C29   C     C_1   0.963975 0.625645 0.870695 -0.186453
C30   C     C_1   0.036025 0.374359 0.129308 -0.186582
H3    H     H_    0.220526 0.065916 0.475373 0.190599
H4    H     H_    0.779487 0.934096 0.524636 0.190581
C31   C     C_R   0.328013 0.993991 0.530339 0.443775
C32   C     C_R   0.672001 0.006023 0.469671 0.443795
C33   C     C_R   0.485181 0.955738 0.544030 -0.046538
C34   C     C_R   0.514832 0.044275 0.455980 -0.046555
C35   C     C_R   0.656651 0.962508 0.513857 -0.310240
C36   C     C_R   0.343363 0.037505 0.486153 -0.310193
C37   C     C_1   0.472751 0.910224 0.589421 0.032769
C38   C     C_1   0.527254 0.089782 0.410584 0.032841
C39   C     C_1   0.536630 0.127717 0.372698 -0.185824
C40   C     C_1   0.463370 0.872285 0.627304 -0.185856
C41   C     C_R   0.320787 0.980368 0.979895 -0.155381
C42   C     C_R   0.679213 0.019632 0.020105 -0.155381
C43   C     C_R   0.487533 0.956320 0.955018 0.135597
C44   C     C_R   0.512467 0.043680 0.044982 0.135596
C45   C     C_R   0.666837 0.976306 0.975507 -0.154732
C46   C     C_R   0.333163 0.023694 0.024493 -0.154733
C47   C     C_1   0.474870 0.911152 0.908883 -0.058784
C48   C     C_1   0.525130 0.088848 0.091117 -0.058786
C49   C     C_1   0.535028 0.126757 0.129435 -0.187456
C50   C     C_1   0.464972 0.873243 0.870564 -0.187455
O21   O     O_3   0.195329 0.396387 0.534070 -0.555441
C51   C     C_3   0.241124 0.398395 0.592249 0.088162
H5    H     H_    0.129821 0.420680 0.618780 0.155732
H6    H     H_    0.374669 0.425475 0.598929 0.151753
C52   C     C_3   0.265726 0.331983 0.613246 -0.751318
H7    H     H_    0.378348 0.307869 0.588607 0.231452
H8    H     H_    0.305080 0.332194 0.658739 0.180097
H9    H     H_    0.129903 0.305611 0.607890 0.223160
O22   O     O_3   0.804669 0.603614 0.465929 -0.555440
C53   C     C_3   0.758875 0.601606 0.407750 0.088154
H10   H     H_    0.625329 0.574527 0.401070 0.151752
H11   H     H_    0.870178 0.579321 0.381219 0.155728
C54   C     C_3   0.734274 0.668018 0.386753 -0.751323
H12   H     H_    0.870099 0.694389 0.392108 0.223159
H13   H     H_    0.694916 0.667807 0.341260 0.180096
H14   H     H_    0.621655 0.692132 0.411393 0.231454
O23   O     O_3   0.804492 0.449846 0.588930 -0.555801
C55   C     C_3   0.758687 0.386528 0.579776 0.088877
H15   H     H_    0.869866 0.360292 0.556346 0.156579
H16   H     H_    0.624989 0.382706 0.554569 0.152074
C56   C     C_3   0.734444 0.355190 0.636916 -0.751885
H17   H     H_    0.621830 0.379076 0.661740 0.230312
H18   H     H_    0.695293 0.305493 0.630977 0.181491
H19   H     H_    0.870349 0.357700 0.661342 0.222481
O24   O     O_3   0.195506 0.550155 0.411069 -0.555806
C57   C     C_3   0.241311 0.613474 0.420224 0.088879
H20   H     H_    0.375009 0.617295 0.445430 0.152076
H21   H     H_    0.130132 0.639709 0.443653 0.156580
C58   C     C_3   0.265555 0.644812 0.363083 -0.751906
H22   H     H_    0.129651 0.642302 0.338657 0.222477
H23   H     H_    0.304707 0.694508 0.369022 0.181498
H24   H     H_    0.378169 0.620925 0.338259 0.230304
H25   H     H_    0.324665 0.531501 0.532633 0.166705
H26   H     H_    0.675334 0.468500 0.467366 0.166705
O25   O     O_3   0.345742 0.486953 0.058221 -0.541799
C59   C     C_3   0.358224 0.531896 0.101725 0.112319
H27   H     H_    0.238759 0.526176 0.132420 0.110164
H28   H     H_    0.354918 0.579914 0.084114 0.115458
C60   C     C_3   0.546450 0.523671 0.133491 -0.701723
H29   H     H_    0.668913 0.532691 0.104857 0.224746
H30   H     H_    0.553903 0.557037 0.169388 0.168917
H31   H     H_    0.557055 0.475525 0.150157 0.226027
O26   O     O_3   0.654307 0.513054 0.941755 -0.541775
C61   C     C_3   0.641539 0.467918 0.898424 0.112341
H32   H     H_    0.643800 0.419998 0.916248 0.115714
H33   H     H_    0.761431 0.473252 0.867821 0.109986
C62   C     C_3   0.453852 0.476319 0.866433 -0.701872
H34   H     H_    0.444284 0.524384 0.849549 0.226048
H35   H     H_    0.446222 0.442788 0.830672 0.168928
H36   H     H_    0.330906 0.467678 0.894975 0.224763
O27   O     O_3   0.155233 0.986509 0.557836 -0.541168
C63   C     C_3   0.143428 0.031590 0.601187 0.113564
H37   H     H_    0.263156 0.026054 0.632103 0.108194
H38   H     H_    0.146899 0.079565 0.583492 0.115949
C64   C     C_3   0.955425 0.023305 0.632607 -0.704630
H39   H     H_    0.944363 0.975181 0.649285 0.225582
H40   H     H_    0.948689 0.056696 0.668459 0.168756
H41   H     H_    0.832828 0.032261 0.603746 0.225379
O28   O     O_3   0.844769 0.013500 0.442165 -0.541161
C65   C     C_3   0.856624 0.968369 0.398854 0.113573
H42   H     H_    0.736800 0.973821 0.367957 0.108177
H43   H     H_    0.853375 0.920415 0.416601 0.115998
C66   C     C_3   0.044501 0.976682 0.367373 -0.704734
H44   H     H_    0.167186 0.967807 0.396218 0.225404
H45   H     H_    0.051271 0.943245 0.331551 0.168782
H46   H     H_    0.055344 0.024789 0.350643 0.225597
H47   H     H_    0.202661 0.041624 0.042985 0.111889
H48   H     H_    0.797339 0.958376 0.957015 0.111889
H49   H     H_    0.180970 0.965624 0.964844 0.111260
H50   H     H_    0.819030 0.034376 0.035156 0.111260

loop_
_geom_bond_atom_site_label_1
_geom_bond_atom_site_label_2
_ccdc_geom_bond_type
C43   C47   S    
O22   C53   S    
O13   V3    S    
C46   H47   S    
C12   C18   S    
O23   C55   S    
O4    C2    A    
V1    O19   S    
C57   H21   S    
C59   H27   S    
C5    C30   S    
C21   C23   A    
C6    C29   S    
O9    V1    S    
C31   C36   A    
C9    C15   S    
C32   C35   A    
C10   C16   S    
C9    C18   S    
O27   C63   S    
O3    C1    A    
C66   H45   S    
O12   V4    S    
C55   C56   S    
C32   C34   A    
C11   O21   S    
C41   C43   A    
O7    C3    A    
C34   C36   A    
O13   V1    S    
O5    C7    A    
O7    V1    S    
C22   C25   A    
O6    C8    A    
C56   H17   S    
O8    V2    S    
C23   C25   A    
C55   H16   S    
C56   H19   S    
C62   H36   S    
C24   C26   A    
C58   H22   S    
O3    V1    S    
O14   V4    S    
C17   C19   S    
C10   C12   S    
C44   C48   S    
C32   O28   S    
C1    O11   A    
C38   C39   T    
C2    O12   A    
C58   H23   S    
C10   C17   S    
C18   C20   S    
C51   C52   S    
C11   C17   S    
C9    O23   S    
O1    V3    S    
C57   H20   S    
O11   V3    S    
C16   H25   S    
C12   O22   S    
O17   V3    S    
C3    C49   S    
C31   C33   A    
C34   C38   S    
C48   C49   T    
C51   H6    S    
O8    C4    A    
C66   H46   S    
C22   O26   S    
C43   C45   A    
C51   H5    S    
H1    C26   S    
O15   V3    S    
H2    C25   S    
C13   C19   T    
C63   H38   S    
C14   C20   T    
C54   H13   S    
C52   H7    S    
C53   C54   S    
C8    C14   S    
C37   C40   T    
C55   H15   S    
O10   V2    S    
C42   C45   A    
C33   C35   A    
C41   C46   A    
C24   C28   S    
C22   C24   A    
O26   C61   S    
C65   H43   S    
C64   H41   S    
C44   C46   A    
C15   H26   S    
C56   H18   S    
C53   H11   S    
C2    C40   S    
O15   C5    A    
C64   H39   S    
C41   H49   S    
C58   H24   S    
O16   C6    A    
C60   H31   S    
C63   C64   S    
O1    C3    A    
C61   H33   S    
C54   H12   S    
H3    C36   S    
C62   H35   S    
O25   C59   S    
V2    O20   S    
C27   C30   T    
H4    C35   S    
C21   O25   S    
C28   C29   T    
C31   O27   S    
O16   V4    S    
C52   H8    S    
C12   C15   S    
C16   C18   S    
C65   C66   S    
C59   H28   S    
O18   V4    S    
C21   C26   A    
O5    V1    S    
O17   C7    A    
O6    V2    S    
O28   C65   S    
O10   C6    A    
O18   C8    A    
C10   O24   S    
C45   H48   S    
O2    V4    S    
C61   C62   S    
C60   H30   S    
C11   C16   S    
V3    O19   S    
C60   H29   S    
C54   H14   S    
V4    O20   S    
C62   H34   S    
C7    C13   S    
C23   C27   S    
O9    C5    A    
C9    C11   S    
C63   H37   S    
O14   V2    S    
C4    C50   S    
O2    C4    A    
C47   C50   T    
C59   C60   S    
C65   H42   S    
C1    C39   S    
O21   C51   S    
O4    V2    S    
C33   C37   S    
C52   H9    S    
C42   H50   S    
C53   H10   S    
C15   C17   S    
O24   C57   S    
C64   H40   S    
C42   C44   A    
C61   H32   S    
C66   H44   S    
C57   C58   S    
