data_mof_unit_41549.cif
_audit_creation_date              2012-12-10T17:32:13-0500
_audit_creation_method            fapswitch 2.2
_symmetry_space_group_name_H-M    P1
_symmetry_Int_Tables_number       1
_space_group_crystal_system       triclinic
_cell_length_a                    12.412155
_cell_length_b                    13.243278
_cell_length_c                    14.99773
_cell_angle_alpha                 74.889634
_cell_angle_beta                  101.143099
_cell_angle_gamma                 117.469732
_cell_volume                      2104.02922048

loop_
_atom_site_label
_atom_site_type_symbol
_atom_type_description
_atom_site_fract_x
_atom_site_fract_y
_atom_site_fract_z
_atom_type_partial_charge
C1    C     C_R   0.855687 0.287299 0.504321 0.792320
C2    C     C_R   0.082629 0.603429 0.081409 0.088273
C3    C     C_R   0.844507 0.302850 0.069667 -0.228212
C4    C     C_R   0.845366 0.297579 0.977954 0.247920
C5    C     C_R   0.924154 0.396405 0.918631 0.050793
C6    C     C_R   0.001593 0.499112 0.953123 0.027141
C7    C     C_R   0.079239 0.599133 0.894420 0.138000
C8    C     C_R   0.157867 0.699136 0.929086 -0.223924
C9    C     C_R   0.160525 0.701152 0.021588 -0.209417
C10   C     C_R   0.926744 0.396631 0.825510 -0.279474
C11   C     C_R   0.000229 0.497597 0.767496 -0.049035
C12   C     C_R   0.999199 0.498181 0.670901 0.795379
C13   C     C_R   0.077032 0.597907 0.801615 -0.235534
C14   C     C_R   0.276323 0.038915 0.400872 0.254309
C15   C     C_R   0.229817 0.837978 0.472197 -0.074167
C16   C     C_R   0.817523 0.080681 0.545019 -0.198058
C17   C     C_R   0.738544 0.963415 0.556274 -0.149848
C18   C     C_R   0.615034 0.928169 0.528875 -0.185466
C19   C     C_R   0.568801 0.010614 0.485050 0.088391
C20   C     C_R   0.653167 0.128097 0.460106 0.082460
C21   C     C_R   0.442038 0.981024 0.465999 0.022710
C22   C     C_R   0.402285 0.066671 0.415768 0.113759
C23   C     C_R   0.145372 0.714070 0.487372 0.814524
C24   C     C_R   0.488829 0.176375 0.377478 -0.265837
C25   C     C_R   0.612338 0.205897 0.397888 -0.223548
C26   C     C_R   0.353671 0.868816 0.496426 -0.247517
C27   C     C_R   0.190896 0.923586 0.427109 -0.256785
C28   C     C_R   0.775399 0.164463 0.499824 -0.119679
C29   C     C_R   0.368146 0.379210 0.677682 0.174401
C30   C     C_R   0.754972 0.636120 0.365854 0.071199
C31   C     C_R   0.657725 0.664769 0.334356 -0.262668
C32   C     C_R   0.558071 0.616846 0.386527 -0.173686
C33   C     C_R   0.554716 0.540459 0.472166 -0.031317
C34   C     C_R   0.001465 0.502429 0.329044 0.799906
C35   C     C_R   0.656333 0.512398 0.502782 0.247335
C36   C     C_R   0.453318 0.489703 0.528177 -0.091258
C37   C     C_R   0.465939 0.432941 0.620951 0.085922
C38   C     C_R   0.573185 0.423323 0.654206 -0.299660
C39   C     C_R   0.652086 0.438348 0.592456 0.231113
C40   C     C_R   0.339449 0.492438 0.496758 0.009729
C41   C     C_R   0.257987 0.381753 0.640831 0.006180
C42   C     C_R   0.084030 0.604147 0.175567 -0.067977
C43   C     C_R   0.002982 0.505105 0.232056 -0.086000
C44   C     C_R   0.922449 0.406335 0.196465 -0.247910
C45   C     C_R   0.922415 0.403469 0.104248 0.053778
C46   C     C_R   0.002041 0.502065 0.046275 0.035227
Cu1   Cu    Cu3+1 0.098270 0.475420 0.521130 0.931124
Cu2   Cu    Cu3+1 0.901730 0.524580 0.478870 0.946618
H1    H     H_    0.461673 0.240610 0.332261 0.191619
H2    H     H_    0.379060 0.802377 0.537983 0.158959
H3    H     H_    0.911197 0.105657 0.573790 0.156129
H4    H     H_    0.558985 0.835851 0.541835 0.132624
H5    H     H_    0.772278 0.899419 0.590173 0.145030
H6    H     H_    0.675179 0.290827 0.364891 0.180184
H7    H     H_    0.182495 0.342632 0.683630 0.135333
H8    H     H_    0.582689 0.378270 0.724630 0.190109
H9    H     H_    0.861100 0.330887 0.241452 0.127551
H10   H     H_    0.323169 0.537715 0.428517 0.129356
H11   H     H_    0.831866 0.674025 0.324631 0.127167
H12   H     H_    0.486404 0.643689 0.359946 0.126133
H13   H     H_    0.659722 0.724722 0.269224 0.142946
H14   H     H_    0.783606 0.226982 0.114485 0.158940
H15   H     H_    0.872110 0.319302 0.797066 0.124799
H16   H     H_    0.135056 0.674711 0.755699 0.122796
H17   H     H_    0.218061 0.775944 0.884630 0.142635
H18   H     H_    0.223932 0.780304 0.045320 0.166430
H19   H     H_    0.094569 0.900680 0.410367 0.150991
N1    N     N_R   0.246280 0.438190 0.553160 -0.201168
N2    N     N_R   0.754320 0.561190 0.447410 -0.199625
O1    O     O_R   0.972510 0.318130 0.526570 -0.584734
O2    O     O_R   0.806530 0.359650 0.490890 -0.538371
O3    O     O_R   0.082980 0.479210 0.647590 -0.585423
O4    O     O_R   0.917000 0.520730 0.611900 -0.569708
O5    O     O_R   0.193470 0.640350 0.509110 -0.578302
O6    O     O_R   0.027490 0.681870 0.473430 -0.587846
O7    O     O_R   0.083000 0.479270 0.388100 -0.581578
O8    O     O_R   0.917020 0.520790 0.352410 -0.598773
C47   C     C_R   0.172174 0.707283 0.214297 0.093190
C48   C     C_R   0.147797 0.804025 0.200072 -0.173327
C49   C     C_R   0.240611 0.909809 0.218263 -0.142861
C50   C     C_R   0.357330 0.918902 0.251626 -0.088074
C51   C     C_R   0.380526 0.821506 0.269855 -0.147115
C52   C     C_R   0.288356 0.715939 0.250674 -0.139571
H20   H     H_    0.059009 0.798912 0.170601 0.128512
H21   H     H_    0.222782 0.985326 0.204680 0.135120
H22   H     H_    0.430139 0.001574 0.262866 0.137614
H23   H     H_    0.470929 0.828980 0.296059 0.128802
H24   H     H_    0.308593 0.642463 0.259832 0.118828
N3    N     N_2   0.234973 0.125463 0.356798 -0.453195
H25   H     H_    0.150485 0.094005 0.320463 0.247478
C53   C     C_3   0.243683 0.199077 0.416890 -0.678705
H26   H     H_    0.182214 0.147049 0.473404 0.225333
H27   H     H_    0.216221 0.267786 0.376147 0.234481
H28   H     H_    0.338670 0.241966 0.447690 0.234532
N4    N     N_2   0.379933 0.322965 0.771406 -0.441873
H29   H     H_    0.344443 0.344679 0.816380 0.253339
C54   C     C_3   0.335511 0.198613 0.784114 -0.734377
H30   H     H_    0.235034 0.157021 0.768142 0.221089
H31   H     H_    0.379235 0.177191 0.738487 0.236795
H32   H     H_    0.357698 0.163035 0.857191 0.234180
N5    N     N_2   0.700323 0.355649 0.616255 -0.351116
H33   H     H_    0.748915 0.359145 0.679968 0.239575
C55   C     C_3   0.609081 0.236710 0.617956 -0.685304
H34   H     H_    0.654536 0.179097 0.628235 0.226134
H35   H     H_    0.548710 0.229740 0.552750 0.252955
H36   H     H_    0.552456 0.205457 0.676960 0.196241
N6    N     N_2   0.766183 0.191719 0.947693 -0.432985
H37   H     H_    0.804549 0.165305 0.908587 0.246206
C56   C     C_3   0.646455 0.182912 0.910071 -0.694988
H38   H     H_    0.588880 0.095753 0.892857 0.223974
H39   H     H_    0.653293 0.249708 0.845972 0.222028
H40   H     H_    0.601858 0.194466 0.961701 0.241354

loop_
_geom_bond_atom_site_label_1
_geom_bond_atom_site_label_2
_ccdc_geom_bond_type
C16   C28   A    
C21   C26   A    
N5    H33   S    
N4    H29   S    
C31   H13   S    
C19   C20   A    
C16   H3    S    
Cu2   N2    S    
C54   H32   S    
C54   H30   S    
C18   H4    S    
C7    C8    A    
Cu1   O1    S    
C45   C46   A    
C2    C46   A    
C49   H21   S    
C36   C37   A    
C19   C21   A    
Cu1   O7    S    
C26   H2    S    
C34   O8    A    
C5    C6    A    
C20   C25   A    
C51   H23   S    
C33   C36   A    
C18   C19   A    
C9    H18   S    
C41   H7    S    
C47   C52   A    
C10   H15   S    
C16   C17   A    
C1    C28   S    
N6    H37   S    
C14   C27   A    
N3    C53   S    
C50   H22   S    
C15   C23   S    
C52   H24   S    
C12   O3    A    
C8    H17   S    
N5    C55   S    
C21   C22   A    
N6    C56   S    
Cu2   O6    S    
C54   H31   S    
C39   N5    S    
C41   N1    A    
C38   C39   A    
C4    N6    S    
C40   H10   S    
Cu1   Cu2   S    
C36   C40   A    
C25   H6    S    
C56   H40   S    
C53   H26   S    
C29   N4    S    
C47   C48   A    
C8    C9    A    
C15   C26   A    
C20   C28   A    
C3    C45   A    
C50   C51   A    
Cu2   O8    S    
C35   C39   A    
C43   C44   A    
C14   N3    S    
C37   C38   A    
C53   H27   S    
C15   C27   A    
C31   C32   A    
C7    C13   A    
C44   H9    S    
C30   H11   S    
C17   C18   A    
C55   H35   S    
C1    O2    A    
C24   C25   A    
C42   C47   S    
C22   C24   A    
C42   C43   A    
C32   H12   S    
C23   O5    A    
C3    C4    A    
C17   H5    S    
Cu1   N1    S    
C30   N2    A    
C44   C45   A    
C3    H14   S    
C24   H1    S    
C6    C46   A    
C29   C41   A    
Cu2   O4    S    
C34   C43   S    
Cu1   O5    S    
C23   O6    A    
C49   C50   A    
C11   C12   S    
N4    C54   S    
C6    C7    A    
C1    O1    A    
C32   C33   A    
C14   C22   A    
C56   H39   S    
C5    C10   A    
C56   H38   S    
C53   H28   S    
C11   C13   A    
C30   C31   A    
C48   H20   S    
C13   H16   S    
C2    C42   A    
C33   C35   A    
C55   H36   S    
Cu1   O3    S    
C27   H19   S    
C10   C11   A    
C48   C49   A    
C4    C5    A    
C38   H8    S    
C35   N2    A    
C51   C52   A    
C40   N1    A    
C29   C37   A    
C55   H34   S    
Cu2   O2    S    
N3    H25   S    
C12   O4    A    
C2    C9    A    
C34   O7    A    
