data_mof_unit_50235.cif
_audit_creation_date              2012-12-10T17:33:08-0500
_audit_creation_method            fapswitch 2.2
_symmetry_space_group_name_H-M    P1
_symmetry_Int_Tables_number       1
_space_group_crystal_system       triclinic
_cell_length_a                    15.51713
_cell_length_b                    15.503183
_cell_length_c                    17.828708
_cell_angle_alpha                 90.460257
_cell_angle_beta                  109.49312
_cell_angle_gamma                 68.568315
_cell_volume                      3731.72150812

loop_
_atom_site_label
_atom_site_type_symbol
_atom_type_description
_atom_site_fract_x
_atom_site_fract_y
_atom_site_fract_z
_atom_type_partial_charge
C1    C     C_R   0.463724 0.740486 0.531586 0.823980
C2    C     C_R   0.570969 0.396164 0.075425 -0.271471
C3    C     C_R   0.610023 0.330011 0.029855 0.003256
C4    C     C_R   0.531922 0.260375 0.467029 0.812613
C5    C     C_R   0.607369 0.359661 0.954241 0.057772
C6    C     C_R   0.564547 0.456854 0.924903 -0.051307
C7    C     C_R   0.646510 0.294098 0.907157 -0.195289
C8    C     C_R   0.635682 0.322146 0.829812 -0.290077
C9    C     C_R   0.546105 0.483245 0.842847 0.461904
C10   C     C_R   0.327048 0.989473 0.546973 0.572275
C11   C     C_R   0.444593 0.837914 0.540997 -0.059447
C12   C     C_R   0.426940 0.692041 0.196736 0.474103
C13   C     C_R   0.624921 0.109889 0.429471 -0.283447
C14   C     C_R   0.647689 0.015093 0.424233 0.582277
C15   C     C_R   0.597844 0.970001 0.450629 -0.274363
C16   C     C_R   0.757821 0.447526 0.532647 0.776138
C17   C     C_R   0.517830 0.020809 0.475648 0.047633
C18   C     C_R   0.486227 0.119388 0.469061 0.014202
C19   C     C_R   0.466464 0.977273 0.504615 -0.010211
C20   C     C_R   0.378102 0.033308 0.518484 -0.079871
C21   C     C_R   0.341870 0.131404 0.502218 0.507579
C22   C     C_R   0.394402 0.172547 0.475517 -0.295278
C23   C     C_R   0.468104 0.534893 0.160324 -0.342433
C24   C     C_R   0.499944 0.879282 0.519452 -0.250152
C25   C     C_R   0.358768 0.892315 0.554526 -0.305934
C26   C     C_R   0.545745 0.162740 0.453266 -0.130316
C27   C     C_R   0.022610 0.391544 0.651310 -0.175926
C28   C     C_R   0.241734 0.552860 0.469188 0.807941
C29   C     C_R   0.861599 0.429322 0.549257 0.018830
C30   C     C_R   0.068760 0.618670 0.374382 -0.312276
C31   C     C_R   0.970198 0.625815 0.348065 0.594314
C32   C     C_R   0.941565 0.579273 0.395992 -0.233342
C33   C     C_R   0.006649 0.532285 0.473502 0.005644
C34   C     C_R   0.491125 0.560338 0.096171 0.095050
C35   C     C_R   0.102676 0.534798 0.502570 0.007500
C36   C     C_R   0.979653 0.482903 0.523123 0.055710
C37   C     C_R   0.047105 0.442127 0.602347 0.033293
C38   C     C_R   0.136465 0.455431 0.632919 0.465228
C39   C     C_R   0.163381 0.500965 0.583305 -0.297447
C40   C     C_R   0.559951 0.440611 0.711879 0.855491
C41   C     C_R   0.887025 0.474052 0.497496 -0.216030
C42   C     C_R   0.930032 0.386491 0.625312 -0.203877
C43   C     C_R   0.135748 0.571981 0.450331 -0.104833
C44   C     C_R   0.442603 0.560771 0.288115 0.829413
C45   C     C_R   0.473169 0.655773 0.078152 0.050476
C46   C     C_R   0.438810 0.598420 0.211240 -0.137844
C47   C     C_R   0.584351 0.415723 0.797167 -0.085469
C48   C     C_R   0.441238 0.721706 0.128796 -0.128702
C49   C     C_3   0.261905 0.246438 0.564725 -0.194368
C50   C     C_3   0.259410 0.034532 0.643036 -0.284345
C51   C     C_3   0.684804 0.952111 0.318601 -0.330503
C52   C     C_3   0.384969 0.579571 0.780336 -0.358328
C53   C     C_3   0.184115 0.489779 0.760244 -0.351611
C54   C     C_3   0.904737 0.755163 0.252467 -0.336707
C55   C     C_R   0.646777 0.229933 0.061509 0.110136
C56   C     C_R   0.531600 0.492914 0.049563 0.076959
C57   C     C_R   0.598014 0.173049 0.021554 -0.165898
C58   C     C_R   0.630800 0.079590 0.052843 -0.145448
C59   C     C_R   0.711538 0.042609 0.124641 -0.128617
C60   C     C_R   0.759606 0.099047 0.165293 -0.120433
C61   C     C_R   0.727331 0.192483 0.134011 -0.149452
C62   C     C_R   0.429900 0.820264 0.115950 0.153711
C63   C     C_R   0.336172 0.892943 0.094684 -0.078214
C64   C     C_R   0.326511 0.985979 0.085960 -0.146642
C65   C     C_R   0.410315 0.006919 0.099054 -0.106010
C66   C     C_R   0.503888 0.934855 0.120771 -0.160316
C67   C     C_R   0.537112 0.523236 0.977094 0.067699
C68   C     C_R   0.513814 0.841811 0.129075 -0.202405
C69   C     C_3   0.487259 0.755105 0.308532 -0.247428
C70   C     C_R   0.520280 0.618123 0.961362 -0.160401
C71   C     C_R   0.489017 0.682789 0.010629 -0.238510
H1    H     H_    0.477053 0.754520 0.994744 0.163636
H2    H     H_    0.830474 0.505918 0.439863 0.122876
H3    H     H_    0.094578 0.645831 0.334192 0.170669
H4    H     H_    0.866645 0.583124 0.370793 0.149807
H5    H     H_    0.232088 0.510913 0.610034 0.181120
H6    H     H_    0.664137 0.269999 0.794018 0.159004
H7    H     H_    0.472811 0.465027 0.172858 0.169080
H8    H     H_    0.536355 0.643414 0.913507 0.209330
H9    H     H_    0.576264 0.369512 0.133174 0.157105
H10   H     H_    0.271478 0.307651 0.542158 0.175015
H11   H     H_    0.324483 0.209402 0.621475 0.139191
H12   H     H_    0.684861 0.220349 0.929225 0.167011
H13   H     H_    0.193489 0.272958 0.579317 0.197679
H14   H     H_    0.273141 0.963112 0.667611 0.149719
H15   H     H_    0.322645 0.054586 0.676139 0.141926
H16   H     H_    0.192961 0.083865 0.653390 0.197613
H17   H     H_    0.639168 0.020315 0.279425 0.167726
H18   H     H_    0.640422 0.908161 0.312061 0.164029
H19   H     H_    0.746566 0.915090 0.297357 0.187818
H20   H     H_    0.364413 0.571003 0.833106 0.173293
H21   H     H_    0.371532 0.527942 0.738933 0.177644
H22   H     H_    0.335425 0.650297 0.747486 0.189945
H23   H     H_    0.314543 0.859288 0.568917 0.153897
H24   H     H_    0.108530 0.511168 0.762798 0.173077
H25   H     H_    0.194809 0.551741 0.740259 0.154308
H26   H     H_    0.238256 0.461812 0.822015 0.197136
H27   H     H_    0.964227 0.744992 0.227833 0.178318
H28   H     H_    0.913357 0.795991 0.304289 0.166704
H29   H     H_    0.833378 0.797330 0.204654 0.180792
H30   H     H_    0.534604 0.201222 0.966382 0.139071
H31   H     H_    0.593336 0.035967 0.021552 0.133021
H32   H     H_    0.736633 0.970349 0.148905 0.106413
H33   H     H_    0.821772 0.070418 0.221118 0.143665
H34   H     H_    0.566358 0.832676 0.511222 0.135347
H35   H     H_    0.764957 0.235645 0.166165 0.141053
H36   H     H_    0.270923 0.877487 0.085131 0.133382
H37   H     H_    0.254118 0.041867 0.069456 0.133272
H38   H     H_    0.402818 0.078947 0.092684 0.130827
H39   H     H_    0.568838 0.951014 0.131740 0.127589
H40   H     H_    0.586840 0.786572 0.146766 0.146837
H41   H     H_    0.533053 0.685314 0.344836 0.122840
H42   H     H_    0.465342 0.805376 0.349870 0.191724
H43   H     H_    0.532521 0.778155 0.282737 0.144640
H44   H     H_    0.669973 0.141861 0.415158 0.188797
H45   H     H_    0.621655 0.895908 0.447911 0.142175
H46   H     H_    0.359540 0.246927 0.456421 0.182858
H47   H     H_    0.909787 0.353071 0.666140 0.135844
H48   H     H_    0.073193 0.359247 0.711345 0.181755
O1    O     O_3   0.500000 0.500000 0.500000 -0.487071
O2    O     O_R   0.596500 0.492780 0.688380 -0.620859
O3    O     O_R   0.388780 0.611210 0.325000 -0.597971
O4    O     O_R   0.499860 0.410860 0.661600 -0.649288
O5    O     O_R   0.514860 0.485140 0.325020 -0.648778
O6    O     O_3   0.250201 0.186796 0.505208 -0.562406
O7    O     O_3   0.240486 0.041304 0.559774 -0.548831
O8    O     O_3   0.724963 0.964868 0.399419 -0.601115
O9    O     O_3   0.483899 0.572474 0.804053 -0.630902
O10   O     O_3   0.201397 0.419073 0.710498 -0.616689
O11   O     O_3   0.902130 0.668337 0.272174 -0.607284
O12   O     O_R   0.707110 0.418540 0.472990 -0.635785
O13   O     O_3   0.400488 0.755128 0.248518 -0.585190
O14   O     O_R   0.267620 0.606720 0.435250 -0.642691
O15   O     O_R   0.540230 0.674660 0.578090 -0.632110
O16   O     O_R   0.485030 0.300080 0.513670 -0.650001
O17   O     O_R   0.403610 0.721990 0.472930 -0.629231
O18   O     O_R   0.571130 0.303270 0.435320 -0.643184
O19   O     O_R   0.717650 0.497270 0.578120 -0.640873
O20   O     O_R   0.307610 0.477470 0.513630 -0.654205
Zn1   Zn    Zn3+2 0.572030 0.427990 0.434470 0.960954
Zn2   Zn    Zn3+2 0.587090 0.540470 0.584680 0.984145
Zn3   Zn    Zn3+2 0.449010 0.423430 0.546420 0.949216
Zn4   Zn    Zn3+2 0.391880 0.608100 0.434430 0.993424

loop_
_geom_bond_atom_site_label_1
_geom_bond_atom_site_label_2
_ccdc_geom_bond_type
C40   C47   S    
C7    H12   S    
C34   C56   A    
C13   C26   A    
C29   C42   A    
C53   H24   S    
C66   C68   A    
C19   C20   A    
C18   C26   A    
C12   C48   A    
C32   H4    S    
C52   O9    S    
C7    C8    A    
C40   O2    A    
C28   O20   A    
C69   H42   S    
C62   C63   A    
C15   H45   S    
C49   H13   S    
C36   C37   A    
O17   Zn4   S    
C51   H19   S    
C30   C31   A    
C30   H3    S    
C69   H41   S    
C45   C71   A    
C11   C25   A    
C11   C24   A    
C33   C36   A    
C49   H10   S    
C16   O12   A    
O12   Zn1   S    
C50   H14   S    
C17   C19   A    
C4    O18   A    
C3    C55   S    
O16   Zn3   S    
C10   C20   A    
C1    C11   S    
C70   C71   A    
O1    Zn1   S    
C13   C14   A    
C1    O17   A    
C35   C43   A    
C59   C60   A    
C23   C46   A    
C21   C22   A    
C53   H25   S    
C54   H29   S    
C36   C41   A    
O1    Zn4   S    
O3    Zn4   S    
C6    C9    A    
C44   C46   S    
C64   H37   S    
C38   C39   A    
C54   O11   S    
O18   Zn1   S    
C69   H43   S    
O14   Zn4   S    
C9    O9    S    
C28   O14   A    
C38   O10   S    
O2    Zn2   S    
O1    Zn3   S    
C12   C46   A    
C5    C7    A    
C42   H47   S    
C53   H26   S    
C16   C29   S    
C44   O5    A    
C14   O8    S    
C60   C61   A    
C68   H40   S    
C49   H11   S    
C35   C39   A    
C37   C38   A    
C48   C62   S    
C31   C32   A    
C23   C34   A    
C17   C18   A    
C52   H22   S    
C34   C45   A    
C39   H5    S    
C66   H39   S    
C61   H35   S    
C65   H38   S    
C13   H44   S    
C50   H16   S    
C4    O16   A    
C50   O7    S    
C10   C25   A    
C6    C67   A    
C9    C47   A    
C55   C57   A    
C8    H6    S    
C54   H28   S    
C52   H21   S    
C53   O10   S    
C21   O6    S    
C1    O15   A    
C57   H30   S    
C45   C48   A    
C15   C17   A    
C40   O4    A    
C12   O13   S    
C29   C41   A    
C70   H8    S    
C18   C22   A    
O5    Zn1   S    
C16   O19   A    
O1    Zn2   S    
C3    C5    A    
O19   Zn2   S    
C51   H17   S    
C4    C26   S    
C27   H48   S    
C31   O11   S    
C56   C67   A    
C49   O6    S    
C28   C43   S    
C62   C68   A    
C67   C70   A    
C51   O8    S    
C64   C65   A    
C2    C3    A    
C58   C59   A    
C8    C47   A    
C59   H32   S    
C71   H1    S    
C10   O7    S    
C32   C33   A    
O15   Zn2   S    
C27   C42   A    
C57   C58   A    
C5    C6    A    
O20   Zn3   S    
C27   C37   A    
C69   O13   S    
C58   H31   S    
C55   C61   A    
O4    Zn3   S    
C44   O3    A    
C33   C35   A    
C19   C24   A    
C23   H7    S    
C30   C43   A    
C2    H9    S    
C50   H15   S    
C41   H2    S    
C63   C64   A    
C25   H23   S    
C20   C21   A    
C65   C66   A    
C14   C15   A    
C54   H27   S    
C52   H20   S    
C2    C56   A    
C24   H34   S    
C60   H33   S    
C22   H46   S    
C63   H36   S    
C51   H18   S    
