data_mof_unit_15718.cif
_audit_creation_date              2012-12-11T16:19:53-0500
_audit_creation_method            fapswitch 2.2
_symmetry_space_group_name_H-M    P1
_symmetry_Int_Tables_number       1
_space_group_crystal_system       triclinic
_cell_length_a                    13.863146
_cell_length_b                    14.148249
_cell_length_c                    30.015548
_cell_angle_alpha                 97.639745
_cell_angle_beta                  89.571584
_cell_angle_gamma                 119.275097
_cell_volume                      5078.4553797

loop_
_atom_site_label
_atom_site_type_symbol
_atom_type_description
_atom_site_fract_x
_atom_site_fract_y
_atom_site_fract_z
_atom_type_partial_charge
C1    C     C_R   0.718079 0.097273 0.568816 0.554993
C2    C     C_R   0.357097 0.693181 0.682605 -0.000809
C3    C     C_R   0.271915 0.708622 0.665561 0.249045
C4    C     C_R   0.274158 0.731433 0.620923 0.290201
C5    C     C_R   0.297068 0.711191 0.842558 0.219433
C6    C     C_R   0.254786 0.657541 0.880165 0.257665
C7    C     C_R   0.407204 0.618874 0.880997 -0.115552
C8    C     C_R   0.440663 0.659714 0.839798 0.303583
C9    C     C_R   0.377909 0.696491 0.818845 0.020486
C10   C     C_1   0.381810 0.699902 0.770808 0.168416
C11   C     C_1   0.374307 0.696696 0.730452 0.088490
C12   C     C_R   0.383376 0.790605 0.552003 0.547296
C13   C     C_R   0.310395 0.610597 0.899889 -0.034851
C14   C     C_3   0.285999 0.055298 0.716169 -0.196386
C15   C     C_3   0.273006 0.223739 0.716652 -0.239781
C16   C     C_3   0.267423 0.237125 0.769297 0.122185
C17   C     C_1   0.299172 0.198369 0.878275 0.064611
C18   C     C_3   0.344072 0.171093 0.702368 0.014335
C19   C     C_3   0.276919 0.061166 0.767619 -0.218781
C20   C     C_3   0.325188 0.181231 0.790403 0.019091
C21   C     C_3   0.447656 0.239236 0.780217 -0.217662
C22   C     C_3   0.458105 0.245564 0.729092 -0.191112
C23   C     C_R   0.398580 0.119373 0.569372 0.553809
C24   C     C_1   0.311756 0.184478 0.838902 0.006872
C25   C     C_1   0.354885 0.159355 0.653219 -0.024237
C26   C     C_1   0.368583 0.141998 0.613838 0.017083
C27   C     C_3   0.710919 0.148593 0.729927 0.433268
C28   C     C_3   0.918630 0.251090 0.715105 0.413092
C29   C     C_3   0.934231 0.266149 0.768231 -0.233227
C30   C     C_1   0.904361 0.205157 0.877815 -0.023506
C31   C     C_3   0.805877 0.138838 0.701700 0.031668
C32   C     C_3   0.729621 0.131776 0.779208 -0.223010
C33   C     C_3   0.852158 0.161295 0.788718 -0.051344
C34   C     C_R   0.719757 0.095556 0.442929 0.565119
C35   C     C_3   0.864290 0.060142 0.765608 0.531327
C36   C     C_3   0.815923 0.033034 0.713526 0.464593
C37   C     C_1   0.878125 0.186770 0.838060 -0.037570
C38   C     C_1   0.780514 0.129119 0.653541 0.178549
C39   C     C_1   0.757620 0.121326 0.614395 0.143999
C40   C     C_3   0.233270 0.609601 0.271829 -0.276658
C41   C     C_3   0.427571 0.642952 0.272100 -0.179049
C42   C     C_3   0.421210 0.622815 0.219619 0.150997
C43   C     C_1   0.305711 0.604553 0.110788 0.064263
C44   C     C_3   0.354674 0.693691 0.289117 0.009094
C45   C     C_R   0.383112 0.786071 0.425024 0.550962
C46   C     C_3   0.222014 0.589383 0.219703 -0.220178
C47   C     C_3   0.336774 0.653314 0.200224 -0.002715
C48   C     C_3   0.380486 0.776896 0.216123 -0.226525
C49   C     C_3   0.388387 0.801357 0.268498 0.141158
C50   C     C_1   0.323847 0.631486 0.150837 0.008025
C51   C     C_1   0.361206 0.714243 0.338553 -0.016710
C52   C     C_1   0.368532 0.739683 0.378726 0.028632
C53   C     C_R   0.362310 0.134902 0.401182 0.022632
C54   C     C_R   0.423621 0.237679 0.386749 -0.130995
C55   C     C_R   0.411295 0.248783 0.342108 -0.124486
C56   C     C_R   0.397664 0.115126 0.443227 0.539636
C57   C     C_R   0.337425 0.157555 0.311911 0.041745
C58   C     C_R   0.269724 0.057325 0.326694 -0.114159
C59   C     C_R   0.281547 0.046018 0.371333 -0.134160
C60   C     C_R   0.222100 0.134843 0.158338 -0.105360
C61   C     C_R   0.212500 0.150886 0.114517 -0.149244
C62   C     C_R   0.413086 0.237044 0.110492 0.294000
C63   C     C_R   0.421478 0.221485 0.155163 -0.025923
C64   C     C_R   0.326424 0.173313 0.179035 0.021771
C65   C     C_1   0.334378 0.168671 0.225743 0.009030
C66   C     C_1   0.336402 0.164433 0.265167 -0.012038
C67   C     C_R   0.361004 0.737647 0.593568 -0.003452
C68   C     C_R   0.307447 0.206177 0.090636 0.037712
C69   C     C_R   0.778365 0.133548 0.402525 -0.004948
C70   C     C_R   0.808157 0.066453 0.373914 -0.089657
C71   C     C_R   0.834378 0.086955 0.330129 -0.099625
C72   C     C_R   0.829911 0.173678 0.314670 0.070221
C73   C     C_R   0.807899 0.245871 0.343721 0.289507
C74   C     C_R   0.785762 0.227381 0.388170 -0.098337
C75   C     C_R   0.884612 0.294784 0.167946 -0.125034
C76   C     C_R   0.911282 0.308351 0.123490 0.262445
C77   C     C_R   0.847191 0.112706 0.105810 -0.146426
C78   C     C_R   0.434854 0.706735 0.609487 -0.174166
C79   C     C_R   0.821966 0.100072 0.150526 0.286359
C80   C     C_R   0.843426 0.192309 0.181568 0.008442
C81   C     C_1   0.837203 0.185557 0.228422 0.051041
C82   C     C_1   0.835192 0.180748 0.267845 0.068708
C83   C     C_R   0.898465 0.217333 0.092648 -0.007043
C84   C     C_R   0.284037 0.232211 0.923214 0.576753
C85   C     C_R   0.266421 0.547188 0.938084 0.570981
C86   C     C_R   0.948474 0.222958 0.923025 0.543740
C87   C     C_R   0.291209 0.242279 0.048963 0.604942
C88   C     C_R   0.273449 0.556670 0.064780 0.555105
C89   C     C_R   0.431012 0.682231 0.653239 -0.138016
C90   C     C_R   0.954619 0.233011 0.050273 0.562547
Cr1   Cr    Cr6+3 0.583400 0.162540 0.509180 1.061156
Cr2   Cr    Cr6+3 0.584070 0.916690 0.495550 1.062148
Cr3   Cr    Cr6+3 0.332550 0.920810 0.495240 1.039810
Cr4   Cr    Cr6+3 0.086700 0.177000 0.983690 1.032031
Cr5   Cr    Cr6+3 0.336880 0.419130 0.994740 1.101910
Cr6   Cr    Cr6+3 0.084850 0.422220 0.995960 1.065317
H1    H     H_    0.201497 0.006607 0.699115 0.120911
H2    H     H_    0.306648 0.302450 0.703288 0.154920
H3    H     H_    0.188672 0.170322 0.700519 0.166711
H4    H     H_    0.179701 0.193446 0.776905 0.162563
H5    H     H_    0.521049 0.225434 0.717371 0.243688
H6    H     H_    0.490480 0.331869 0.723552 0.110463
H7    H     H_    0.481610 0.189047 0.790950 0.155658
H8    H     H_    0.330766 0.010933 0.704386 0.234765
H9    H     H_    0.324025 0.026147 0.781236 0.248363
H10   H     H_    0.496796 0.322140 0.799778 0.165406
H11   H     H_    0.704052 0.173516 0.806437 0.102271
H12   H     H_    0.929126 0.337814 0.784332 0.125899
H13   H     H_    0.018611 0.286848 0.779811 0.181071
H14   H     H_    0.673630 0.044706 0.782994 0.219530
H15   H     H_    0.182593 0.500357 0.207175 0.209345
H16   H     H_    0.206709 0.530624 0.284578 0.146758
H17   H     H_    0.514941 0.696578 0.285430 0.171539
H18   H     H_    0.399079 0.565083 0.285983 0.133223
H19   H     H_    0.504547 0.678857 0.208653 0.148684
H20   H     H_    0.327309 0.828683 0.278400 0.101324
H21   H     H_    0.324125 0.802617 0.202220 0.106494
H22   H     H_    0.176491 0.640122 0.284742 0.124106
H23   H     H_    0.164945 0.616684 0.207899 0.123681
H24   H     H_    0.462415 0.825119 0.202268 0.192073
H25   H     H_    0.130316 0.125881 0.100475 0.141036
H26   H     H_    0.148253 0.096951 0.176786 0.110555
H27   H     H_    0.211908 0.986651 0.303256 0.107975
H28   H     H_    0.233457 0.965803 0.381439 0.135381
H29   H     H_    0.486145 0.307559 0.409101 0.132029
H30   H     H_    0.499406 0.706870 0.588908 0.152146
H31   H     H_    0.501964 0.249123 0.171710 0.164132
H32   H     H_    0.463244 0.326802 0.330664 0.117977
H33   H     H_    0.902771 0.365953 0.192454 0.132011
H34   H     H_    0.766368 0.282035 0.410226 0.137662
H35   H     H_    0.803839 0.994051 0.384224 0.151153
H36   H     H_    0.833675 0.041668 0.082261 0.147199
H37   H     H_    0.851186 0.031130 0.307489 0.136379
H38   H     H_    0.451160 0.584890 0.896405 0.164729
H39   H     H_    0.490030 0.660423 0.664929 0.112980
H40   H     H_    0.191416 0.008312 0.775950 0.129711
O1    O     O_R   0.494060 0.188820 0.559230 -0.484569
O2    O     O_R   0.480140 0.824500 0.445020 -0.479149
O3    O     O_R   0.308480 0.808690 0.440220 -0.513861
O4    O     O_R   0.340970 0.020670 0.455610 -0.502999
O5    O     O_3   0.500010 0.000010 0.499990 -0.268722
O6    O     O_R   0.969690 0.151000 0.934080 -0.521662
O7    O     O_R   0.187530 0.180840 0.938210 -0.500939
O8    O     O_R   0.358160 0.327300 0.941250 -0.487147
O9    O     O_R   0.323950 0.507710 0.953980 -0.512395
O10   O     O_R   0.170530 0.527770 0.952070 -0.469616
O11   O     O_R   0.987720 0.318450 0.945940 -0.504988
O12   O     O_R   0.678470 0.153390 0.554100 -0.479445
O13   O     O_R   0.976400 0.159230 0.032040 -0.536717
O14   O     O_R   0.193740 0.188470 0.029020 -0.524922
O15   O     O_R   0.364860 0.335530 0.039220 -0.416352
O16   O     O_R   0.330170 0.515340 0.044800 -0.480568
O17   O     O_R   0.177230 0.536000 0.050040 -0.488521
O18   O     O_R   0.993930 0.326080 0.036750 -0.447987
O19   O     O_3   0.169480 0.339450 0.991460 -0.278321
O20   O     O_R   0.697870 0.003940 0.549410 -0.494152
O21   O     O_R   0.480980 0.827230 0.535590 -0.512488
O22   O     O_R   0.309390 0.811640 0.537920 -0.467518
O23   O     O_R   0.341810 0.023400 0.546180 -0.518174
O24   O     O_R   0.493150 0.185870 0.461540 -0.522164
O25   O     O_R   0.677630 0.150660 0.463530 -0.509598
O26   O     O_R   0.696960 0.000990 0.451710 -0.496571
O27   O     O_3   0.160575 0.653243 0.897859 -0.516886
C91   C     C_3   0.067038 0.563512 0.873005 -0.079532
H41   H     H_    0.066036 0.571055 0.836635 0.174627
H42   H     H_    0.991103 0.560939 0.886349 0.131044
H43   H     H_    0.062831 0.484271 0.876464 0.138517
S1    S     S_3+6 0.318156 0.378988 0.794798 -0.060717
O28   O     O_2   0.222681 0.389717 0.813642 -0.324338
O29   O     O_2   0.403510 0.413803 0.832961 -0.306250
O30   O     O_3   0.373082 0.465132 0.756611 -0.546693
H44   H     H_    0.448138 0.474417 0.752986 0.359061
S2    S     S_3+6 0.265231 0.812944 0.831425 0.059911
O31   O     O_2   0.291033 0.893258 0.873798 -0.290753
O32   O     O_2   0.336444 0.873046 0.795803 -0.230884
O33   O     O_3   0.130824 0.759132 0.814603 -0.439144
H45   H     H_    0.095169 0.773847 0.841316 0.347178
O34   O     O_3   0.720988 0.253256 0.726991 -0.488019
C92   C     C_3   0.715517 0.318481 0.765969 -0.067605
H46   H     H_    0.792835 0.361347 0.787544 0.126851
H47   H     H_    0.648272 0.272830 0.786487 0.075831
H48   H     H_    0.701483 0.382906 0.755059 0.156706
O35   O     O_3   0.004153 0.237909 0.694678 -0.516598
C93   C     C_3   0.111840 0.325187 0.708202 -0.003535
H49   H     H_    0.116340 0.400942 0.725659 0.141612
H50   H     H_    0.163285 0.343279 0.678713 0.160633
H51   H     H_    0.146101 0.299215 0.732971 0.169053
S3    S     S_3+6 0.922735 0.371118 0.692794 0.052249
O36   O     O_2   0.937585 0.457829 0.731165 -0.273159
O37   O     O_2   0.017808 0.420020 0.663147 -0.263941
O38   O     O_3   0.809620 0.340450 0.660331 -0.472780
H52   H     H_    0.819599 0.411992 0.654655 0.383987
O39   O     O_3   0.704794 0.946213 0.712264 -0.546513
C94   C     C_3   0.685730 0.837508 0.709067 0.036076
H53   H     H_    0.607335 0.788902 0.724780 0.147994
H54   H     H_    0.748832 0.828750 0.727406 0.183205
H55   H     H_    0.676003 0.801240 0.673168 0.166795
S4    S     S_3+6 0.888475 0.988100 0.669225 0.002611
O40   O     O_2   0.824803 0.958781 0.624604 -0.293328
O41   O     O_2   0.005696 0.072192 0.663980 -0.268160
O42   O     O_3   0.892304 0.874659 0.677662 -0.599854
H56   H     H_    0.929789 0.859083 0.651802 0.378051
O43   O     O_3   0.796498 0.967147 0.788087 -0.590171
C95   C     C_3   0.835870 0.965305 0.831266 -0.108679
H57   H     H_    0.778445 0.968767 0.856542 0.144073
H58   H     H_    0.921390 0.031252 0.842189 0.162080
H59   H     H_    0.834718 0.886420 0.831102 0.104457
S5    S     S_3+6 0.162661 0.700676 0.699349 0.105859
O44   O     O_2   0.188949 0.814117 0.719335 -0.259494
O45   O     O_2   0.055100 0.647477 0.671134 -0.190970
O46   O     O_3   0.146867 0.629502 0.741775 -0.424049
H60   H     H_    0.156597 0.567604 0.728411 0.331276
S6    S     S_3+6 0.569652 0.051239 0.705658 0.007571
O47   O     O_2   0.493576 0.036000 0.743028 -0.298996
O48   O     O_2   0.542315 0.101065 0.669961 -0.334014
O49   O     O_3   0.538603 0.926048 0.680167 -0.480711
H61   H     H_    0.562205 0.935397 0.649075 0.347565
O50   O     O_3   0.978514 0.090363 0.767731 -0.590688
C96   C     C_3   0.999069 0.001127 0.764356 -0.057648
H62   H     H_    0.925518 0.918539 0.757824 0.194522
H63   H     H_    0.041217 0.006204 0.796478 0.089365
H64   H     H_    0.054177 0.007990 0.736787 0.176157
S7    S     S_3+6 0.395543 0.485639 0.199238 -0.018926
O51   O     O_2   0.397439 0.469075 0.148825 -0.228626
O52   O     O_2   0.486037 0.471142 0.218955 -0.304629
O53   O     O_3   0.272571 0.389893 0.214111 -0.547561
H65   H     H_    0.287511 0.377491 0.244394 0.339396
O54   O     O_3   0.188607 0.742231 0.603130 -0.512403
C97   C     C_3   0.206577 0.849705 0.616253 -0.031827
H66   H     H_    0.294563 0.912070 0.626757 0.113522
H67   H     H_    0.152136 0.849911 0.643334 0.166579
H68   H     H_    0.180763 0.875262 0.587309 0.157734
S8    S     S_3+6 0.522502 0.916651 0.288666 -0.033046
O55   O     O_2   0.613258 0.891333 0.275847 -0.280509
O56   O     O_2   0.539571 0.013434 0.267238 -0.308048
O57   O     O_3   0.530613 0.950202 0.344916 -0.514644
H69   H     H_    0.479895 0.980562 0.350522 0.334630
S9    S     S_3+6 0.535258 0.293430 0.081108 0.012634
O58   O     O_2   0.583277 0.415558 0.086102 -0.249283
O59   O     O_2   0.618260 0.268101 0.100490 -0.336474
O60   O     O_3   0.506599 0.240246 0.026183 -0.518554
H70   H     H_    0.577624 0.279631 0.012008 0.360768
O61   O     O_3   0.966200 0.413407 0.112734 -0.557774
C98   C     C_3   0.886970 0.444180 0.103138 -0.055830
H71   H     H_    0.839384 0.445986 0.132971 0.153428
H72   H     H_    0.829839 0.389039 0.073699 0.166150
H73   H     H_    0.930940 0.528195 0.094194 0.138329
O62   O     O_3   0.808681 0.334435 0.328531 -0.576879
C99   C     C_3   0.698472 0.312797 0.322689 -0.103742
H74   H     H_    0.660238 0.310391 0.355508 0.115732
H75   H     H_    0.646959 0.235209 0.299428 0.177099
H76   H     H_    0.699063 0.380144 0.307311 0.149497
O63   O     O_3   0.776993 0.997855 0.163998 -0.529981
C100  C     C_3   0.862904 0.973705 0.170321 -0.105146
H77   H     H_    0.928287 0.036584 0.195850 0.103749
H78   H     H_    0.899995 0.965500 0.138034 0.105782
H79   H     H_    0.827520 0.894031 0.183122 0.163429
O64   O     O_3   0.525480 0.654074 0.816536 -0.528366
C101  C     C_3   0.617217 0.679480 0.845515 -0.108966
H80   H     H_    0.602685 0.607229 0.861197 0.147379
H81   H     H_    0.638904 0.751929 0.871553 0.095892
H82   H     H_    0.689705 0.699657 0.824974 0.136431

loop_
_geom_bond_atom_site_label_1
_geom_bond_atom_site_label_2
_ccdc_geom_bond_type
C44   C49   S    
C15   C18   S    
C40   H22   S    
O30   H44   S    
C89   H39   S    
C2    C89   A    
C41   C42   S    
C14   C18   S    
C94   H54   S    
C35   C36   S    
Cr5   O9    S    
C27   O34   S    
C57   C66   S    
O43   C95   S    
C101  H82   S    
Cr2   O2    S    
C86   O11   A    
O34   C92   S    
C53   C59   A    
S7    O53   S    
O50   C96   S    
C7    C8    A    
C40   H16   S    
C73   O62   S    
S6    O47   D    
O57   H69   S    
Cr4   O13   S    
C40   C46   S    
C18   C25   S    
S9    O60   S    
C58   H27   S    
C62   C63   A    
C22   H5    S    
C32   H14   S    
S3    O38   S    
C5    C6    A    
C43   C88   S    
C29   H13   S    
C91   H41   S    
C28   O35   S    
C36   S4    S    
C97   H68   S    
C2    C3    A    
C85   O10   A    
C28   S3    S    
C3    S5    S    
O63   C100  S    
C56   O4    A    
S1    O29   D    
S2    O33   S    
Cr6   O19   S    
C84   O8    A    
O61   C98   S    
C29   C33   S    
C45   O3    A    
C98   H71   S    
C3    C4    A    
S3    O37   D    
O60   H70   S    
C73   C74   A    
C23   C26   S    
Cr3   O23   S    
C36   O39   S    
Cr1   O12   S    
C100  H78   S    
Cr1   O1    S    
Cr5   O15   S    
S1    O30   S    
Cr6   O18   S    
C20   C24   S    
C98   H72   S    
C8    C9    A    
C87   O14   A    
C23   O23   A    
C49   S8    S    
C29   H12   S    
O33   H45   S    
S4    O40   D    
C12   O21   A    
C30   C86   S    
C75   C80   A    
C41   H18   S    
C21   H10   S    
C72   C73   A    
C92   H48   S    
C34   O25   A    
C77   C79   A    
C94   H53   S    
Cr5   O8    S    
C87   O15   A    
C21   C22   S    
C92   H47   S    
C91   H42   S    
C88   O16   A    
C69   C70   A    
C67   C78   A    
C31   C38   S    
C90   O13   A    
C2    C11   S    
C91   H43   S    
C76   C83   A    
O54   C97   S    
C12   C67   S    
C81   C82   T    
C47   C50   S    
S6    O48   D    
C78   C89   A    
C79   O63   S    
C54   H29   S    
S9    O59   D    
C99   H75   S    
C17   C24   T    
C48   H21   S    
C27   C31   S    
O38   H52   S    
Cr4   O6    S    
C76   O61   S    
O49   H61   S    
C7    H38   S    
C48   H24   S    
S5    O44   D    
C96   H62   S    
Cr4   O19   S    
C16   H4    S    
C94   H55   S    
C100  H79   S    
C101  H81   S    
C25   C26   T    
C53   C54   A    
C32   H11   S    
C33   C37   S    
S7    O51   D    
C79   C80   A    
C30   C37   T    
C60   C61   A    
C77   H36   S    
C1    O20   A    
C75   C76   A    
O35   C93   S    
C5    C9    A    
C97   H66   S    
Cr3   O3    S    
Cr2   O21   S    
C96   H63   S    
C14   H8    S    
C47   C48   S    
C95   H59   S    
C7    C13   A    
C16   C20   S    
C6    O27   S    
C20   C21   S    
S4    O42   S    
S7    O52   D    
C99   H74   S    
C69   C74   A    
Cr2   O20   S    
C46   C47   S    
C95   H57   S    
C60   H26   S    
Cr2   O5    S    
S8    O56   D    
C34   C69   S    
Cr1   O24   S    
C70   C71   A    
S2    O32   D    
C19   H9    S    
C44   C51   S    
S1    O28   D    
C95   H58   S    
O53   H65   S    
C55   C57   A    
C41   C44   S    
C90   O18   A    
C65   C66   T    
Cr4   O7    S    
C15   H2    S    
C101  H80   S    
C78   H30   S    
C35   O50   S    
Cr3   O5    S    
O62   C99   S    
C86   O6    A    
C14   H1    S    
C27   S6    S    
C84   O7    A    
C53   C56   S    
Cr2   O26   S    
C59   H28   S    
C83   C90   S    
S6    O49   S    
S9    O58   D    
C28   C29   S    
C99   H76   S    
C32   C33   S    
C27   C32   S    
C18   C22   S    
C5    S2    S    
C14   C19   S    
C23   O1    A    
C28   C31   S    
Cr1   O25   S    
C61   H25   S    
C41   H17   S    
C80   C81   S    
C34   O26   A    
C4    C67   A    
C62   S9    S    
C71   H37   S    
C54   C55   A    
S4    O41   D    
C93   H51   S    
C43   C50   T    
Cr6   O17   S    
Cr1   O5    S    
C92   H46   S    
Cr4   O14   S    
Cr6   O10   S    
C19   C20   S    
C45   C52   S    
O42   H56   S    
C62   C68   A    
C42   S7    S    
C60   C64   A    
C17   C84   S    
C88   O17   A    
C100  H77   S    
C74   H34   S    
O64   C101  S    
C58   C59   A    
C51   C52   T    
C97   H67   S    
C98   H73   S    
C64   C65   S    
C96   H64   S    
C15   H3    S    
C61   C68   A    
C35   O43   S    
C57   C58   A    
C38   C39   T    
C22   H6    S    
C16   S1    S    
S5    O46   S    
C48   C49   S    
C85   O9    A    
Cr6   O11   S    
O46   H60   S    
C70   H35   S    
C33   C35   S    
C93   H50   S    
C46   H23   S    
C9    C10   S    
Cr5   O19   S    
C42   C47   S    
C4    O54   S    
C45   O2    A    
C8    O64   S    
Cr3   O22   S    
S8    O57   S    
C63   H31   S    
O27   C91   S    
C10   C11   T    
C1    C39   S    
S2    O31   D    
C63   C64   A    
C21   H7    S    
C19   H40   S    
C75   H33   S    
C42   H19   S    
C40   C44   S    
C49   H20   S    
C71   C72   A    
C55   H32   S    
S5    O45   D    
O39   C94   S    
C13   C85   S    
Cr3   O4    S    
C68   C87   S    
C77   C83   A    
C31   C36   S    
S3    O36   D    
C1    O12   A    
C93   H49   S    
Cr5   O16   S    
C12   O22   A    
C46   H15   S    
C72   C82   S    
C15   C16   S    
S8    O55   D    
C6    C13   A    
C56   O24   A    
