data_mof_unit_11027.cif
_audit_creation_date              2013-03-05T15:50:12-0500
_audit_creation_method            fapswitch 2.2
_symmetry_space_group_name_H-M    P1
_symmetry_Int_Tables_number       1
_space_group_crystal_system       triclinic
_cell_length_a                    18.695447
_cell_length_b                    25.936324
_cell_length_c                    17.957377
_cell_angle_alpha                 90.216983
_cell_angle_beta                  90.111746
_cell_angle_gamma                 89.905218
_cell_volume                      8707.28274796

loop_
_atom_site_label
_atom_site_type_symbol
_atom_site_description
_atom_site_fract_x
_atom_site_fract_y
_atom_site_fract_z
_atom_type_partial_charge
Zn1   Zn    Zn3+2 0.249990 0.293780 0.913250 1.036965
Zn2   Zn    Zn3+2 0.249990 0.706220 0.086750 1.036794
Zn3   Zn    Zn3+2 0.249990 0.706220 0.913250 1.028878
Zn4   Zn    Zn3+2 0.249990 0.293780 0.086750 1.039203
Zn5   Zn    Zn3+2 0.749990 0.793780 0.413250 1.037001
Zn6   Zn    Zn3+2 0.749990 0.206220 0.586750 1.039117
Zn7   Zn    Zn3+2 0.749990 0.206220 0.413250 1.040303
Zn8   Zn    Zn3+2 0.749990 0.793780 0.586750 1.041867
Zn9   Zn    Zn3+2 0.336760 0.206240 0.000000 1.085152
Zn10  Zn    Zn3+2 0.336760 0.793760 0.000000 1.060631
Zn11  Zn    Zn3+2 0.836760 0.706240 0.500000 1.071886
Zn12  Zn    Zn3+2 0.836760 0.293760 0.500000 1.068702
Zn13  Zn    Zn3+2 0.163250 0.206230 0.000000 1.037415
Zn14  Zn    Zn3+2 0.163250 0.793770 0.000000 1.032643
Zn15  Zn    Zn3+2 0.663250 0.706230 0.500000 1.036185
Zn16  Zn    Zn3+2 0.663250 0.293770 0.500000 1.033610
O1    O     O_3   0.249990 0.250010 0.000000 -0.515512
O2    O     O_3   0.249990 0.749990 0.000000 -0.514884
O3    O     O_3   0.749990 0.750010 0.500000 -0.515489
O4    O     O_3   0.749990 0.249990 0.500000 -0.516355
O5    O     O_R   0.335430 0.280650 0.146160 -0.628387
O6    O     O_R   0.335430 0.719350 0.853840 -0.609407
O7    O     O_R   0.335430 0.719350 0.146160 -0.623272
O8    O     O_R   0.335430 0.280650 0.853840 -0.621292
O9    O     O_R   0.835430 0.780650 0.646160 -0.612470
O10   O     O_R   0.835430 0.219350 0.353840 -0.620229
O11   O     O_R   0.835430 0.219350 0.646160 -0.615704
O12   O     O_R   0.835430 0.780650 0.353840 -0.627679
O13   O     O_R   0.164550 0.280640 0.853840 -0.621869
O14   O     O_R   0.164550 0.719360 0.146160 -0.635949
O15   O     O_R   0.164550 0.719360 0.853840 -0.635489
O16   O     O_R   0.164550 0.280640 0.146160 -0.648640
O17   O     O_R   0.664550 0.780640 0.353840 -0.642791
O18   O     O_R   0.664550 0.219360 0.646160 -0.628300
O19   O     O_R   0.664550 0.219360 0.353840 -0.632938
O20   O     O_R   0.664550 0.780640 0.646160 -0.615642
O21   O     O_R   0.396160 0.219380 0.914560 -0.579455
O22   O     O_R   0.396160 0.780620 0.085440 -0.608751
O23   O     O_R   0.396160 0.780620 0.914560 -0.615283
O24   O     O_R   0.396160 0.219380 0.085440 -0.600970
O25   O     O_R   0.896160 0.719380 0.414560 -0.588962
O26   O     O_R   0.896160 0.280620 0.585440 -0.591961
O27   O     O_R   0.896160 0.280620 0.414560 -0.627094
O28   O     O_R   0.896160 0.719380 0.585440 -0.614263
O29   O     O_R   0.103840 0.219370 0.085450 -0.618225
O30   O     O_R   0.103840 0.780630 0.914550 -0.620409
O31   O     O_R   0.103840 0.780630 0.085450 -0.611438
O32   O     O_R   0.103840 0.219370 0.914550 -0.614287
O33   O     O_R   0.603840 0.719370 0.585450 -0.617435
O34   O     O_R   0.603840 0.280630 0.414550 -0.610749
O35   O     O_R   0.603840 0.280630 0.585450 -0.621310
O36   O     O_R   0.603840 0.719370 0.414550 -0.619933
O37   O     O_R   0.310730 0.133160 0.000000 -0.596102
O38   O     O_R   0.310730 0.866840 0.000000 -0.597109
O39   O     O_R   0.810730 0.633160 0.500000 -0.592631
O40   O     O_R   0.810730 0.366840 0.500000 -0.601103
O41   O     O_R   0.249970 0.366860 0.060720 -0.616216
O42   O     O_R   0.249970 0.633140 0.939280 -0.632382
O43   O     O_R   0.249970 0.633140 0.060720 -0.628915
O44   O     O_R   0.249970 0.366860 0.939280 -0.635733
O45   O     O_R   0.749970 0.866860 0.560720 -0.635471
O46   O     O_R   0.749970 0.133140 0.439280 -0.626210
O47   O     O_R   0.749970 0.133140 0.560720 -0.634790
O48   O     O_R   0.749970 0.866860 0.439280 -0.613369
O49   O     O_R   0.189290 0.133150 0.000000 -0.620518
O50   O     O_R   0.189290 0.866850 0.000000 -0.631739
O51   O     O_R   0.689290 0.633150 0.500000 -0.623491
O52   O     O_R   0.689290 0.366850 0.500000 -0.630117
C1    C     C_R   0.387998 0.249567 0.142758 0.853650
C2    C     C_R   0.387727 0.751147 0.857322 0.844526
C3    C     C_R   0.385624 0.753061 0.145406 0.845793
C4    C     C_R   0.389900 0.250482 0.859740 0.865585
C5    C     C_R   0.888876 0.750549 0.642121 0.835203
C6    C     C_R   0.885369 0.253208 0.355001 0.836579
C7    C     C_R   0.887186 0.250627 0.643371 0.863820
C8    C     C_R   0.887984 0.749558 0.356932 0.841759
C9    C     C_R   0.111681 0.250516 0.858015 0.819205
C10   C     C_R   0.110575 0.748983 0.140914 0.813687
C11   C     C_R   0.110429 0.748755 0.859679 0.813361
C12   C     C_R   0.112424 0.248241 0.143930 0.832549
C13   C     C_R   0.613634 0.746730 0.355332 0.827403
C14   C     C_R   0.611493 0.250463 0.641171 0.818968
C15   C     C_R   0.610883 0.249510 0.358651 0.815126
C16   C     C_R   0.612602 0.749151 0.642523 0.828122
C17   C     C_R   0.250216 0.109867 0.988297 0.876096
C18   C     C_R   0.248586 0.891506 0.002845 0.887333
C19   C     C_R   0.750298 0.609112 0.502688 0.896647
C20   C     C_R   0.749119 0.390681 0.503759 0.891339
C21   C     C_R   0.249852 0.391642 0.000427 0.829593
C22   C     C_R   0.252243 0.608505 0.000483 0.823778
C23   C     C_R   0.751703 0.891568 0.500265 0.831395
C24   C     C_R   0.750405 0.108428 0.499667 0.828211
C25   C     C_3   0.176091 0.471594 0.009444 -0.374841
C26   C     C_3   0.274116 0.528933 0.924971 -0.368161
C27   C     C_3   0.179827 0.530391 0.023430 -0.385482
C28   C     C_3   0.284919 0.470291 0.928962 -0.412845
C29   C     C_3   0.746979 0.971228 0.580792 -0.376605
C30   C     C_3   0.681970 0.029060 0.467355 -0.371324
C31   C     C_3   0.760525 0.029818 0.579514 -0.389906
C32   C     C_3   0.689428 0.970128 0.455567 -0.366808
H1    H     H_    0.144716 0.452751 0.054137 0.223363
H2    H     H_    0.322888 0.546691 0.902005 0.235921
H3    H     H_    0.168772 0.538860 0.082906 0.246904
H4    H     H_    0.342801 0.460769 0.925269 0.243526
H5    H     H_    0.783724 0.952677 0.621318 0.244485
H6    H     H_    0.666055 0.047903 0.414604 0.242754
H7    H     H_    0.814639 0.038526 0.601839 0.242652
H8    H     H_    0.695978 0.961229 0.395353 0.249332
H9    H     H_    0.146189 0.464092 0.956827 0.230694
H10   H     H_    0.230109 0.537706 0.885021 0.236101
H11   H     H_    0.137693 0.549857 0.989801 0.226329
H12   H     H_    0.258355 0.452593 0.879627 0.227938
H13   H     H_    0.691968 0.963668 0.601799 0.218844
H14   H     H_    0.637905 0.037013 0.507441 0.241274
H15   H     H_    0.721038 0.048489 0.617360 0.226266
H16   H     H_    0.639153 0.951088 0.473919 0.216542
C33   C     C_3   0.299866 0.469596 0.070751 0.233406
C34   C     C_3   0.311828 0.530154 0.062447 0.193645
C35   C     C_3   0.827407 0.970452 0.466567 0.189664
C36   C     C_3   0.816807 0.029739 0.447711 0.211802
C37   C     C_3   0.253200 0.449318 0.002802 -0.036817
C38   C     C_3   0.255197 0.551056 0.003384 -0.033815
C39   C     C_3   0.754815 0.949146 0.500298 -0.028596
C40   C     C_3   0.753465 0.050916 0.498315 -0.041418
C41   C     C_R   0.981792 0.307099 0.888166 -0.290096
C42   C     C_R   0.045472 0.651018 0.186942 -0.301340
C43   C     C_R   0.041434 0.653026 0.820358 -0.302278
C44   C     C_R   0.109401 0.320626 0.278126 -0.257640
C45   C     C_R   0.607113 0.820450 0.227997 -0.235280
C46   C     C_R   0.527015 0.161931 0.663383 -0.311683
C47   C     C_R   0.537347 0.153490 0.325354 -0.302950
C48   C     C_R   0.490098 0.813114 0.618421 -0.303256
C49   C     C_R   0.916439 0.328775 0.907902 0.382760
C50   C     C_R   0.006705 0.605802 0.197018 0.365546
C51   C     C_R   0.010553 0.606338 0.801529 0.379863
C52   C     C_R   0.098281 0.365147 0.320817 0.358542
C53   C     C_R   0.589321 0.871625 0.212727 0.329265
C54   C     C_R   0.480884 0.120259 0.664154 0.357426
C55   C     C_R   0.498519 0.108237 0.316301 0.388569
C56   C     C_R   0.435618 0.848791 0.608683 0.366757
C57   C     C_R   0.517579 0.886832 0.218615 0.326644
C58   C     C_R   0.416362 0.123955 0.702217 0.411088
C59   C     C_R   0.437135 0.107627 0.272147 0.383841
C60   C     C_R   0.391105 0.861419 0.668423 0.377395
C61   C     C_R   0.854909 0.316111 0.867475 0.371944
C62   C     C_R   0.939446 0.607495 0.230359 0.416899
C63   C     C_R   0.951954 0.605158 0.753754 0.363512
C64   C     C_R   0.028911 0.380860 0.337876 0.350897
C65   C     C_R   0.464166 0.848685 0.224911 0.152142
C66   C     C_R   0.400220 0.169024 0.743268 0.064383
C67   C     C_R   0.414288 0.152905 0.236194 0.008362
C68   C     C_R   0.397858 0.834897 0.736798 0.024282
C69   C     C_R   0.859805 0.282456 0.805871 0.053369
C70   C     C_R   0.913401 0.654360 0.259408 0.070000
C71   C     C_R   0.923332 0.651688 0.725814 0.042057
C72   C     C_R   0.971314 0.348505 0.320337 0.093067
C73   C     C_R   0.483890 0.796457 0.218283 -0.077333
C74   C     C_R   0.452375 0.209207 0.751757 -0.031152
C75   C     C_R   0.456177 0.198934 0.241340 -0.020277
C76   C     C_R   0.444561 0.791202 0.742001 -0.032790
C77   C     C_R   0.928278 0.269449 0.776190 -0.024864
C78   C     C_R   0.957155 0.699222 0.258603 -0.029945
C79   C     C_R   0.959448 0.699834 0.737993 -0.021825
C80   C     C_R   0.984126 0.298967 0.288741 -0.044963
C81   C     C_R   0.988722 0.277415 0.822664 -0.001663
C82   C     C_R   0.021072 0.698802 0.215663 -0.001244
C83   C     C_R   0.019252 0.699692 0.786896 -0.008598
C84   C     C_R   0.051620 0.288733 0.256519 -0.006447
C85   C     C_R   0.552956 0.784391 0.243008 -0.028376
C86   C     C_R   0.513563 0.207197 0.705926 -0.003218
C87   C     C_R   0.517632 0.199495 0.288536 0.006049
C88   C     C_R   0.496832 0.785350 0.685401 0.001272
C89   C     C_R   0.432547 0.757314 0.213539 -0.068297
C90   C     C_R   0.446165 0.250958 0.803357 -0.043394
C91   C     C_R   0.434148 0.246282 0.209446 -0.051577
C92   C     C_R   0.441181 0.751378 0.797477 -0.037896
C93   C     C_R   0.939449 0.246201 0.704854 -0.031263
C94   C     C_R   0.933729 0.746526 0.289181 -0.052756
C95   C     C_R   0.936265 0.748478 0.708040 -0.043192
C96   C     C_R   0.931530 0.259945 0.287716 -0.062965
C97   C     C_R   0.438260 0.716120 0.264892 -0.076769
C98   C     C_R   0.496441 0.292236 0.803769 -0.068255
C99   C     C_R   0.462545 0.292500 0.238023 -0.109507
C100  C     C_R   0.495037 0.712685 0.798418 -0.077191
C101  C     C_R   0.005968 0.223519 0.688701 -0.089599
C102  C     C_R   0.960270 0.792417 0.257832 -0.113113
C103  C     C_R   0.969044 0.795382 0.733551 -0.087479
C104  C     C_R   0.936832 0.219832 0.233936 -0.071407
C105  C     C_R   0.066375 0.240088 0.727410 -0.042058
C106  C     C_R   0.030200 0.792923 0.230808 -0.053892
C107  C     C_R   0.037979 0.791346 0.763212 -0.052893
C108  C     C_R   0.004821 0.207883 0.204585 -0.052019
C109  C     C_R   0.506701 0.703770 0.294096 -0.044337
C110  C     C_R   0.549268 0.295079 0.747132 -0.033365
C111  C     C_R   0.531999 0.292552 0.265890 -0.045643
C112  C     C_R   0.560143 0.724202 0.764710 -0.046247
C113  C     C_R   0.056066 0.257937 0.801164 -0.019967
C114  C     C_R   0.056992 0.746428 0.200608 -0.018986
C115  C     C_R   0.056684 0.746059 0.800656 -0.017946
C116  C     C_R   0.059408 0.246097 0.206625 -0.057275
C117  C     C_R   0.562141 0.741700 0.291221 -0.056256
C118  C     C_R   0.558534 0.250980 0.700219 -0.019043
C119  C     C_R   0.556167 0.246599 0.299993 -0.018186
C120  C     C_R   0.557041 0.753811 0.699089 -0.014108
C121  C     C_R   0.377817 0.690060 0.294198 0.127194
C122  C     C_R   0.495630 0.331400 0.859547 0.036399
C123  C     C_R   0.422228 0.337795 0.248343 0.142040
C124  C     C_R   0.488234 0.663085 0.830277 0.061595
C125  C     C_R   0.014070 0.181766 0.639249 0.056881
C126  C     C_R   0.917436 0.835279 0.238992 0.146445
C127  C     C_R   0.939333 0.846316 0.730275 0.118102
C128  C     C_R   0.876920 0.192075 0.206074 0.129437
C129  C     C_R   0.387332 0.644679 0.335584 0.316883
C130  C     C_R   0.525086 0.379655 0.844345 0.354077
C131  C     C_R   0.457945 0.385213 0.253446 0.318964
C132  C     C_R   0.550479 0.636065 0.851438 0.329292
C133  C     C_R   0.081730 0.171347 0.608825 0.346175
C134  C     C_R   0.950999 0.882838 0.225211 0.326542
C135  C     C_R   0.985403 0.889536 0.734740 0.301359
C136  C     C_R   0.887081 0.146187 0.165452 0.312865
C137  C     C_R   0.139911 0.202984 0.628403 0.118170
C138  C     C_R   0.025118 0.886789 0.235670 0.120129
C139  C     C_R   0.059549 0.882310 0.739536 0.132137
C140  C     C_R   0.956358 0.127791 0.152467 0.118821
C141  C     C_R   0.456247 0.624965 0.347133 0.121583
C142  C     C_R   0.571671 0.385293 0.784370 0.144934
C143  C     C_R   0.532599 0.386016 0.247126 0.138282
C144  C     C_R   0.617757 0.658843 0.841501 0.131985
C145  C     C_R   0.132804 0.237503 0.689277 0.087511
C146  C     C_R   0.066264 0.841231 0.230206 0.076097
C147  C     C_R   0.086126 0.832823 0.754298 0.042621
C148  C     C_R   0.015354 0.157839 0.174144 0.097072
C149  C     C_R   0.516202 0.654177 0.325896 0.096055
C150  C     C_R   0.591633 0.341446 0.742501 0.047862
C151  C     C_R   0.570572 0.339771 0.261040 0.075386
C152  C     C_R   0.623059 0.702926 0.796254 0.059117
H17   H     H_    0.027916 0.315912 0.922495 0.170903
H18   H     H_    0.094330 0.647360 0.155780 0.212544
H19   H     H_    0.084144 0.651368 0.860681 0.196852
H20   H     H_    0.163828 0.309826 0.266524 0.231701
H21   H     H_    0.662541 0.809644 0.231407 0.232924
H22   H     H_    0.573621 0.157613 0.628571 0.193194
H23   H     H_    0.582106 0.151749 0.363207 0.194317
H24   H     H_    0.527223 0.807593 0.572903 0.175851
H25   H     H_    0.024595 0.037721 0.864056 0.215733
H26   H     H_    0.002475 0.959319 0.931430 0.210056
H27   H     H_    0.520209 0.542187 0.616005 0.198356
H28   H     H_    0.499894 0.462401 0.548925 0.199305
C153  C     C_R   0.384166 0.044180 0.961773 0.458267
C154  C     C_R   0.367608 0.958878 0.053037 0.448811
C155  C     C_R   0.884868 0.541621 0.491076 0.452718
C156  C     C_R   0.871052 0.450558 0.571218 0.455901
C157  C     C_R   0.444080 0.020654 0.993306 -0.216371
C158  C     C_R   0.435352 0.980024 0.042473 -0.173960
C159  C     C_R   0.945249 0.517495 0.520904 -0.159741
C160  C     C_R   0.937698 0.474145 0.565181 -0.137369
C161  C     C_R   0.308166 0.977314 0.012471 -0.067282
C162  C     C_R   0.314505 0.025799 0.978817 -0.050283
C163  C     C_R   0.810863 0.472339 0.534045 -0.057359
C164  C     C_R   0.815323 0.523486 0.510306 -0.046941
C165  C     C_R   0.243481 0.949209 0.004982 -0.085759
C166  C     C_R   0.251497 0.054281 0.966027 -0.084312
C167  C     C_R   0.746169 0.446158 0.517875 -0.100490
C168  C     C_R   0.750877 0.553268 0.515063 -0.102255
C169  C     C_R   0.179742 0.975832 0.979973 -0.007872
C170  C     C_R   0.187058 0.027136 0.952356 0.004439
C171  C     C_R   0.680520 0.475102 0.518134 -0.000817
C172  C     C_R   0.686471 0.527721 0.536913 0.005385
C173  C     C_R   0.108734 0.954344 0.978265 0.218080
C174  C     C_R   0.130784 0.048207 0.908106 0.198194
C175  C     C_R   0.609524 0.454342 0.513259 0.231665
C176  C     C_R   0.628889 0.550525 0.577776 0.220241
C177  C     C_R   0.055237 0.976410 0.934870 -0.173869
C178  C     C_R   0.066791 0.022077 0.898732 -0.134473
C179  C     C_R   0.553258 0.478616 0.549810 -0.181833
C180  C     C_R   0.563786 0.525232 0.584609 -0.158047
H29   H     H_    0.497287 0.034702 0.981162 0.216480
H30   H     H_    0.481321 0.964647 0.071583 0.225584
H31   H     H_    0.998307 0.531817 0.508670 0.225139
H32   H     H_    0.984140 0.457713 0.592364 0.215903
I1    I     I_    0.275421 0.726803 0.301257 -0.112799
I2    I     I_    0.480239 0.314787 0.975272 -0.171618
I3    I     I_    0.319515 0.330145 0.297050 -0.097544
I4    I     I_    0.395715 0.618409 0.805449 -0.200218
I5    I     I_    0.936126 0.122161 0.643115 -0.145534
I6    I     I_    0.812261 0.822917 0.197539 -0.121053
I7    I     I_    0.829901 0.862258 0.757102 -0.118953
I8    I     I_    0.774175 0.227178 0.198144 -0.093027
Cl1   Cl    Cl    0.092647 0.120101 0.544946 -0.412417
Cl2   Cl    Cl    0.902486 0.935754 0.189031 -0.404319
Cl3   Cl    Cl    0.950998 0.953118 0.738290 -0.520896
Cl4   Cl    Cl    0.812741 0.110973 0.131739 -0.416504
Cl5   Cl    Cl    0.312543 0.612036 0.372843 -0.417912
Cl6   Cl    Cl    0.507708 0.432284 0.904406 -0.441985
Cl7   Cl    Cl    0.411246 0.442344 0.275657 -0.424604
Cl8   Cl    Cl    0.545243 0.572832 0.886378 -0.414833
I9    I     I_    0.205454 0.301073 0.696271 -0.169396
I10   I     I_    0.179831 0.847162 0.226686 -0.142766
I11   I     I_    0.197258 0.817055 0.739879 -0.210442
I12   I     I_    0.116325 0.120463 0.183872 -0.150234
I13   I     I_    0.617819 0.616911 0.323114 -0.167506
I14   I     I_    0.693844 0.348576 0.689019 -0.166395
I15   I     I_    0.683511 0.343081 0.266496 -0.166430
I16   I     I_    0.718898 0.746404 0.799872 -0.187321
Cl9   Cl    Cl    0.399987 0.089695 0.891418 -0.540616
Cl10  Cl    Cl    0.355490 0.917486 0.128082 -0.535110
Cl11  Cl    Cl    0.901925 0.580652 0.413422 -0.496169
Cl12  Cl    Cl    0.863622 0.401264 0.638016 -0.529721
I17   I     I_    0.058925 0.904989 0.056177 -0.184994
I18   I     I_    0.138158 0.110697 0.834822 -0.212014
I19   I     I_    0.566730 0.407329 0.427853 -0.202228
I20   I     I_    0.636644 0.610225 0.656100 -0.258951
I21   I     I_    0.244441 0.449190 0.175204 -0.035996
I22   I     I_    0.417786 0.554027 0.026198 -0.126364
I23   I     I_    0.316566 0.568716 0.171470 -0.072411
I24   I     I_    0.399356 0.426856 0.079241 -0.146849
I25   I     I_    0.915565 0.954446 0.543011 -0.175608
I26   I     I_    0.792806 0.043792 0.329210 -0.059949
I27   I     I_    0.914411 0.074400 0.453289 -0.124034
I28   I     I_    0.870177 0.926874 0.375631 -0.165967
I29   I     I_    0.236759 0.197589 0.565533 -0.077377
I30   I     I_    0.072144 0.961133 0.252340 -0.017118
I31   I     I_    0.130137 0.946856 0.731002 -0.014374
I32   I     I_    0.971150 0.056867 0.093296 -0.066988
I33   I     I_    0.468434 0.552443 0.401666 -0.080227
I34   I     I_    0.616466 0.460101 0.763603 -0.033064
I35   I     I_    0.584947 0.457890 0.225702 0.003976
I36   I     I_    0.710756 0.622877 0.887919 -0.015369
Cl13  Cl    Cl    0.912584 0.368756 0.987266 -0.425898
Cl14  Cl    Cl    0.041467 0.547524 0.161878 -0.488613
Cl15  Cl    Cl    0.045446 0.549641 0.841600 -0.529064
Cl16  Cl    Cl    0.171522 0.402037 0.351381 -0.395530
Cl17  Cl    Cl    0.658177 0.917093 0.201218 -0.422116
Cl18  Cl    Cl    0.503757 0.064823 0.612072 -0.473963
Cl19  Cl    Cl    0.525043 0.053186 0.366271 -0.451023
Cl20  Cl    Cl    0.429376 0.880986 0.522699 -0.424888
Cl21  Cl    Cl    0.497386 0.952616 0.229850 -0.381364
Cl22  Cl    Cl    0.355516 0.071847 0.696047 -0.335635
Cl23  Cl    Cl    0.385912 0.050391 0.267347 -0.342644
Cl24  Cl    Cl    0.329617 0.912759 0.657486 -0.345660
Cl25  Cl    Cl    0.771028 0.339685 0.897663 -0.401950
Cl26  Cl    Cl    0.886361 0.551070 0.230460 -0.349862
Cl27  Cl    Cl    0.912740 0.544674 0.732903 -0.450916
Cl28  Cl    Cl    0.014831 0.441207 0.381417 -0.445278
I37   I     I_    0.374300 0.864757 0.294666 0.024049
I38   I     I_    0.291206 0.177103 0.773640 -0.181402
I39   I     I_    0.307148 0.150991 0.194352 -0.178311
I40   I     I_    0.359607 0.876618 0.831262 -0.178288
I41   I     I_    0.770332 0.231894 0.794251 -0.127744
I42   I     I_    0.801030 0.659135 0.279455 -0.166651
I43   I     I_    0.817440 0.645220 0.685418 -0.204126
I44   I     I_    0.866764 0.381355 0.323682 -0.096434

loop_
_geom_bond_atom_site_label_1
_geom_bond_atom_site_label_2
_geom_bond_distance
_ccdc_geom_bond_type
C34   I23   2.196774 S    
C153  C157  1.394822 A    
C22   C38   1.492058 S    
C174  C178  1.385631 A    
C164  C168  1.432638 A    
C41   H17   1.083219 S    
C167  C171  1.437661 A    
C47   C87   1.414295 A    
O26   C7    1.312525 A    
C161  C165  1.418954 A    
C25   C37   1.556793 S    
C163  C167  1.417078 A    
O30   C11   1.289764 A    
C30   H14   1.113549 S    
C111  C119  1.415033 A    
C109  C117  1.431331 A    
C108  C148  1.420030 A    
Zn12  O26   1.923393 S    
C73   C85   1.399925 A    
C74   C90   1.427251 A    
C131  Cl7   1.763370 S    
C132  Cl8   1.761094 S    
C69   I41   2.136619 S    
C98   C110  1.421259 A    
C112  C120  1.410011 A    
C63   C71   1.412766 A    
C63   Cl27  1.771114 S    
C72   I44   2.131809 S    
Zn3   O15   1.949386 S    
C29   H5    1.110246 S    
C136  Cl4   1.768904 S    
C59   C67   1.407611 A    
C54   Cl18  1.764710 S    
C122  C130  1.396285 A    
C110  C150  1.443826 A    
C61   Cl25  1.767635 S    
O34   C15   1.292458 A    
C133  C137  1.406867 A    
C50   C62   1.394309 A    
C80   C84   1.413521 A    
Zn1   O44   1.950493 S    
C25   H1    1.110308 S    
C14   C118  1.452154 S    
Zn2   O43   1.950493 S    
C128  C136  1.406395 A    
C35   I25   2.183214 S    
Zn5   O48   1.950493 S    
C69   C77   1.427048 A    
C106  C146  1.423887 A    
Zn6   O47   1.950493 S    
C102  C106  1.395530 A    
C82   C114  1.433818 A    
Zn7   O46   1.953931 S    
C57   Cl21  1.757799 S    
C155  C164  1.426871 A    
O16   C12   1.288302 A    
C62   C70   1.407452 A    
Zn16  O4    1.978123 S    
Zn12  O4    1.981514 S    
Zn1   O13   1.948897 S    
C76   C88   1.418901 A    
C127  I7    2.142003 S    
C26   C28   1.535902 S    
Zn4   O16   1.953715 S    
C75   C87   1.426430 A    
C103  C107  1.397454 A    
C134  Cl2   1.768823 S    
C26   C38   1.559550 S    
C27   C38   1.551866 S    
C174  I18   2.096501 S    
C103  C127  1.433591 A    
C28   H4    1.111611 S    
C126  I6    2.125513 S    
C101  C125  1.406032 A    
C49   C61   1.397996 A    
C77   C93   1.429310 A    
C46   C54   1.383988 A    
Zn6   O4    1.931034 S    
C91   C99   1.406583 A    
C105  C113  1.414781 A    
C92   C100  1.420536 A    
C43   C51   1.382909 A    
C35   C39   1.588169 S    
C30   H6    1.107528 S    
Zn10  O22   1.923393 S    
C125  C133  1.404290 A    
C24   C40   1.492752 S    
C53   Cl17  1.760222 S    
O25   C8    1.308446 A    
Zn13  O29   1.925041 S    
C104  C128  1.421599 A    
Zn10  O2    1.981514 S    
O29   C12   1.297334 A    
Zn15  O33   1.925041 S    
C7    C93   1.477587 S    
C86   C118  1.418185 A    
C123  I3    2.121532 S    
C94   C102  1.409934 A    
C45   C53   1.395881 A    
C42   C50   1.392210 A    
C107  C147  1.413565 A    
C122  I2    2.143964 S    
O37   C17   1.299784 A    
C10   C114  1.470359 S    
O48   C23   1.267140 A    
C16   C120  1.458802 S    
C2    C92   1.468967 S    
C77   C81   1.418429 A    
C146  I10   2.130092 S    
C99   C123  1.406617 A    
C97   C121  1.420648 A    
Zn16  O35   1.927747 S    
C153  C162  1.421892 A    
C90   C98   1.425816 A    
C33   I21   2.211106 S    
C30   C40   1.553794 S    
C132  C144  1.402514 A    
Zn7   O10   1.953671 S    
C21   C37   1.497758 S    
C28   C37   1.554135 S    
O33   C16   1.291362 A    
O9    C5    1.269032 A    
C49   Cl13  1.760844 S    
C157  C158  1.387366 A    
O40   C20   1.308152 A    
C161  C162  1.402559 A    
C34   C38   1.593057 S    
C139  I31   2.139543 S    
C55   C59   1.393678 A    
C48   H24   1.082287 S    
C66   C74   1.435892 A    
C172  C176  1.429978 A    
Zn5   O17   1.948897 S    
C108  C116  1.424114 A    
C25   C27   1.546242 S    
C23   C39   1.494579 S    
C162  C166  1.408329 A    
C27   H3    1.109314 S    
C32   H8    1.111757 S    
Zn8   O3    1.924085 S    
C141  I33   2.135531 S    
C52   Cl16  1.757562 S    
H28   C179  1.083394 S    
O38   C18   1.326360 A    
C142  I34   2.148749 S    
C74   C86   1.411307 A    
C153  Cl9   1.758139 S    
C71   C79   1.436383 A    
C85   C117  1.418135 A    
O5    C1    1.271510 A    
H25   C178  1.083358 S    
C98   C122  1.423941 A    
C67   C75   1.431443 A    
O32   C9    1.308406 A    
C41   C81   1.409414 A    
Zn15  O51   1.956167 S    
Zn11  O28   1.921984 S    
C26   H2    1.103597 S    
C52   C64   1.393113 A    
C157  H29   1.082798 S    
C68   I40   2.132621 S    
C155  Cl11  1.756258 S    
C51   C63   1.390467 A    
C79   C95   1.439203 A    
O8    C4    1.287658 A    
C70   C78   1.423537 A    
O50   C18   1.281534 A    
C171  C172  1.409083 A    
C101  C105  1.392672 A    
C127  C135  1.416709 A    
Zn1   O1    1.931035 S    
C142  C150  1.411031 A    
Zn13  O1    1.981200 S    
Zn2   O14   1.951382 S    
C60   C68   1.415008 A    
C33   C34   1.594464 S    
C46   H22   1.078795 S    
C135  Cl3   1.770069 S    
C9    C113  1.468675 S    
C131  C143  1.400722 A    
O39   C19   1.292501 A    
O36   C13   1.294148 A    
C78   C94   1.411623 A    
C47   C55   1.389916 A    
C89   C97   1.417737 A    
O13   C9    1.263448 A    
C138  C146  1.412072 A    
Zn1   O8    1.951340 S    
Zn2   O7    1.948854 S    
C83   C115  1.413098 A    
Zn3   O6    1.953671 S    
O18   C14   1.280726 A    
O31   C10   1.298819 A    
O6    C2    1.281404 A    
C163  C164  1.397568 A    
C25   H9    1.113578 S    
C31   C40   1.564628 S    
C154  C158  1.394584 A    
C43   H19   1.077763 S    
C179  C180  1.373176 A    
C32   H16   1.113507 S    
C17   C166  1.494849 S    
Zn14  O30   1.922237 S    
C65   I37   2.137155 S    
Zn15  O3    1.981200 S    
Zn11  O3    1.978437 S    
O41   C21   1.261198 A    
C64   Cl28  1.766523 S    
Zn16  O34   1.922237 S    
C8    C94   1.490263 S    
C44   C52   1.399083 A    
C31   H15   1.113381 S    
O11   C7    1.264877 A    
C95   C103  1.436143 A    
C110  C118  1.428462 A    
C124  I4    2.129072 S    
C93   C101  1.405164 A    
C35   I28   2.138139 S    
Zn8   O20   1.953715 S    
C36   I27   2.164915 S    
C133  Cl1   1.764249 S    
C88   C120  1.412091 A    
C169  C173  1.440856 A    
C96   C104  1.420315 A    
C78   C82   1.423413 A    
C171  C175  1.435581 A    
C48   C56   1.386233 A    
C70   I42   2.135465 S    
C99   C111  1.390652 A    
C4    C90   1.461527 S    
C97   C109  1.418502 A    
C154  C161  1.411377 A    
C80   C96   1.412320 A    
C148  I12   2.127808 S    
C121  I1    2.140775 S    
C34   I22   2.177909 S    
C121  C129  1.405280 A    
C1    C91   1.477264 S    
Zn8   O9    1.949343 S    
C111  C151  1.425300 A    
C62   Cl26  1.769597 S    
C151  I15   2.115385 S    
C152  I16   2.119412 S    
C109  C149  1.420041 A    
C139  C147  1.401584 A    
C11   C115  1.460627 S    
O7    C3    1.283790 A    
C125  I5    2.127624 S    
C15   C119  1.468713 S    
C54   C58   1.390602 A    
C143  I35   2.143303 S    
O19   C15   1.273914 A    
C13   C117  1.504719 S    
C112  C152  1.416535 A    
C100  C112  1.393788 A    
C26   H10   1.114287 S    
Zn9   O24   1.921984 S    
Zn6   O18   1.951382 S    
Zn10  O23   1.924790 S    
C175  I19   2.112657 S    
C105  C145  1.420737 A    
C165  C169  1.447771 A    
C81   C113  1.409888 A    
C155  C159  1.396643 A    
C60   Cl24  1.768951 S    
C176  C180  1.389483 A    
C123  C131  1.403026 A    
C150  I14   2.148898 S    
Zn15  O36   1.923646 S    
O15   C11   1.270149 A    
O42   C22   1.273967 A    
Zn4   O1    1.924085 S    
C144  I36   2.140742 S    
C50   Cl14  1.759649 S    
C30   C32   1.548365 S    
C102  C126  1.410807 A    
Zn9   O37   1.957683 S    
O12   C8    1.271308 A    
Zn11  O39   1.957683 S    
C106  C114  1.411848 A    
C154  Cl10  1.741503 S    
C53   C57   1.401506 A    
C59   Cl23  1.769632 S    
C84   C116  1.428034 A    
H26   C177  1.083660 S    
C56   C60   1.396632 A    
C42   C82   1.415713 A    
C35   C36   1.587793 S    
Zn5   O3    1.931035 S    
C44   H20   1.075488 S    
C31   H7    1.110721 S    
C100  C124  1.415903 A    
C104  C108  1.410527 A    
C32   C39   1.559808 S    
C141  C149  1.408031 A    
C58   C66   1.412106 A    
C66   I38   2.120644 S    
C173  C177  1.390520 A    
C158  H30   1.081474 S    
C45   H21   1.074725 S    
C46   C86   1.420654 A    
C87   C119  1.433305 A    
O28   C5    1.304610 A    
C58   Cl22  1.770951 S    
C135  C139  1.401039 A    
Zn3   O42   1.953931 S    
C140  I32   2.138681 S    
C29   C39   1.559856 S    
Zn7   O4    1.924086 S    
O21   C4    1.280129 A    
C137  C145  1.416661 A    
C27   H11   1.113211 S    
C64   C72   1.400932 A    
H27   C180  1.083372 S    
C65   C73   1.407986 A    
C156  C163  1.424345 A    
C73   C89   1.400556 A    
C68   C76   1.432686 A    
Zn2   O2    1.931034 S    
Zn14  O2    1.978123 S    
C128  I8    2.129082 S    
C57   C65   1.411879 A    
Zn13  O49   1.956167 S    
O44   C21   1.270234 A    
C175  C179  1.389624 A    
C28   H12   1.112714 S    
C56   Cl20  1.761734 S    
C45   C85   1.406611 A    
C107  C115  1.399193 A    
Zn12  O27   1.924790 S    
C140  C148  1.405088 A    
C12   C116  1.502665 S    
Zn3   O2    1.924086 S    
C33   C37   1.587186 S    
C138  I30   2.140293 S    
C130  Cl6   1.766580 S    
O47   C24   1.267888 A    
C145  I9    2.141084 S    
Zn16  O52   1.957727 S    
C36   I26   2.205449 S    
C169  C170  1.428675 A    
C18   C165  1.499828 S    
C71   I43   2.113791 S    
Zn8   O45   1.953930 S    
C156  C160  1.393564 A    
C129  Cl5   1.769557 S    
O27   C6    1.297660 A    
C124  C132  1.409736 A    
C75   C91   1.417193 A    
C76   C92   1.439285 A    
C130  C142  1.394662 A    
C29   C31   1.541255 S    
C134  C138  1.401853 A    
C173  I17   2.117954 S    
C156  Cl12  1.762268 S    
O24   C1    1.299927 A    
C129  C141  1.400698 A    
C170  C174  1.426548 A    
C3    C89   1.507899 S    
O46   C24   1.261740 A    
O43   C22   1.254974 A    
O14   C10   1.270846 A    
Zn4   O41   1.953930 S    
C79   C83   1.420354 A    
C176  I20   2.092908 S    
Zn5   O12   1.951340 S    
Zn6   O11   1.948854 S    
C168  C172  1.431533 A    
Zn9   O21   1.927496 S    
C177  C178  1.370351 A    
Zn14  O50   1.957727 S    
O35   C14   1.280181 A    
Zn12  O40   1.956124 S    
Zn9   O1    1.978437 S    
O52   C20   1.280384 A    
C29   H13   1.114096 S    
C159  C160  1.387091 A    
C136  C140  1.399202 A    
C41   C49   1.390096 A    
O22   C3    1.310111 A    
C51   Cl15  1.763162 S    
C159  H31   1.082992 S    
Zn7   O19   1.949386 S    
C160  H32   1.082805 S    
C137  I29   2.139716 S    
C166  C170  1.416898 A    
Zn13  O32   1.923646 S    
O49   C17   1.305343 A    
Zn14  O31   1.927747 S    
C143  C151  1.415570 A    
O51   C19   1.299845 A    
C126  C134  1.407835 A    
C61   C69   1.409571 A    
C47   H23   1.078043 S    
C147  I11   2.132960 S    
Zn4   O5    1.949343 S    
C55   Cl19  1.759360 S    
O20   C16   1.271404 A    
O10   C6    1.282877 A    
O23   C2    1.288206 A    
Zn11  O25   1.927496 S    
Zn10  O38   1.956124 S    
C67   I39   2.138537 S    
C144  C152  1.408889 A    
C48   C88   1.409510 A    
C5    C95   1.478274 S    
C36   C40   1.589973 S    
C6    C96   1.497113 S    
C72   C80   1.422688 A    
C43   C83   1.414523 A    
C44   C84   1.414412 A    
C149  I13   2.130675 S    
O17   C13   1.297449 A    
C19   C168  1.466184 S    
O45   C23   1.263228 A    
C20   C167  1.461065 S    
C33   I24   2.169104 S    
C42   H18   1.076010 S    
