data_mof_unit_55584.cif
_audit_creation_date              2012-12-10T17:03:57-0500
_audit_creation_method            fapswitch 2.2
_symmetry_space_group_name_H-M    P1
_symmetry_Int_Tables_number       1
_space_group_crystal_system       triclinic
_cell_length_a                    9.909183
_cell_length_b                    10.805745
_cell_length_c                    15.739929
_cell_angle_alpha                 95.115809
_cell_angle_beta                  79.270354
_cell_angle_gamma                 109.367789
_cell_volume                      1561.51133543

loop_
_atom_site_label
_atom_site_type_symbol
_atom_type_description
_atom_site_fract_x
_atom_site_fract_y
_atom_site_fract_z
_atom_type_partial_charge
C1    C     C_R   0.552538 0.745796 0.507923 0.842016
C2    C     C_R   0.444362 0.254089 0.498913 0.802359
C3    C     C_R   0.368300 0.355223 0.056959 0.209204
C4    C     C_R   0.642699 0.644219 0.939825 0.217280
C5    C     C_R   0.254466 0.327493 0.009451 0.237546
C6    C     C_R   0.753635 0.676622 0.989717 0.244374
C7    C     C_2   0.573513 0.886864 0.513689 0.131350
C8    C     C_2   0.418680 0.113419 0.508166 0.076489
C9    C     C_2   0.474630 0.933583 0.565080 0.139770
C10   C     C_2   0.485161 0.072154 0.563456 0.092715
C11   C     C_2   0.929135 0.496520 0.487113 0.281833
C12   C     C_2   0.079305 0.520777 0.500263 0.279318
C13   C     C_R   0.410920 0.482316 0.662552 0.802639
C14   C     C_R   0.589360 0.520764 0.337864 0.843650
C15   C     C_R   0.356104 0.459895 0.755723 -0.133646
C16   C     C_R   0.645290 0.548671 0.245545 -0.136335
C17   C     C_R   0.174249 0.352672 0.875569 -0.115254
C18   C     C_R   0.824487 0.668923 0.129247 -0.105204
C19   C     C_R   0.210486 0.389643 0.789310 0.253255
C20   C     C_R   0.784763 0.635991 0.216068 0.240197
C21   C     C_R   0.457229 0.501763 0.812142 -0.178836
C22   C     C_R   0.549992 0.496230 0.186502 -0.165676
C23   C     C_R   0.417871 0.478254 0.900844 0.081781
C24   C     C_R   0.590664 0.523630 0.098078 0.081510
C25   C     C_R   0.279301 0.388766 0.930278 -0.029489
C26   C     C_R   0.726240 0.619849 0.070760 -0.027993
C27   C     C_R   0.518440 0.530931 0.958739 -0.068745
C28   C     C_R   0.492737 0.468619 0.038708 -0.070014
Cu1   Cu    Cu3+1 0.362980 0.479380 0.485080 1.041851
Cu2   Cu    Cu3+1 0.637020 0.520620 0.514920 1.020753
H1    H     H_    0.438985 0.441972 0.211715 0.200844
H2    H     H_    0.570273 0.546201 0.785506 0.208225
H3    H     H_    0.064689 0.290598 0.897747 0.219319
H4    H     H_    0.929283 0.741300 0.110214 0.222945
N1    N     N_2   0.842890 0.551600 0.537350 -0.102842
N2    N     N_2   0.157110 0.448400 0.462650 -0.122886
O1    O     O_R   0.426810 0.668300 0.492040 -0.602006
O2    O     O_R   0.573190 0.331700 0.507960 -0.629048
O3    O     O_R   0.658240 0.703130 0.517240 -0.509583
O4    O     O_R   0.341760 0.296870 0.482760 -0.488118
O5    O     O_R   0.319390 0.472820 0.610170 -0.554625
O6    O     O_R   0.680610 0.527180 0.389830 -0.571074
O7    O     O_R   0.550820 0.507640 0.635370 -0.559929
O8    O     O_R   0.449180 0.492360 0.364630 -0.555877
Br1   Br    Br    0.072879 0.192740 0.048278 -0.326973
Br2   Br    Br    0.935496 0.811067 0.950242 -0.345726
Br3   Br    Br    0.916364 0.735547 0.291834 -0.371090
Br4   Br    Br    0.058200 0.325823 0.720729 -0.469178
Br5   Br    Br    0.366772 0.216483 0.127758 -0.343482
Br6   Br    Br    0.647794 0.778168 0.863647 -0.383361
N3    N     N_3   0.561560 0.158221 0.626501 -0.538540
H5    H     H_    0.662009 0.218117 0.595919 0.268214
H6    H     H_    0.499712 0.215375 0.658730 0.222114
N4    N     N_3   0.368705 0.853493 0.630194 -0.607903
H7    H     H_    0.396199 0.891347 0.690391 0.270216
H8    H     H_    0.268816 0.865058 0.627967 0.254955
Br7   Br    Br    0.295161 0.991471 0.436200 -0.382349
Br8   Br    Br    0.738276 0.999090 0.440485 -0.414031
N5    N     N_3   0.144473 0.641760 0.543328 -0.606476
H9    H     H_    0.211288 0.709559 0.497602 0.286868
H10   H     H_    0.196884 0.625538 0.590655 0.281507
N6    N     N_3   0.893913 0.432985 0.406528 -0.609116
H11   H     H_    0.910102 0.502097 0.360507 0.282507
H12   H     H_    0.791870 0.362287 0.413687 0.276803
N7    N     N_3   0.086802 0.317754 0.440062 -0.375248
H13   H     H_    0.070189 0.312505 0.376039 0.269146
H14   H     H_    0.989881 0.277736 0.482771 0.246742
N8    N     N_3   0.858489 0.579118 0.624181 -0.430816
H15   H     H_    0.922656 0.676954 0.630672 0.267854
H16   H     H_    0.902430 0.515185 0.646957 0.233318

loop_
_geom_bond_atom_site_label_1
_geom_bond_atom_site_label_2
_ccdc_geom_bond_type
C16   C22   A    
C11   C12   S    
N4    H8    S    
C11   N1    D    
Cu1   Cu2   S    
C23   C27   A    
C8    Br7   S    
C12   N2    D    
C6    Br2   S    
C9    C10   S    
C2    O2    A    
C7    Br8   S    
C18   C26   A    
C14   O6    A    
C16   C20   A    
C11   N6    S    
C17   C25   A    
C4    C27   A    
C22   C24   A    
C13   O5    A    
C3    Br5   S    
C3    C5    A    
N5    H9    S    
C1    C7    S    
C15   C19   A    
C18   H4    S    
Cu1   N2    S    
C6    C26   A    
C15   C21   A    
C17   H3    S    
N1    N8    S    
C5    C25   A    
C10   N3    S    
Cu2   N1    S    
Cu1   O4    S    
C4    C6    A    
C3    C28   A    
C17   C19   A    
C24   C26   A    
Cu2   O3    S    
C14   O8    A    
C18   C20   A    
C13   C15   S    
Cu1   O8    S    
C21   H2    S    
C14   C16   S    
Cu2   O7    S    
N5    H10   S    
C20   Br3   S    
N7    H14   S    
C22   H1    S    
C1    O3    A    
N3    H5    S    
C2    O4    A    
C13   O7    A    
C23   C25   A    
Cu2   O2    S    
C8    C10   D    
N7    H13   S    
Cu1   O1    S    
C27   C28   A    
C7    C9    D    
N8    H16   S    
N4    H7    S    
Cu2   O6    S    
N6    H12   S    
C9    N4    S    
C19   Br4   S    
Cu1   O5    S    
N2    N7    S    
C12   N5    S    
C5    Br1   S    
C21   C23   A    
N8    H15   S    
C2    C8    S    
N6    H11   S    
C24   C28   A    
C4    Br6   S    
C1    O1    A    
N3    H6    S    
