data_mof_unit_29091.cif
_audit_creation_date              2012-12-11T17:35:14-0500
_audit_creation_method            fapswitch 2.2
_symmetry_space_group_name_H-M    P1
_symmetry_Int_Tables_number       1
_space_group_crystal_system       triclinic
_cell_length_a                    24.369589
_cell_length_b                    7.17481
_cell_length_c                    21.984492
_cell_angle_alpha                 89.998639
_cell_angle_beta                  99.448357
_cell_angle_gamma                 90.001707
_cell_volume                      3791.77938853

loop_
_atom_site_label
_atom_site_type_symbol
_atom_type_description
_atom_site_fract_x
_atom_site_fract_y
_atom_site_fract_z
_atom_type_partial_charge
O1    O     O_R   0.801940 0.607920 0.199180 -0.546335
O2    O     O_R   0.198060 0.392080 0.800820 -0.527876
O3    O     O_R   0.698060 0.107920 0.300820 -0.539623
O4    O     O_R   0.301940 0.892080 0.699180 -0.526139
O5    O     O_R   0.687840 0.274940 0.181980 -0.521882
O6    O     O_R   0.312160 0.725060 0.818020 -0.543531
O7    O     O_R   0.812160 0.774940 0.318020 -0.524465
O8    O     O_R   0.187840 0.225060 0.681980 -0.544004
C1    C     C_R   0.669685 0.446898 0.164793 0.851305
C2    C     C_R   0.330423 0.553074 0.835097 0.794114
C3    C     C_R   0.830550 0.946866 0.334930 0.786895
C4    C     C_R   0.169713 0.053026 0.664728 0.788977
O9    O     O_R   0.800890 0.278000 0.191820 -0.537269
O10   O     O_R   0.199110 0.722000 0.808180 -0.548320
O11   O     O_R   0.699110 0.778000 0.308180 -0.531493
O12   O     O_R   0.300890 0.222000 0.691820 -0.549159
O13   O     O_R   0.811910 0.110860 0.310720 -0.544354
O14   O     O_R   0.188090 0.889140 0.689280 -0.520365
O15   O     O_R   0.688090 0.610860 0.189280 -0.540189
O16   O     O_R   0.311910 0.389140 0.810720 -0.522295
C5    C     C_R   0.818743 0.446805 0.179109 0.761059
C6    C     C_R   0.181278 0.553299 0.820930 0.771864
C7    C     C_R   0.681190 0.946801 0.320801 0.781842
C8    C     C_R   0.318716 0.053318 0.679057 0.769914
O17   O     O_3   0.753490 0.442410 0.289000 -0.373666
O18   O     O_3   0.246510 0.557590 0.711000 -0.369208
O19   O     O_3   0.746510 0.942410 0.211000 -0.376803
O20   O     O_3   0.253490 0.057590 0.789000 -0.370359
V1    V     V_3+5 0.749350 0.166330 0.242770 1.533656
V2    V     V_3+5 0.250650 0.833670 0.757230 1.545727
V3    V     V_3+5 0.750650 0.666330 0.257230 1.535399
V4    V     V_3+5 0.249350 0.333670 0.742770 1.542456
C9    C     C_R   0.406002 0.172259 0.555397 -0.054765
C10   C     C_R   0.593107 0.833516 0.444226 -0.095298
C11   C     C_R   0.093975 0.671664 0.944609 -0.057637
C12   C     C_R   0.906893 0.332866 0.055779 -0.094332
H1    H     H_    0.408806 0.283349 0.522737 0.211629
H2    H     H_    0.590735 0.725456 0.478093 0.213376
H3    H     H_    0.091231 0.782468 0.977393 0.211250
H4    H     H_    0.909317 0.224582 0.022004 0.213779
C13   C     C_R   0.366779 0.186087 0.595288 -0.057516
C14   C     C_R   0.632977 0.818408 0.405154 -0.106765
C15   C     C_R   0.133235 0.685635 0.904769 -0.057433
C16   C     C_R   0.867043 0.317821 0.094882 -0.109189
H5    H     H_    0.340395 0.308249 0.592658 0.166469
H6    H     H_    0.660240 0.698309 0.409557 0.180717
H7    H     H_    0.159725 0.807570 0.907568 0.167422
H8    H     H_    0.839907 0.197412 0.090651 0.181741
C17   C     C_R   0.360945 0.042084 0.637122 -0.096659
C18   C     C_R   0.638179 0.958389 0.361746 -0.088580
C19   C     C_R   0.138987 0.542002 0.862784 -0.096767
C20   C     C_R   0.861687 0.458311 0.138070 -0.086723
C21   C     C_R   0.395800 0.885013 0.638511 -0.246155
C22   C     C_R   0.601663 0.111703 0.357466 -0.257742
C23   C     C_R   0.103972 0.385247 0.861136 -0.241559
C24   C     C_R   0.898054 0.611947 0.142105 -0.254315
H9    H     H_    0.392063 0.773164 0.670597 0.152840
H10   H     H_    0.604609 0.219296 0.323649 0.153709
H11   H     H_    0.107612 0.273785 0.828877 0.152794
H12   H     H_    0.894876 0.720207 0.175578 0.139594
C25   C     C_R   0.436044 0.871882 0.599567 0.441497
C26   C     C_R   0.560743 0.125989 0.395551 0.437476
C27   C     C_R   0.063683 0.371983 0.900023 0.442539
C28   C     C_R   0.939136 0.625749 0.104227 0.440302
C29   C     C_R   0.441112 0.016618 0.557312 -0.050934
C30   C     C_R   0.556721 0.986336 0.439891 -0.030077
C31   C     C_R   0.058751 0.516245 0.942495 -0.051069
C32   C     C_R   0.943230 0.485826 0.060004 -0.032073
C33   C     C_1   0.481784 0.007268 0.515689 0.182873
C34   C     C_1   0.515853 0.997589 0.481236 0.183423
C35   C     C_1   0.018110 0.506696 0.984146 0.182672
C36   C     C_1   0.984075 0.497009 0.018638 0.183092
C37   C     C_R   0.933277 0.970112 0.366611 0.081785
C38   C     C_R   0.067137 0.066451 0.630465 0.114212
C39   C     C_R   0.567756 0.480083 0.132772 0.086422
C40   C     C_R   0.433254 0.558614 0.868120 0.092167
C41   C     C_R   0.880157 0.957599 0.384245 -0.213058
C42   C     C_R   0.120647 0.042964 0.614658 -0.252799
C43   C     C_R   0.620344 0.457764 0.115128 -0.182004
C44   C     C_R   0.379810 0.542990 0.884755 -0.225754
C45   C     C_R   0.874797 0.966350 0.447327 0.317949
C46   C     C_R   0.126425 0.010026 0.552376 0.391129
C47   C     C_R   0.625611 0.457608 0.051958 0.285477
C48   C     C_R   0.374245 0.517825 0.947356 0.385122
C49   C     C_R   0.922642 0.004957 0.491990 -0.047828
C50   C     C_R   0.078279 0.015503 0.505867 -0.076221
C51   C     C_R   0.577978 0.496158 0.006930 -0.085770
C52   C     C_R   0.422611 0.524509 0.993410 -0.038789
C53   C     C_R   0.976340 0.006625 0.475150 -0.031524
C54   C     C_R   0.024469 0.024725 0.522001 -0.074222
C55   C     C_R   0.524432 0.507345 0.023812 -0.033974
C56   C     C_R   0.476345 0.525134 0.976812 -0.052367
C57   C     C_R   0.982058 0.990638 0.411884 0.074470
C58   C     C_R   0.018663 0.052510 0.584667 0.130399
C59   C     C_R   0.518880 0.501270 0.087327 0.092838
C60   C     C_R   0.482111 0.543799 0.913629 0.072245
C61   C     C_R   0.917874 0.046625 0.553310 -0.178455
C62   C     C_R   0.082773 0.015307 0.443062 -0.027821
C63   C     C_R   0.582925 0.528415 0.945133 -0.072483
C64   C     C_R   0.418404 0.534185 0.056183 -0.103184
C65   C     C_R   0.964293 0.069420 0.599173 0.195711
C66   C     C_R   0.036648 0.001740 0.396672 0.164348
C67   C     C_R   0.536955 0.550866 0.899035 0.184787
C68   C     C_R   0.464771 0.521948 0.102620 0.151237
H13   H     H_    0.877713 0.067873 0.566814 0.223931
H14   H     H_    0.122644 0.030965 0.428324 0.225418
H15   H     H_    0.623217 0.542049 0.931273 0.239882
H16   H     H_    0.378767 0.557230 0.070773 0.208968
S1    S     S_3+6 0.479483 0.673321 0.604327 0.025319
O21   O     O_2   0.472581 0.581247 0.542247 -0.285172
O22   O     O_2   0.539145 0.732553 0.622052 -0.307110
O23   O     O_3   0.463276 0.519416 0.656306 -0.508844
H17   H     H_    0.484051 0.562122 0.696385 0.352255
S2    S     S_3+6 0.515082 0.319248 0.386974 0.038142
O24   O     O_2   0.456062 0.250568 0.374146 -0.282846
O25   O     O_2   0.523215 0.428961 0.445921 -0.307166
O26   O     O_3   0.526429 0.458218 0.328703 -0.487659
H18   H     H_    0.561443 0.525013 0.344409 0.325419
S3    S     S_3+6 0.019981 0.173968 0.894852 0.028020
O27   O     O_2   0.026933 0.080184 0.956663 -0.286091
O28   O     O_2   0.960380 0.234293 0.877526 -0.307845
O29   O     O_3   0.035800 0.021227 0.842309 -0.506978
H19   H     H_    0.014686 0.064368 0.802445 0.365958
S4    S     S_3+6 0.985024 0.818417 0.113146 0.040464
O30   O     O_2   0.043976 0.748972 0.125510 -0.280200
O31   O     O_2   0.976816 0.929756 0.054526 -0.308727
O32   O     O_3   0.974049 0.955788 0.171977 -0.484814
H20   H     H_    0.939499 0.025234 0.156345 0.322363
N1    N     N_3   0.937190 0.957949 0.302287 -0.660397
H21   H     H_    0.914719 0.067493 0.278707 0.229562
H22   H     H_    0.920073 0.831262 0.284973 0.231118
N2    N     N_3   0.062185 0.099556 0.693804 -0.614875
H23   H     H_    0.083017 0.223046 0.708454 0.223263
H24   H     H_    0.080652 0.989064 0.720712 0.226686
N3    N     N_3   0.565928 0.476467 0.197734 -0.668992
H25   H     H_    0.541336 0.364990 0.207846 0.292998
H26   H     H_    0.551356 0.604180 0.211450 0.283579
N4    N     N_3   0.437336 0.585760 0.804325 -0.704774
H27   H     H_    0.417187 0.709854 0.789008 0.226994
H28   H     H_    0.417872 0.474627 0.778551 0.234710
S5    S     S_3+6 0.809082 0.921029 0.470955 0.012237
O33   O     O_2   0.781129 0.103745 0.479302 -0.296580
O34   O     O_2   0.771506 0.806267 0.424629 -0.348356
O35   O     O_3   0.817891 0.803568 0.538122 -0.469277
H29   H     H_    0.838064 0.688578 0.530153 0.345096
S6    S     S_3+6 0.192906 0.954436 0.532195 -0.009805
O36   O     O_2   0.217760 0.129118 0.510531 -0.332918
O37   O     O_2   0.232179 0.874400 0.585349 -0.341174
O38   O     O_3   0.185651 0.794671 0.475353 -0.493599
H30   H     H_    0.222742 0.786702 0.462640 0.388632
S7    S     S_3+6 0.690888 0.402932 0.028652 0.010236
O39   O     O_2   0.719455 0.581659 0.016737 -0.294203
O40   O     O_2   0.728442 0.293431 0.076524 -0.350615
O41   O     O_3   0.680925 0.274873 0.963635 -0.462590
H31   H     H_    0.660301 0.163224 0.973825 0.347083
S8    S     S_3+6 0.307595 0.469541 0.968312 -0.013080
O42   O     O_2   0.282936 0.649173 0.986407 -0.335481
O43   O     O_2   0.268470 0.382120 0.916433 -0.342085
O44   O     O_3   0.314211 0.319904 0.028053 -0.497532
H32   H     H_    0.277017 0.316411 0.040646 0.386098
N5    N     N_3   0.954987 0.110127 0.660530 -0.595821
H33   H     H_    0.931916 0.233359 0.659311 0.252172
H34   H     H_    0.931223 0.002361 0.674935 0.261551
N6    N     N_3   0.048082 0.000893 0.334742 -0.592409
H35   H     H_    0.028219 0.113806 0.310383 0.289823
H36   H     H_    0.035539 0.873980 0.313599 0.302999
N7    N     N_3   0.548841 0.579901 0.838002 -0.610752
H37   H     H_    0.532820 0.708456 0.821205 0.274711
H38   H     H_    0.532542 0.469938 0.809472 0.277490
N8    N     N_3   0.455357 0.532026 0.165176 -0.642191
H39   H     H_    0.435828 0.658813 0.171359 0.259773
H40   H     H_    0.428329 0.424219 0.172586 0.274482

loop_
_geom_bond_atom_site_label_1
_geom_bond_atom_site_label_2
_ccdc_geom_bond_type
O17   V3    S    
C47   C51   A    
C67   N7    S    
C51   C55   A    
O19   V1    S    
O13   V1    S    
C23   H11   S    
C38   C58   A    
O3    C7    A    
C10   C14   A    
C37   C57   A    
C44   C48   A    
O4    V2    S    
O15   V3    S    
C10   C30   A    
N5    H33   S    
C39   C59   A    
N3    H25   S    
N7    H38   S    
C29   C33   S    
O1    C5    A    
C18   C22   A    
C28   C32   A    
O9    V1    S    
S8    O42   D    
C26   S2    S    
S4    O31   D    
C38   N2    S    
S5    O34   D    
C1    C43   S    
C11   H3    S    
O4    C8    A    
C39   N3    S    
C31   C35   S    
N8    H39   S    
O1    V3    S    
O2    V4    S    
C14   H6    S    
S7    O41   S    
O3    V1    S    
C37   C41   A    
C3    C41   S    
S1    O22   D    
N5    H34   S    
C21   C25   A    
S8    O43   D    
C1    O15   A    
C64   C68   A    
C52   C56   A    
C58   C65   A    
C2    O16   A    
N2    H23   S    
C43   C47   A    
C4    C42   S    
O2    C6    A    
S7    O39   D    
C24   C28   A    
O14   V2    S    
C41   C45   A    
C11   C15   A    
S6    O37   D    
C32   C36   S    
C61   H13   S    
C16   C20   A    
O11   C7    A    
C25   S1    S    
C65   N5    S    
O12   C8    A    
N6    H35   S    
O10   V2    S    
C13   C17   A    
O23   H17   S    
C46   S6    S    
O16   V4    S    
C54   C58   A    
C47   S7    S    
S3    O28   D    
C56   C60   A    
C37   N1    S    
C64   H16   S    
O7    V3    S    
C26   C30   A    
C9    C29   A    
O8    V4    S    
C40   C44   A    
C12   H4    S    
C63   C67   A    
C50   C54   A    
S1    O23   S    
C55   C56   A    
C49   C53   A    
O18   V4    S    
C7    C18   S    
C22   C26   A    
C28   S4    S    
C9    H1    S    
C24   H12   S    
C23   C27   A    
O7    C3    A    
C27   C31   A    
O5    C1    A    
S6    O38   S    
C27   S3    S    
C42   C46   A    
O44   H32   S    
C11   C31   A    
O8    C4    A    
C45   S5    S    
O9    C5    A    
O11   V3    S    
O41   H31   S    
C52   C64   A    
N4    H28   S    
C14   C18   A    
S4    O32   S    
N2    H24   S    
O6    V2    S    
C15   H7    S    
C12   C16   A    
C4    O14   A    
O32   H20   S    
C53   C54   A    
O5    V1    S    
N7    H37   S    
C59   C68   A    
C68   N8    S    
S6    O36   D    
C22   H10   S    
S3    O29   S    
C8    C17   S    
N3    H26   S    
C3    O13   A    
C2    C44   S    
C10   H2    S    
S8    O44   S    
C48   C52   A    
O35   H29   S    
C21   H9    S    
C57   C66   A    
O6    C2    A    
S2    O25   D    
S3    O27   D    
C12   C32   A    
S2    O24   D    
S5    O35   S    
C40   N4    S    
O12   V4    S    
C63   H15   S    
O26   H18   S    
C62   H14   S    
C9    C13   A    
O10   C6    A    
N6    H36   S    
N1    H21   S    
C35   C36   T    
C16   H8    S    
C62   C66   A    
O38   H30   S    
C40   C60   A    
C46   C50   A    
C48   S8    S    
C15   C19   A    
C30   C34   S    
N8    H40   S    
C17   C21   A    
O20   V2    S    
C19   C23   A    
S7    O40   D    
C53   C57   A    
C33   C34   T    
C50   C62   A    
C45   C49   A    
S2    O26   S    
C49   C61   A    
N4    H27   S    
C55   C59   A    
C51   C63   A    
C25   C29   A    
C66   N6    S    
C38   C42   A    
C60   C67   A    
S1    O21   D    
C13   H5    S    
S4    O30   D    
O29   H19   S    
S5    O33   D    
C39   C43   A    
C5    C20   S    
C61   C65   A    
C20   C24   A    
C6    C19   S    
N1    H22   S    
