data_mof_unit_45440.cif
_audit_creation_date              2012-10-26T17:46:32-0400
_audit_creation_method            fapswitch 2.2
_symmetry_space_group_name_H-M    P1
_symmetry_Int_Tables_number       1
_space_group_crystal_system       triclinic
_cell_length_a                    18.846872
_cell_length_b                    18.747961
_cell_length_c                    18.933531
_cell_angle_alpha                 109.620344
_cell_angle_beta                  109.349952
_cell_angle_gamma                 109.377148
_cell_volume                      5154.12861442

loop_
_atom_site_label
_atom_site_type_symbol
_atom_type_description
_atom_site_fract_x
_atom_site_fract_y
_atom_site_fract_z
_atom_type_partial_charge
C1    C     C_R   0.383577 0.501756 0.382110 0.549822
C2    C     C_R   0.824325 0.820414 0.576723 -0.151393
C3    C     C_R   0.271115 0.314095 0.719042 -0.133472
C4    C     C_R   0.328113 0.306940 0.781996 -0.074926
C5    C     C_R   0.079146 0.322163 0.822214 -0.160036
C6    C     C_R   0.000023 0.314360 0.814147 -0.004248
C7    C     C_R   0.921174 0.244087 0.740034 -0.032834
C8    C     C_R   0.923189 0.181152 0.676644 -0.155880
C9    C     C_R   0.002129 0.188519 0.685164 0.004869
C10   C     C_3   0.015194 0.106626 0.129556 -0.015702
C11   C     C_3   0.969585 0.015755 0.116914 -0.365846
C12   C     C_3   0.024508 0.383835 0.336959 -0.410967
C13   C     C_R   0.813962 0.811433 0.497022 0.005836
C14   C     C_3   0.469511 0.211158 0.695614 -0.033063
C15   C     C_3   0.533313 0.307965 0.738560 -0.381388
C16   C     C_3   0.848826 0.585969 0.441880 -0.404904
C17   C     C_3   0.105674 0.638610 0.308418 -0.006313
C18   C     C_3   0.116926 0.573274 0.334198 -0.360729
C19   C     C_3   0.404757 0.236902 0.875142 -0.011165
C20   C     C_3   0.436104 0.201545 0.933109 -0.373309
C21   C     C_R   0.738954 0.740018 0.419079 -0.037693
C22   C     C_R   0.678910 0.676498 0.423575 -0.171042
C23   C     C_R   0.688919 0.685906 0.503279 -0.003930
C24   C     C_R   0.761401 0.759723 0.581150 -0.033714
C25   C     C_R   0.639368 0.713865 0.275280 -0.094162
C26   C     C_R   0.620015 0.700655 0.192422 -0.109681
C27   C     C_R   0.680798 0.701989 0.165426 -0.106466
C28   C     C_R   0.620564 0.619021 0.501937 0.542608
C29   C     C_R   0.798223 0.808661 0.832431 -0.106179
C30   C     C_R   0.761068 0.716743 0.221333 -0.099040
C31   C     C_R   0.780660 0.730294 0.304312 -0.055401
C32   C     C_R   0.720159 0.729038 0.332202 0.045630
C33   C     C_R   0.455499 0.815120 0.505882 -0.114098
C34   C     C_R   0.385754 0.731575 0.441744 -0.092591
C35   C     C_R   0.399220 0.668829 0.390767 0.050266
C36   C     C_R   0.483322 0.691675 0.403971 -0.067214
C37   C     C_R   0.552774 0.775723 0.467639 -0.100103
C38   C     C_R   0.538978 0.837163 0.518865 -0.099883
C39   C     C_R   0.259327 0.577357 0.253814 -0.158804
C40   C     C_R   0.081024 0.260217 0.757879 -0.029029
C41   C     C_R   0.615961 0.497484 0.617858 0.546384
C42   C     C_R   0.187982 0.496847 0.184645 0.000279
C43   C     C_R   0.181452 0.417982 0.180381 -0.025269
C44   C     C_R   0.247317 0.422401 0.246385 -0.142814
C45   C     C_R   0.318150 0.502830 0.315684 0.009026
C46   C     C_R   0.324514 0.581572 0.320189 -0.032502
C47   C     C_R   0.065561 0.265741 0.122101 -0.096745
C48   C     C_R   0.003654 0.179679 0.053356 0.285820
C49   C     C_R   0.984155 0.160155 0.968827 -0.072591
C50   C     C_R   0.028836 0.223514 0.953119 -0.154931
C51   C     C_R   0.767531 0.165394 0.705508 -0.090442
C52   C     C_R   0.092252 0.307869 0.021614 -0.077652
C53   C     C_R   0.379794 0.381017 0.498656 0.550605
C54   C     C_R   0.110411 0.330093 0.106629 0.006903
C55   C     C_R   0.227272 0.524710 0.559982 -0.127686
C56   C     C_R   0.259304 0.467477 0.560863 -0.068052
C57   C     C_R   0.217977 0.385169 0.487311 0.030435
C58   C     C_R   0.144110 0.360835 0.413127 -0.086557
C59   C     C_R   0.109365 0.416265 0.413378 0.015039
C60   C     C_R   0.151678 0.498730 0.487228 -0.087465
C61   C     C_R   0.174588 0.249920 0.491977 -0.167552
C62   C     C_R   0.684628 0.155875 0.676410 -0.116699
C63   C     C_R   0.185502 0.181220 0.495711 -0.002988
C64   C     C_R   0.259911 0.177141 0.499492 0.008027
C65   C     C_R   0.800090 0.872039 0.808886 -0.115713
C66   C     C_R   0.322982 0.243734 0.500637 -0.124521
C67   C     C_R   0.312558 0.313788 0.498276 -0.004357
C68   C     C_R   0.237333 0.316756 0.493734 -0.043936
C69   C     C_R   0.332937 0.111919 0.572934 0.312399
C70   C     C_R   0.336222 0.036844 0.570776 -0.111566
C71   C     C_R   0.283476 0.956115 0.494368 -0.153389
C72   C     C_R   0.224842 0.948058 0.419984 -0.121489
C73   C     C_R   0.670287 0.219446 0.661922 -0.102438
C74   C     C_R   0.217516 0.020345 0.422127 -0.128774
C75   C     C_R   0.270819 0.102148 0.498295 0.066120
C76   C     C_2   0.745286 0.494437 0.819361 -0.177995
C77   C     C_R   0.787706 0.855838 0.726846 -0.099591
C78   C     C_2   0.821033 0.507163 0.822994 -0.132426
C79   C     C_2   0.683730 0.505954 0.758019 -0.184400
C80   C     C_2   0.678821 0.491085 0.681718 -0.135683
C81   C     C_R   0.999151 0.879287 0.382238 0.546278
C82   C     C_R   0.881039 0.879685 0.498441 0.541786
C83   C     C_R   0.000562 0.120070 0.618132 0.550319
C84   C     C_R   0.738869 0.293411 0.678330 -0.100853
C85   C     C_R   0.118775 0.116247 0.497618 0.550221
C86   C     C_R   0.002020 0.381098 0.883286 0.541749
C87   C     C_R   0.121247 0.498147 0.119495 0.537265
C88   C     C_R   0.001243 0.619238 0.119635 0.560635
C89   C     C_R   0.773751 0.776002 0.667759 0.047720
C90   C     C_R   0.885304 0.501719 0.886451 0.544596
C91   C     C_R   0.082878 0.763575 0.546951 -0.128317
C92   C     C_R   0.082650 0.776268 0.478302 -0.068753
C93   C     C_R   0.006132 0.728348 0.397989 0.062147
C94   C     C_R   0.931200 0.664114 0.385916 -0.063134
C95   C     C_R   0.821997 0.303779 0.708403 -0.070146
C96   C     C_R   0.930757 0.652024 0.455005 0.014132
C97   C     C_R   0.007070 0.702295 0.535747 -0.082119
C98   C     C_R   0.007840 0.679893 0.260008 0.234041
C99   C     C_R   0.002278 0.687078 0.186972 0.000470
C100  C     C_R   0.001116 0.760152 0.181605 -0.080897
C101  C     C_R   0.773585 0.713355 0.692616 -0.056924
C102  C     C_R   0.998461 0.820848 0.246120 -0.184433
C103  C     C_R   0.000012 0.811934 0.316740 -0.052967
C104  C     C_R   0.005379 0.741357 0.324688 -0.035716
C105  C     C_R   0.070117 0.856491 0.131768 -0.096667
C106  C     C_R   0.836685 0.239362 0.721355 0.052191
C107  C     C_R   0.072250 0.874488 0.066373 -0.123148
C108  C     C_R   0.008967 0.813226 0.980130 -0.111207
C109  C     C_R   0.943399 0.734170 0.959375 -0.099870
C110  C     C_R   0.940300 0.716208 0.024569 -0.057117
C111  C     C_R   0.004303 0.776904 0.111291 0.051139
C112  C     C_R   0.303864 0.281688 0.836599 0.282809
C113  C     C_R   0.784564 0.729348 0.774162 -0.102420
C114  C     C_R   0.223507 0.268556 0.829293 -0.050887
C115  C     C_R   0.165891 0.275010 0.765549 -0.000298
C116  C     C_R   0.189824 0.297236 0.710030 -0.101061
Cu1   Cu    Cu3+1 0.499580 0.561790 0.561390 0.941653
Cu2   Cu    Cu3+1 0.500420 0.438210 0.438610 0.916472
Cu3   Cu    Cu3+1 0.061410 0.999960 0.561370 0.944719
Cu4   Cu    Cu3+1 0.938590 0.000000 0.438590 0.925723
Cu5   Cu    Cu3+1 0.065060 0.561820 0.003180 0.924784
Cu6   Cu    Cu3+1 0.941450 0.438250 0.003210 0.966714
H1    H     H_    0.807238 0.820910 0.895717 0.112002
H2    H     H_    0.263917 0.637526 0.256449 0.119854
H3    H     H_    0.243704 0.362454 0.243600 0.120061
H4    H     H_    0.810673 0.933519 0.854021 0.125832
H5    H     H_    0.079217 0.282665 0.187519 0.088668
H6    H     H_    0.935506 0.094917 0.915213 0.115393
H7    H     H_    0.014962 0.206603 0.887716 0.122430
H8    H     H_    0.128013 0.355474 0.008537 0.108722
H9    H     H_    0.125127 0.541986 0.489866 0.101797
H10   H     H_    0.258793 0.587756 0.617212 0.100526
H11   H     H_    0.313618 0.485668 0.620101 0.120964
H12   H     H_    0.665702 0.691585 0.101222 0.105961
H13   H     H_    0.110015 0.296014 0.357291 0.096876
H14   H     H_    0.788445 0.905258 0.709160 0.095164
H15   H     H_    0.117172 0.252533 0.489518 0.131373
H16   H     H_    0.380317 0.240907 0.503307 0.127824
H17   H     H_    0.379535 0.040486 0.627958 0.081468
H18   H     H_    0.287794 0.899537 0.492961 0.094999
H19   H     H_    0.184311 0.885407 0.360892 0.119659
H20   H     H_    0.170235 0.012707 0.364415 0.093219
H21   H     H_    0.730263 0.480387 0.865449 0.139893
H22   H     H_    0.840735 0.530609 0.783715 0.095445
H23   H     H_    0.808081 0.717661 0.200351 0.116252
H24   H     H_    0.638930 0.522411 0.774035 0.143572
H25   H     H_    0.764617 0.652140 0.648818 0.095116
H26   H     H_    0.717173 0.466037 0.661540 0.098373
H27   H     H_    0.008141 0.693788 0.589832 0.104456
H28   H     H_    0.141856 0.801517 0.609041 0.095543
H29   H     H_    0.141797 0.823890 0.487848 0.110240
H30   H     H_    0.872840 0.624366 0.323043 0.111064
H31   H     H_    0.996499 0.876558 0.241917 0.134788
H32   H     H_    0.119731 0.904558 0.198395 0.097677
H33   H     H_    0.122932 0.935922 0.082584 0.106168
H34   H     H_    0.843035 0.742332 0.347079 0.099214
H35   H     H_    0.781986 0.679992 0.791952 0.111604
H36   H     H_    0.010630 0.826988 0.929388 0.113072
H37   H     H_    0.895041 0.686814 0.892698 0.104389
H38   H     H_    0.888029 0.655417 0.007616 0.094756
H39   H     H_    0.391114 0.322236 0.788412 0.124680
H40   H     H_    0.205256 0.251762 0.872508 0.123013
H41   H     H_    0.146126 0.302939 0.660863 0.111027
H42   H     H_    0.290456 0.333507 0.677696 0.134094
H43   H     H_    0.139693 0.377241 0.878471 0.124452
H44   H     H_    0.862858 0.126878 0.619442 0.127073
H45   H     H_    0.592855 0.902076 0.568110 0.100499
H46   H     H_    0.881113 0.876449 0.636167 0.124996
H47   H     H_    0.777516 0.114474 0.713919 0.095399
H48   H     H_    0.631178 0.098359 0.663235 0.095450
H49   H     H_    0.605922 0.210949 0.636435 0.100270
H50   H     H_    0.727097 0.341680 0.665801 0.108844
H51   H     H_    0.874108 0.360261 0.718418 0.099870
H52   H     H_    0.622248 0.620231 0.364226 0.125485
H53   H     H_    0.591505 0.712600 0.295192 0.100065
H54   H     H_    0.557795 0.689199 0.149082 0.110601
H55   H     H_    0.033450 0.155276 0.195009 0.127861
H56   H     H_    0.444677 0.863000 0.545045 0.095661
H57   H     H_    0.075081 0.115619 0.125580 0.121156
H58   H     H_    0.951107 0.965530 0.052189 0.158140
H59   H     H_    0.013627 0.009227 0.167261 0.098016
H60   H     H_    0.910287 0.004612 0.122077 0.160985
H61   H     H_    0.000893 0.431211 0.348360 0.135426
H62   H     H_    0.031874 0.371555 0.278936 0.135047
H63   H     H_    0.974678 0.321732 0.324314 0.137091
H64   H     H_    0.490384 0.174961 0.654878 0.114766
H65   H     H_    0.473263 0.193148 0.746452 0.121303
H66   H     H_    0.519239 0.347683 0.784432 0.135130
H67   H     H_    0.321408 0.716104 0.431823 0.086683
H68   H     H_    0.600327 0.321072 0.774788 0.113739
H69   H     H_    0.529045 0.327462 0.688653 0.164241
H70   H     H_    0.858029 0.584483 0.502332 0.126806
H71   H     H_    0.797021 0.602449 0.420903 0.146901
H72   H     H_    0.827818 0.520016 0.391223 0.134631
H73   H     H_    0.145655 0.704260 0.367975 0.104337
H74   H     H_    0.130149 0.639810 0.262650 0.132487
H75   H     H_    0.080868 0.507659 0.275830 0.177366
H76   H     H_    0.186334 0.592564 0.367708 0.104423
H77   H     H_    0.091196 0.571361 0.378662 0.155327
H78   H     H_    0.494677 0.644956 0.364014 0.090327
H79   H     H_    0.462719 0.287216 0.882193 0.129842
H80   H     H_    0.363727 0.181467 0.807085 0.143633
H81   H     H_    0.379769 0.150629 0.927463 0.156657
H82   H     H_    0.473542 0.172225 0.913394 0.088155
H83   H     H_    0.478552 0.255209 0.001510 0.165938
H84   H     H_    0.617268 0.793763 0.476938 0.117780
O1    O     O_R   0.410050 0.552190 0.462250 -0.494956
O2    O     O_R   0.951650 0.357670 0.913630 -0.497070
O3    O     O_R   0.145040 0.552210 0.092780 -0.519471
O4    O     O_R   0.410760 0.447830 0.358560 -0.515479
O5    O     O_R   0.040660 0.447850 0.092810 -0.495910
O6    O     O_R   0.054850 0.642400 0.092760 -0.514886
O7    O     O_R   0.950470 0.538040 0.092790 -0.472556
O8    O     O_R   0.965850 0.552220 0.913580 -0.509654
O9    O     O_R   0.861470 0.447860 0.913610 -0.504872
O10   O     O_R   0.589820 0.642360 0.551840 -0.491636
O11   O     O_R   0.590530 0.538000 0.448150 -0.517331
O12   O     O_R   0.948740 0.909840 0.358530 -0.513858
O13   O     O_R   0.589240 0.552170 0.641440 -0.503409
O14   O     O_R   0.589950 0.447810 0.537750 -0.511929
O15   O     O_R   0.409470 0.462000 0.551850 -0.515635
O16   O     O_R   0.410180 0.357640 0.448160 -0.515079
O17   O     O_R   0.052450 0.909800 0.462220 -0.504780
O18   O     O_3   0.957930 0.114236 0.065647 -0.565354
O19   O     O_3   0.384372 0.194052 0.647307 -0.573628
O20   O     O_3   0.016566 0.612594 0.268950 -0.540076
O21   O     O_3   0.358091 0.274879 0.901612 -0.565115
O22   O     O_R   0.961680 0.909780 0.551820 -0.512752
O23   O     O_R   0.857970 0.909820 0.448140 -0.501593
O24   O     O_R   0.051260 0.090120 0.641420 -0.503293
O25   O     O_R   0.947550 0.090150 0.537740 -0.514468
O26   O     O_R   0.142030 0.090140 0.551820 -0.486048
O27   O     O_R   0.038320 0.090170 0.448130 -0.521857
O28   O     O_R   0.056040 0.462030 0.913600 -0.516665

loop_
_geom_bond_atom_site_label_1
_geom_bond_atom_site_label_2
_ccdc_geom_bond_type
C28   O10   A    
C55   C56   A    
C28   O11   A    
Cu2   O16   S    
C102  C103  A    
C101  C113  A    
C37   H84   S    
C6    C7    A    
C116  H41   S    
Cu1   O15   S    
C19   C20   S    
C11   H59   S    
C76   C79   S    
C61   H15   S    
C24   C89   S    
C41   C80   S    
C112  C114  A    
C114  C115  A    
C7    C8    A    
C12   H62   S    
C45   C46   A    
C108  C109  A    
C105  C107  A    
C77   C89   A    
C26   C27   A    
C93   C94   A    
C51   C62   A    
C10   H57   S    
C21   C22   A    
C36   C37   A    
C95   C106  A    
C76   C78   D    
C3    C116  A    
C30   C31   A    
C14   H64   S    
C114  H40   S    
C40   C115  S    
C108  H36   S    
C12   H63   S    
C94   H30   S    
C115  C116  A    
C98   C99   A    
C19   H79   S    
Cu6   O9    S    
Cu4   O25   S    
C34   C35   A    
Cu5   O6    S    
C61   C63   A    
C2    C13   A    
C19   O21   S    
C110  C111  A    
C15   H69   S    
C16   H71   S    
C16   H70   S    
Cu3   O24   S    
C41   O13   A    
C12   C59   S    
C47   C48   A    
C8    C9    A    
C18   H77   S    
C12   H61   S    
C18   H76   S    
C50   C52   A    
C107  C108  A    
C62   C73   A    
C69   C75   A    
C70   C71   A    
C77   H14   S    
Cu5   O3    S    
C73   H49   S    
C73   C84   A    
C10   O18   S    
C25   C32   A    
C105  H32   S    
C4    C112  A    
C59   C60   A    
C112  O21   S    
C55   C60   A    
C63   C85   S    
C27   C30   A    
C87   O3    A    
C72   H19   S    
C85   O26   A    
C20   H83   S    
C92   H29   S    
C81   O17   A    
C93   C104  S    
Cu3   O17   S    
C90   O9    A    
C22   H52   S    
C52   C54   A    
Cu3   O22   S    
C56   H11   S    
C39   C42   A    
C34   H67   S    
C38   H45   S    
C62   H48   S    
C21   C32   S    
C44   H3    S    
C16   C96   S    
C65   C77   A    
C88   O7    A    
C1    O1    A    
C67   C68   A    
Cu6   O2    S    
C79   H24   S    
C51   H47   S    
C66   C67   A    
C20   H82   S    
C14   O19   S    
C72   C74   A    
C74   C75   A    
C86   O2    A    
C91   C92   A    
C60   H9    S    
C48   O18   S    
Cu1   O1    S    
C25   C26   A    
C82   O22   A    
C13   C82   S    
C9    C40   A    
C78   C90   S    
C39   H2    S    
C79   C80   D    
C84   C95   A    
C64   C66   A    
Cu1   O10   S    
C43   C44   A    
C37   C38   A    
C19   H80   S    
C50   H7    S    
C78   H22   S    
Cu4   O27   S    
C53   O16   A    
C17   O20   S    
C25   H53   S    
C43   C54   S    
C99   C100  A    
C66   H16   S    
C26   H54   S    
C23   C24   A    
C96   C97   A    
Cu2   O11   S    
C100  C102  A    
C17   C18   S    
C7    C106  S    
C13   C21   A    
C86   O28   A    
C23   C28   S    
C91   C97   A    
C94   C96   A    
C102  H31   S    
Cu5   Cu6   S    
C95   H51   S    
C8    H44   S    
C3    H42   S    
C9    C83   S    
C47   C54   A    
C29   C65   A    
Cu3   O26   S    
C48   C49   A    
C10   H55   S    
C82   O23   A    
Cu5   O28   S    
C5    H43   S    
C39   C46   A    
Cu2   O14   S    
C49   C50   A    
C85   O27   A    
C17   H73   S    
C42   C43   A    
C57   C68   S    
C3    C4    A    
C109  H37   S    
C2    H46   S    
C90   O8    A    
C41   O14   A    
C110  H38   S    
C44   C45   A    
C30   H23   S    
C81   C103  S    
C56   C57   A    
C49   H6    S    
C29   C113  A    
C101  H25   S    
C89   C101  A    
C1    O4    A    
C14   C15   S    
C27   H12   S    
C87   O5    A    
C15   H68   S    
C31   C32   A    
C36   H78   S    
C20   H81   S    
C84   H50   S    
C69   O19   S    
Cu4   O23   S    
C91   H28   S    
Cu3   Cu4   S    
C47   H5    S    
C71   H18   S    
C42   C87   S    
C83   O24   A    
C58   H13   S    
C15   H66   S    
C18   H75   S    
C33   C38   A    
C6    C86   S    
Cu6   O7    S    
Cu2   O4    S    
C52   H8    S    
C65   H4    S    
C58   C59   A    
C71   C72   A    
C74   H20   S    
Cu1   Cu2   S    
Cu5   O8    S    
C2    C24   A    
C14   H65   S    
Cu6   O5    S    
C61   C68   A    
C1    C45   S    
C57   C58   A    
C5    C6    A    
C83   O25   A    
C88   O6    A    
C51   C106  A    
C98   C104  A    
C81   O12   A    
C29   H1    S    
C92   C93   A    
C64   C75   S    
C33   C34   A    
Cu1   O13   S    
C4    H39   S    
C11   H60   S    
C69   C70   A    
C53   C67   S    
C35   C36   A    
C88   C99   S    
C16   H72   S    
C10   C11   S    
C63   C64   A    
C105  C111  A    
C76   H21   S    
C31   H34   S    
C80   H26   S    
C100  C111  S    
Cu4   O12   S    
C55   H10   S    
C33   H56   S    
C5    C40   A    
C103  C104  A    
C97   H27   S    
C22   C23   A    
C17   H74   S    
C11   H58   S    
C113  H35   S    
C109  C110  A    
C35   C46   S    
C53   O15   A    
C107  H33   S    
C98   O20   S    
C70   H17   S    
