data_mof_unit_16546.cif
_audit_creation_date              2012-12-11T14:35:49-0500
_audit_creation_method            fapswitch 2.2
_symmetry_space_group_name_H-M    P1
_symmetry_Int_Tables_number       1
_space_group_crystal_system       triclinic
_cell_length_a                    14.689305
_cell_length_b                    15.842804
_cell_length_c                    6.914718
_cell_angle_alpha                 89.999258
_cell_angle_beta                  81.091084
_cell_angle_gamma                 90.000076
_cell_volume                      1589.77800758

loop_
_atom_site_label
_atom_site_type_symbol
_atom_type_description
_atom_site_fract_x
_atom_site_fract_y
_atom_site_fract_z
_atom_type_partial_charge
O1    O     O_R   0.337460 0.413110 0.524760 -0.538692
O2    O     O_R   0.662540 0.913110 0.475240 -0.538690
O3    O     O_R   0.348690 0.587910 0.191230 -0.544069
O4    O     O_R   0.651310 0.087910 0.808770 -0.544071
O5    O     O_R   0.166530 0.586890 0.082470 -0.542804
O6    O     O_R   0.833470 0.086890 0.917530 -0.542807
C1    C     C_R   0.371259 0.616126 0.353379 0.759443
C2    C     C_R   0.628743 0.116128 0.646619 0.759430
O7    O     O_R   0.348700 0.413830 0.191250 -0.546582
O8    O     O_R   0.651300 0.913830 0.808750 -0.546580
O9    O     O_R   0.166530 0.411570 0.082490 -0.542899
O10   O     O_R   0.833470 0.911570 0.917510 -0.542898
C3    C     C_R   0.369272 0.383925 0.353762 0.750230
C4    C     C_R   0.630725 0.883927 0.646240 0.750234
O11   O     O_R   0.337460 0.588430 0.524740 -0.537585
O12   O     O_R   0.662540 0.088430 0.475260 -0.537585
O13   O     O_3   0.192230 0.499460 0.407330 -0.376312
O14   O     O_3   0.807770 0.999460 0.592670 -0.376311
V1    V     V_3+5 0.263080 0.500100 0.108540 1.385061
V2    V     V_3+5 0.736920 0.000100 0.891460 1.385056
O15   O     O_R   0.155290 0.412090 0.756570 -0.544971
O16   O     O_R   0.844710 0.912090 0.243430 -0.544971
C5    C     C_R   0.134027 0.381855 0.932763 0.658641
C6    C     C_R   0.865973 0.881856 0.067237 0.658636
O17   O     O_R   0.155290 0.586170 0.756550 -0.542823
O18   O     O_R   0.844710 0.086170 0.243450 -0.542823
C7    C     C_R   0.133592 0.616278 0.932515 0.668963
C8    C     C_R   0.866409 0.116277 0.067484 0.668957
V3    V     V_3+5 0.240910 0.499900 0.616030 1.386420
V4    V     V_3+5 0.759090 0.999900 0.383970 1.386419
O19   O     O_3   0.311760 0.500540 0.867100 -0.366889
O20   O     O_3   0.688240 0.000540 0.132900 -0.366889
C9    C     C_3   0.101698 0.767001 0.065425 -0.088305
C10   C     C_3   0.898300 0.267005 0.934586 -0.088311
H1    H     H_    0.111602 0.745706 0.214474 0.098396
H2    H     H_    0.888401 0.245718 0.785524 0.098401
C11   C     C_3   0.028052 0.838795 0.099204 -0.341484
C12   C     C_3   0.971945 0.338800 0.900836 -0.341524
H3    H     H_    0.052575 0.898071 0.021986 0.122498
H4    H     H_    0.947430 0.398063 0.978077 0.122513
H5    H     H_    0.014903 0.854956 0.257835 0.128189
H6    H     H_    0.985086 0.354978 0.742229 0.128197
H7    H     H_    0.995325 0.637605 0.250795 0.138798
H8    H     H_    0.004675 0.137595 0.749196 0.138787
H9    H     H_    0.887983 0.743607 0.305867 0.137479
H10   H     H_    0.111979 0.243626 0.694115 0.137505
C13   C     C_3   0.975880 0.657954 0.108647 -0.349890
C14   C     C_3   0.024122 0.157955 0.891344 -0.349876
C15   C     C_3   0.028411 0.714009 0.773902 -0.321168
C16   C     C_3   0.971590 0.214005 0.226105 -0.321142
C17   C     C_3   0.062989 0.687817 0.966850 0.077432
C18   C     C_3   0.937011 0.187816 0.033151 0.077454
H11   H     H_    0.994165 0.659087 0.714932 0.138006
H12   H     H_    0.005822 0.159077 0.285099 0.137992
H13   H     H_    0.086571 0.730930 0.658308 0.131933
H14   H     H_    0.913427 0.230943 0.341688 0.131931
C19   C     C_3   0.936983 0.811007 0.031589 0.100639
C20   C     C_3   0.063018 0.311007 0.968412 0.100620
C21   C     C_3   0.902680 0.729791 0.146263 -0.327866
C22   C     C_3   0.097310 0.229799 0.853704 -0.327903
C23   C     C_3   0.958409 0.787462 0.810146 -0.309893
C24   C     C_3   0.041608 0.287445 0.189846 -0.309899
H15   H     H_    0.985831 0.843378 0.722811 0.132040
H16   H     H_    0.014211 0.343356 0.277215 0.132056
H17   H     H_    0.893745 0.768494 0.756492 0.136074
H18   H     H_    0.106275 0.268455 0.243448 0.136073
H19   H     H_    0.944966 0.602020 0.046164 0.130061
H20   H     H_    0.055047 0.102025 0.953839 0.130066
H21   H     H_    0.837071 0.708222 0.100858 0.129308
H22   H     H_    0.162928 0.208234 0.899045 0.129311
H23   H     H_    0.563180 0.809118 0.350755 0.151865
H24   H     H_    0.436824 0.309120 0.649245 0.151857
H25   H     H_    0.438615 0.691125 0.648721 0.165044
H26   H     H_    0.561386 0.191125 0.351267 0.165033
C25   C     C_2   0.441194 0.683211 0.342524 -0.355931
C26   C     C_2   0.558809 0.183213 0.657473 -0.355918
C27   C     C_2   0.468008 0.714902 0.505053 -0.114361
C28   C     C_2   0.531994 0.214903 0.494940 -0.114339
H27   H     H_    0.538262 0.786781 0.798283 0.127721
H28   H     H_    0.461733 0.286780 0.201715 0.127713
C29   C     C_2   0.564758 0.813563 0.656014 -0.354894
C30   C     C_2   0.435237 0.313561 0.343986 -0.354878
C31   C     C_2   0.536589 0.782990 0.493763 -0.133935
C32   C     C_2   0.463412 0.282990 0.506235 -0.133925
H29   H     H_    0.471230 0.706984 0.199396 0.123273
H30   H     H_    0.528773 0.206986 0.800606 0.123258
C33   C     C_R   0.194443 0.801167 0.965642 0.086869
C34   C     C_R   0.271160 0.797154 0.064985 -0.131264
C35   C     C_R   0.352529 0.840028 0.993055 -0.133116
C36   C     C_R   0.358951 0.886486 0.820015 -0.078424
C37   C     C_R   0.285006 0.888555 0.715963 -0.124759
C38   C     C_R   0.203062 0.846926 0.788566 -0.134912
H31   H     H_    0.266944 0.763776 0.202713 0.095962
H32   H     H_    0.409939 0.838904 0.073937 0.105968
H33   H     H_    0.420810 0.921834 0.767460 0.107540
H34   H     H_    0.290050 0.924877 0.582128 0.109070
H35   H     H_    0.145368 0.855423 0.711492 0.100901
C39   C     C_R   0.805547 0.301164 0.034369 0.086841
C40   C     C_R   0.728823 0.297125 0.935039 -0.131246
C41   C     C_R   0.647447 0.340002 0.006944 -0.133099
C42   C     C_R   0.641031 0.386496 0.179937 -0.078416
C43   C     C_R   0.714980 0.388585 0.283988 -0.124733
C44   C     C_R   0.796926 0.346944 0.211423 -0.134907
H36   H     H_    0.733038 0.263723 0.797339 0.095969
H37   H     H_    0.590030 0.338854 0.926078 0.105952
H38   H     H_    0.579170 0.421855 0.232461 0.107524
H39   H     H_    0.709937 0.424931 0.417791 0.109063
H40   H     H_    0.854623 0.355448 0.288500 0.100893

loop_
_geom_bond_atom_site_label_1
_geom_bond_atom_site_label_2
_ccdc_geom_bond_type
C20   C24   S    
C5    C20   S    
V4    O20   S    
C33   C34   A    
C42   C43   A    
O11   V3    S    
O13   V3    S    
O4    C2    A    
V1    O19   S    
C36   H33   S    
O9    V1    S    
C41   H37   S    
C16   H12   S    
C26   C28   D    
C12   H6    S    
O3    C1    A    
C19   C21   S    
C27   C31   S    
O12   V4    S    
C39   C44   A    
C2    C26   S    
O7    V1    S    
C35   H32   S    
C23   H15   S    
O7    C3    A    
C24   H16   S    
C10   C39   S    
C37   H34   S    
O5    C7    A    
C25   H29   S    
O6    C8    A    
O8    V2    S    
C6    C19   S    
C15   C17   S    
C16   C18   S    
O3    V1    S    
C44   H40   S    
O14   V4    S    
C10   H2    S    
C1    O11   A    
C40   H36   S    
C2    O12   A    
C12   C20   S    
C33   C38   A    
C13   H19   S    
C29   C31   D    
C7    C17   S    
C38   H35   S    
C14   C22   S    
H23   C31   S    
O17   V3    S    
C15   C23   S    
C24   H18   S    
H28   C30   S    
O8    C4    A    
C37   C38   A    
H27   C29   S    
O13   V1    S    
C1    C25   S    
C15   H13   S    
O15   V3    S    
C3    C30   S    
C16   H14   S    
C9    C17   S    
C23   H17   S    
C40   C41   A    
C22   H22   S    
O10   V2    S    
O1    V3    S    
C43   H39   S    
C14   H20   S    
C25   C27   D    
H24   C32   S    
C21   H21   S    
O18   V4    S    
C30   C32   D    
O15   C5    A    
C16   C24   S    
O16   C6    A    
O1    C3    A    
C26   H30   S    
V2    O20   S    
C42   H38   S    
C34   H31   S    
H9    C21   S    
O16   V4    S    
H10   C22   S    
C10   C12   S    
O18   C8    A    
C13   C17   S    
C19   C23   S    
O5    V1    S    
O17   C7    A    
O6    V2    S    
O10   C6    A    
C10   C18   S    
O2    V4    S    
C9    C33   S    
V3    O19   S    
C12   H4    S    
C8    C18   S    
C36   C37   A    
H7    C13   S    
C15   H11   S    
O9    C5    A    
C41   C42   A    
C9    H1    S    
O14   V2    S    
C11   H5    S    
C43   C44   A    
O2    C4    A    
C9    C11   S    
C13   C21   S    
O4    V2    S    
C28   C32   S    
C14   C18   S    
C34   C35   A    
C11   H3    S    
C39   C40   A    
H26   C28   S    
H25   C27   S    
C4    C29   S    
C35   C36   A    
C20   C22   S    
C11   C19   S    
H8    C14   S    
