data_mof_unit_39327.cif
_audit_creation_date              2013-03-05T15:53:46-0500
_audit_creation_method            fapswitch 2.2
_symmetry_space_group_name_H-M    P1
_symmetry_Int_Tables_number       1
_space_group_crystal_system       triclinic
_cell_length_a                    10.665774
_cell_length_b                    10.697678
_cell_length_c                    9.925957
_cell_angle_alpha                 89.410944
_cell_angle_beta                  89.895283
_cell_angle_gamma                 90.839946
_cell_volume                      1132.35816634

loop_
_atom_site_label
_atom_site_type_symbol
_atom_site_description
_atom_site_fract_x
_atom_site_fract_y
_atom_site_fract_z
_atom_type_partial_charge
O1    O     O_R   0.500000 0.316780 0.614690 -0.660709
O2    O     O_R   0.499990 0.316750 0.385360 -0.622058
C1    C     C_R   0.506155 0.260919 0.501033 0.898036
O3    O     O_R   0.314800 0.499990 0.614670 -0.625977
O4    O     O_R   0.314790 0.499970 0.385330 -0.636398
C2    C     C_R   0.257915 0.497776 0.500675 0.908596
Zn1   Zn    Zn3+2 0.500010 0.500020 0.653130 0.964964
Zn2   Zn    Zn3+2 0.499990 0.499980 0.346870 1.057112
O5    O     O_R   0.500010 0.683250 0.614640 -0.611771
O6    O     O_R   0.500000 0.683220 0.385310 -0.543459
O7    O     O_R   0.685210 0.500030 0.614670 -0.653603
O8    O     O_R   0.685200 0.500010 0.385330 -0.563859
C3    C     C_R   0.502974 0.739685 0.498779 0.952320
C4    C     C_R   0.741850 0.492447 0.499688 0.868862
C5    C     C_3   0.070120 0.461195 0.645234 -0.343726
H1    H     H_    0.107868 0.525980 0.722732 0.235923
H2    H     H_    0.098904 0.365466 0.675191 0.228448
C6    C     C_3   0.927627 0.468241 0.645020 -0.370673
H3    H     H_    0.886440 0.382225 0.692044 0.215615
H4    H     H_    0.899428 0.547739 0.709615 0.231281
H5    H     H_    0.886636 0.692833 0.512041 0.213299
C7    C     C_3   0.071229 0.623240 0.455651 0.155994
C8    C     C_3   0.075638 0.390832 0.404684 -0.525454
C9    C     C_3   0.121417 0.494100 0.502355 -0.034401
H6    H     H_    0.111845 0.412869 0.301937 0.201794
H7    H     H_    0.118362 0.299854 0.432393 0.218030
C10   C     C_3   0.878655 0.488343 0.498313 -0.078186
C11   C     C_3   0.927590 0.618059 0.449221 -0.445192
C12   C     C_3   0.930301 0.382169 0.403640 0.512081
H8    H     H_    0.107191 0.645172 0.352814 0.201012
H9    H     H_    0.896925 0.637605 0.344445 0.251679
H10   H     H_    0.383582 0.119202 0.338459 0.171085
C13   C     C_R   0.680787 0.127205 0.678356 -0.146093
H11   H     H_    0.687627 0.227726 0.683413 0.172559
C14   C     C_R   0.763690 0.060443 0.758851 -0.062646
H12   H     H_    0.827283 0.109955 0.825192 0.203407
C15   C     C_R   0.768272 0.931148 0.749766 0.360422
C16   C     C_R   0.688206 0.868276 0.661856 -0.220797
H13   H     H_    0.700789 0.768784 0.652886 0.155149
C17   C     C_R   0.598440 0.933767 0.583977 0.030219
C18   C     C_R   0.596923 0.064773 0.590041 0.130749
C19   C     C_R   0.515270 0.128884 0.502375 -0.090243
C20   C     C_R   0.443136 0.067440 0.406965 -0.218968
C21   C     C_R   0.442240 0.940003 0.400297 0.351323
C22   C     C_R   0.513993 0.872547 0.495096 -0.195248
C23   C     C_R   0.338700 0.335558 0.141590 -0.198098
H14   H     H_    0.331134 0.331945 0.248231 0.202507
C24   C     C_R   0.260922 0.252599 0.073059 -0.199442
H15   H     H_    0.200281 0.189831 0.130563 0.216350
C25   C     C_R   0.261740 0.249747 0.932837 0.313309
C26   C     C_R   0.340381 0.333634 0.862353 -0.242495
H16   H     H_    0.335008 0.331357 0.755718 0.227356
C27   C     C_R   0.421267 0.418082 0.928926 0.115612
C28   C     C_R   0.421048 0.418412 0.073209 0.133017
N1    N     N_R   0.498810 0.498800 0.142780 -0.167251
C29   C     C_R   0.574837 0.579393 0.069321 0.385068
H17   H     H_    0.635626 0.642275 0.870985 0.177335
C30   C     C_R   0.575009 0.578089 0.926481 -0.121857
N2    N     N_R   0.498760 0.498720 0.857170 -0.137979
Br1   Br    Br    0.880391 0.401907 0.212720 -0.401736
Br2   Br    Br    0.886842 0.840035 0.854430 -0.307076
N3    N     N_R   0.369188 0.882509 0.295228 0.247639
O9    O     O_R   0.290146 0.792372 0.322581 -0.366878
O10   O     O_R   0.367231 0.933342 0.175493 -0.322297
N4    N     N_R   0.653230 0.668979 0.135121 0.222126
O11   O     O_R   0.773939 0.661333 0.120252 -0.347508
O12   O     O_R   0.606857 0.777425 0.162805 -0.330802
N5    N     N_R   0.183130 0.161801 0.861932 0.225073
O13   O     O_R   0.097879 0.096203 0.926024 -0.303818
O14   O     O_R   0.198999 0.143185 0.733661 -0.369368
Br3   Br    Br    0.125709 0.759177 0.574338 -0.344785
N6    N     N_R   0.886895 0.257522 0.450827 0.191650
O15   O     O_R   0.793953 0.200876 0.391065 -0.351664
O16   O     O_R   0.943006 0.199833 0.549347 -0.384487

loop_
_geom_bond_atom_site_label_1
_geom_bond_atom_site_label_2
_geom_bond_distance
_ccdc_geom_bond_type
C5    C6    1.522777 S    
C15   Br2   1.910167 S    
C8    C9    1.551340 S    
C1    C19   1.417159 S    
C5    H2    1.111168 S    
C15   C16   1.393196 A    
C4    C10   1.460476 S    
O4    Zn2   2.011166 S    
C18   C19   1.412101 A    
C6    H4    1.114821 S    
C14   H12   1.082810 S    
N4    O12   1.299583 A    
C12   Br1   1.979382 S    
C13   H11   1.078436 S    
Zn2   O8    2.012639 S    
C12   N6    1.476492 S    
C2    C9    1.455866 S    
C23   C28   1.407256 A    
N1    C29   1.377297 A    
C24   C25   1.392506 A    
C25   C26   1.400429 A    
C27   N2    1.377999 A    
C13   C18   1.418447 A    
C26   H16   1.060614 S    
N4    O11   1.299481 A    
C7    C11   1.533680 S    
C27   C28   1.432185 A    
C16   C17   1.419961 A    
H17   C30   1.082039 S    
N3    O9    1.297758 A    
O3    Zn1   2.012637 S    
C8    C12   1.551599 S    
Zn2   N1    2.026019 S    
Zn2   O6    2.000876 S    
C24   H15   1.083067 S    
C13   C14   1.392724 A    
H10   C20   1.084718 S    
C29   C30   1.418030 A    
Zn1   O7    2.011166 S    
O2    C1    1.290988 A    
C8    H6    1.111659 S    
C20   C21   1.365457 A    
O4    C2    1.294546 A    
O7    C4    1.294189 A    
C7    C9    1.555445 S    
O3    C2    1.285154 A    
C10   C12   1.585867 S    
C19   C20   1.386184 A    
C26   C27   1.410168 A    
C5    H1    1.112684 S    
C23   C24   1.389740 A    
C7    Br3   1.962951 S    
C16   H13   1.079284 S    
C21   C22   1.413051 A    
C3    C22   1.424534 S    
N6    O15   1.301426 A    
N6    O16   1.302256 A    
C6    H3    1.111807 S    
C8    H7    1.112872 S    
Zn1   N2    2.025216 S    
C10   C11   1.548999 S    
Zn1   O5    1.993161 S    
N5    O14   1.301836 A    
O5    C3    1.293474 A    
C28   N1    1.377566 A    
C17   C18   1.403704 A    
O1    Zn1   2.000877 S    
N3    O10   1.302217 A    
C7    H8    1.111360 S    
C17   C22   1.419845 A    
C14   C15   1.388589 A    
C30   N2    1.359934 A    
C23   H14   1.061700 S    
C25   N5    1.440864 S    
C5    C9    1.554296 S    
H5    C11   1.113094 S    
C11   H9    1.109540 S    
O2    Zn2   1.993161 S    
C6    C10   1.561808 S    
C29   N4    1.426710 S    
O8    C4    1.289248 A    
N5    O13   1.301514 A    
O1    C1    1.284088 A    
O6    C3    1.283735 A    
C21   N3    1.440548 S    
