data_mof_unit_55391.cif
_audit_creation_date              2012-12-11T15:37:06-0500
_audit_creation_method            fapswitch 2.2
_symmetry_space_group_name_H-M    P1
_symmetry_Int_Tables_number       1
_space_group_crystal_system       triclinic
_cell_length_a                    16.707853
_cell_length_b                    7.132287
_cell_length_c                    15.180731
_cell_angle_alpha                 89.999984
_cell_angle_beta                  94.51303
_cell_angle_gamma                 90.004802
_cell_volume                      1803.40596729

loop_
_atom_site_label
_atom_site_type_symbol
_atom_type_description
_atom_site_fract_x
_atom_site_fract_y
_atom_site_fract_z
_atom_type_partial_charge
O1    O     O_R   0.578230 0.505720 0.424270 -0.524606
O2    O     O_R   0.421770 0.005720 0.575730 -0.538868
O3    O     O_R   0.412470 0.173950 0.404530 -0.513871
O4    O     O_R   0.587530 0.673950 0.595470 -0.508961
C1    C     C_R   0.385792 0.344967 0.381076 0.785674
C2    C     C_R   0.614337 0.844875 0.618765 0.680702
O5    O     O_R   0.577030 0.175880 0.413670 -0.530643
O6    O     O_R   0.422970 0.675880 0.586330 -0.531501
O7    O     O_R   0.587510 0.007580 0.584940 -0.532157
O8    O     O_R   0.412490 0.507580 0.415060 -0.516137
C3    C     C_R   0.603367 0.344664 0.393373 0.801916
C4    C     C_R   0.396754 0.844684 0.606771 0.731621
O9    O     O_3   0.503240 0.339850 0.556180 -0.368141
O10   O     O_3   0.496760 0.839850 0.443820 -0.347494
V1    V     V_3+5 0.499400 0.064230 0.489580 1.650537
V2    V     V_3+5 0.500600 0.564230 0.510420 1.665392
C5    C     C_1   0.334016 0.854891 0.668784 -0.138154
C6    C     C_1   0.666107 0.354876 0.331363 -0.109077
C7    C     C_1   0.281249 0.865769 0.720039 0.044579
C8    C     C_1   0.718852 0.365752 0.280081 0.049925
C9    C     C_1   0.218996 0.879435 0.780234 0.063638
C10   C     C_1   0.781068 0.379412 0.219843 0.068966
C11   C     C_1   0.166269 0.890209 0.831547 -0.112400
C12   C     C_1   0.833766 0.390183 0.168494 -0.109558
C13   C     C_3   0.733364 0.797318 0.855953 -0.175866
C14   C     C_3   0.266315 0.296176 0.143691 -0.236782
H1    H     H_    0.717974 0.896221 0.908192 0.192087
H2    H     H_    0.280781 0.393940 0.090573 0.142309
C15   C     C_3   0.657539 0.785785 0.784625 -0.117167
C16   C     C_3   0.342727 0.286581 0.214416 -0.117638
H3    H     H_    0.739105 0.587187 0.676873 0.177404
H4    H     H_    0.261372 0.088257 0.322386 0.178704
C17   C     C_3   0.835879 0.769336 0.730522 -0.150453
C18   C     C_3   0.164349 0.270519 0.269515 -0.148288
C19   C     C_3   0.780453 0.084933 0.782500 -0.210775
C20   C     C_3   0.220117 0.585165 0.216739 -0.208070
C21   C     C_3   0.810065 0.884840 0.814958 -0.192869
C22   C     C_3   0.190030 0.384946 0.184825 -0.159640
H5    H     H_    0.832281 0.163899 0.760638 0.086859
H6    H     H_    0.168485 0.664616 0.238673 0.085710
C23   C     C_3   0.685004 0.856005 0.690365 -0.141019
C24   C     C_3   0.315515 0.356719 0.308994 -0.094982
C25   C     C_3   0.758255 0.732219 0.665440 -0.246713
C26   C     C_3   0.242190 0.233223 0.334111 -0.286807
C27   C     C_3   0.715436 0.066224 0.702814 -0.179178
C28   C     C_3   0.285461 0.566868 0.296210 -0.173695
H7    H     H_    0.662426 0.150860 0.715845 0.224801
H8    H     H_    0.338845 0.650108 0.282711 0.256329
O11   O     O_R   0.087480 0.241090 0.084980 -0.541851
O12   O     O_R   0.912520 0.741090 0.915020 -0.541594
O13   O     O_R   0.922960 0.569060 0.086330 -0.534258
O14   O     O_R   0.077040 0.069060 0.913670 -0.534058
C29   C     C_R   0.896416 0.400304 0.106369 0.714798
C30   C     C_R   0.103590 0.900313 0.893639 0.715095
O15   O     O_R   0.087520 0.570920 0.095480 -0.555071
O16   O     O_R   0.912480 0.070920 0.904520 -0.553576
O17   O     O_R   0.078240 0.739160 0.924260 -0.527749
O18   O     O_R   0.921760 0.239160 0.075740 -0.526910
C31   C     C_R   0.117506 0.401596 0.115380 0.635303
C32   C     C_R   0.882466 0.901580 0.884618 0.633557
O19   O     O_3   0.996740 0.404980 0.943840 -0.361858
O20   O     O_3   0.003260 0.904980 0.056160 -0.362082
V3    V     V_3+5 0.000600 0.680640 0.010420 1.489997
V4    V     V_3+5 0.999400 0.180640 0.989580 1.491829
C33   C     C_2   0.748693 0.627197 0.914231 0.388422
H9    H     H_    0.801679 0.543864 0.911216 0.036950
O21   O     O_2   0.702015 0.586047 0.969224 -0.497308
C34   C     C_2   0.250630 0.125042 0.086243 0.372477
H10   H     H_    0.197873 0.041307 0.090327 0.051443
O22   O     O_2   0.296649 0.083619 0.030610 -0.519269
C35   C     C_2   0.746061 0.154090 0.620836 0.446158
H11   H     H_    0.803286 0.113196 0.598109 0.098280
O23   O     O_2   0.707596 0.276580 0.580480 -0.514666
C36   C     C_2   0.255242 0.655995 0.378105 0.423450
H12   H     H_    0.198117 0.615623 0.401257 0.103845
O24   O     O_2   0.293928 0.778911 0.417893 -0.508440
C37   C     C_2   0.902171 0.878652 0.687406 0.457391
H13   H     H_    0.932026 0.996391 0.720997 0.036130
O25   O     O_2   0.928590 0.826569 0.618761 -0.473720
C38   C     C_2   0.098526 0.380938 0.312878 0.457137
H14   H     H_    0.068704 0.498646 0.279234 0.034330
O26   O     O_2   0.072380 0.329704 0.381809 -0.472983
C39   C     C_2   0.773545 0.718939 0.567684 0.846585
O27   O     O_2   0.743540 0.829338 0.513046 -0.571825
O28   O     O_R   0.821048 0.572004 0.540012 -0.609488
H15   H     H_    0.826363 0.573468 0.473941 0.323313
C40   C     C_2   0.227081 0.219734 0.431922 0.844550
O29   O     O_2   0.256534 0.331162 0.486414 -0.576707
O30   O     O_R   0.180083 0.071995 0.459733 -0.606734
H16   H     H_    0.174750 0.073578 0.525800 0.325135
C41   C     C_2   0.589843 0.911941 0.812329 0.404331
H17   H     H_    0.553967 0.994167 0.763778 0.034580
O31   O     O_2   0.570823 0.913061 0.888472 -0.481134
C42   C     C_2   0.409215 0.412615 0.183454 0.340056
H18   H     H_    0.410631 0.448118 0.114061 0.136638
O32   O     O_2   0.465743 0.462897 0.233812 -0.539099
C43   C     C_2   0.618833 0.591126 0.785851 0.391058
H19   H     H_    0.586542 0.551364 0.842391 0.161282
O33   O     O_2   0.622261 0.476145 0.727172 -0.525385
C44   C     C_2   0.381944 0.092847 0.212985 0.445702
H20   H     H_    0.414333 0.054092 0.156348 0.131368
O34   O     O_2   0.378745 0.977609 0.271608 -0.512385
C45   C     C_2   0.871065 0.577743 0.756432 0.510272
H21   H     H_    0.832041 0.470485 0.778109 -0.033451
O35   O     O_2   0.942051 0.539918 0.752101 -0.498935
C46   C     C_2   0.128618 0.079079 0.244190 0.511067
H22   H     H_    0.167382 0.970403 0.223324 -0.028511
O36   O     O_2   0.057420 0.042942 0.248103 -0.499880
C47   C     C_2   0.752002 0.201824 0.858343 0.377636
H23   H     H_    0.794070 0.241297 0.912692 0.066038
O37   O     O_2   0.681635 0.241452 0.863913 -0.501133
C48   C     C_2   0.248360 0.701084 0.140477 0.351372
H24   H     H_    0.206506 0.737650 0.085425 0.073088
O38   O     O_2   0.318447 0.743922 0.135523 -0.516250

loop_
_geom_bond_atom_site_label_1
_geom_bond_atom_site_label_2
_ccdc_geom_bond_type
C1    C24   S    
C3    C6    S    
O15   C31   A    
C27   C35   S    
C25   C39   S    
O1    C3    A    
C15   C41   S    
C40   O29   D    
O2    C4    A    
C2    O7    A    
C48   O38   D    
C43   H19   S    
C37   H13   S    
O5    C3    A    
C36   O24   D    
C19   C21   S    
C47   O37   D    
C46   H22   S    
C16   C44   S    
C24   C28   S    
O19   V3    S    
O20   V4    S    
C13   C21   S    
C34   H10   S    
C33   O21   D    
C2    C23   S    
O15   V3    S    
C4    C5    S    
C20   C48   S    
O16   V4    S    
C20   C28   S    
C26   C40   S    
C19   C47   S    
C18   C38   S    
C37   O25   D    
O6    V2    S    
O11   V4    S    
C18   C22   S    
C13   C15   S    
O12   V3    S    
C23   C25   S    
C24   C26   S    
C48   H24   S    
C43   O33   D    
O14   C30   A    
O17   V3    S    
C27   H7    S    
O18   V4    S    
C28   H8    S    
C36   H12   S    
C18   C46   S    
C20   H6    S    
O13   V3    S    
O4    C2    A    
O14   V4    S    
C41   H17   S    
C35   O23   D    
C14   C22   S    
C12   C29   S    
O28   H15   S    
C17   C21   S    
O16   C32   A    
O13   C29   A    
C17   C25   S    
O4    V2    S    
O19   V4    S    
C19   H5    S    
O20   V3    S    
C41   O31   D    
C39   O27   D    
O6    C4    A    
C44   O34   D    
H4    C26   S    
C13   C33   S    
C45   O35   D    
O1    V2    S    
C42   O32   D    
O2    V1    S    
H3    C25   S    
C38   O26   D    
C39   O28   S    
C8    C10   S    
C14   C16   S    
C9    C11   T    
C10   C12   T    
C19   C27   S    
C28   C36   S    
O3    V1    S    
C11   C30   S    
C18   C26   S    
C15   C23   S    
C17   C45   S    
C38   H14   S    
O3    C1    A    
C29   O18   A    
C13   H1    S    
C14   H2    S    
O11   C31   A    
C15   C43   S    
O12   C32   A    
C20   C22   S    
O7    V1    S    
C14   C34   S    
C1    O8    A    
C16   C42   S    
O8    V2    S    
C47   H23   S    
C17   C37   S    
C46   O36   D    
O5    V1    S    
C44   H20   S    
C5    C7    T    
C6    C8    T    
C42   H18   S    
C21   C32   S    
C22   C31   S    
C35   H11   S    
C34   O22   D    
C33   H9    S    
O9    V2    S    
C45   H21   S    
C40   O30   S    
C23   C27   S    
O10   V1    S    
C16   C24   S    
O30   H16   S    
C7    C9    S    
C30   O17   A    
