data_mof_unit_6058.cif
_audit_creation_date              2013-03-05T16:31:43-0500
_audit_creation_method            fapswitch 2.2
_symmetry_space_group_name_H-M    P1
_symmetry_Int_Tables_number       1
_space_group_crystal_system       triclinic
_cell_length_a                    14.125726
_cell_length_b                    14.918896
_cell_length_c                    14.999806
_cell_angle_alpha                 90.547586
_cell_angle_beta                  69.431476
_cell_angle_gamma                 91.412571
_cell_volume                      2958.65265668

loop_
_atom_site_label
_atom_site_type_symbol
_atom_site_description
_atom_site_fract_x
_atom_site_fract_y
_atom_site_fract_z
_atom_type_partial_charge
O1    O     O_R   0.420530 0.630930 0.499990 -0.629265
O2    O     O_R   0.579470 0.369070 0.500010 -0.616923
O3    O     O_R   0.579480 0.630940 0.499990 -0.617927
O4    O     O_R   0.420520 0.369060 0.500010 -0.625496
C1    C     C_R   0.501506 0.672104 0.498571 0.866296
C2    C     C_R   0.497660 0.327377 0.502469 0.874140
O5    O     O_R   0.375120 0.499990 0.632240 -0.587601
O6    O     O_R   0.624880 0.500010 0.367760 -0.585304
O7    O     O_R   0.534080 0.500000 0.632240 -0.560355
O8    O     O_R   0.465920 0.500000 0.367760 -0.573759
C3    C     C_R   0.437942 0.499074 0.677843 0.902700
C4    C     C_R   0.562586 0.496396 0.322094 0.901222
Zn1   Zn    Zn3+2 0.393860 0.499990 0.500000 0.944674
Zn2   Zn    Zn3+2 0.606140 0.500010 0.500000 0.954517
C5    C     C_R   0.401730 0.479702 0.780922 -0.349859
C6    C     C_R   0.599309 0.470614 0.220011 -0.347454
C7    C     C_R   0.264481 0.441764 0.927727 -0.282665
C8    C     C_R   0.725372 0.402331 0.081779 -0.274968
C9    C     C_R   0.297759 0.479512 0.836795 0.458328
C10   C     C_R   0.700604 0.444809 0.170535 0.433937
C11   C     C_R   0.472108 0.451732 0.821969 0.413512
C12   C     C_R   0.527574 0.458886 0.175116 0.419958
C13   C     C_R   0.438225 0.407939 0.910838 -0.024206
C14   C     C_R   0.550012 0.405819 0.092396 -0.039318
C15   C     C_R   0.333721 0.408986 0.966147 -0.050757
C16   C     C_R   0.651576 0.385017 0.041205 -0.040392
C17   C     C_R   0.506800 0.377607 0.953257 -0.109615
C18   C     C_R   0.475738 0.383711 0.052569 -0.119527
C19   C     C_R   0.371441 0.372896 0.106653 0.568491
C20   C     C_R   0.606844 0.349301 0.902603 0.538655
C21   C     C_R   0.300888 0.384362 0.062112 -0.302387
C22   C     C_R   0.678065 0.351301 0.948270 -0.303831
H1    H     H_    0.220947 0.381153 0.104318 0.159256
H2    H     H_    0.755305 0.332930 0.908636 0.157529
H3    H     H_    0.184634 0.443081 0.970381 0.167603
H4    H     H_    0.803205 0.384535 0.043816 0.168997
C23   C     C_R   0.490402 0.911911 0.564466 -0.257503
C24   C     C_R   0.559253 0.091164 0.428216 -0.259248
H5    H     H_    0.491340 0.954199 0.623436 0.163909
H6    H     H_    0.620432 0.053252 0.379066 0.158329
C25   C     C_R   0.501636 0.820554 0.569181 0.123257
C26   C     C_R   0.569332 0.183176 0.432833 0.097638
C27   C     C_R   0.504877 0.767833 0.490074 -0.115098
C28   C     C_R   0.492191 0.230405 0.502301 -0.128058
C29   C     C_R   0.498263 0.805916 0.406318 0.121625
C30   C     C_R   0.404167 0.185192 0.565369 0.122777
C31   C     C_R   0.476402 0.897641 0.406668 0.179310
C32   C     C_R   0.390609 0.092564 0.551252 0.164955
C33   C     C_R   0.475960 0.949804 0.485696 0.003045
C34   C     C_R   0.471786 0.046605 0.485579 0.014305
C35   C     C_R   0.870108 0.439826 0.561208 0.074742
C36   C     C_R   0.133249 0.477141 0.418010 0.082410
C37   C     C_R   0.772071 0.440262 0.556029 -0.015697
C38   C     C_R   0.232417 0.475169 0.420603 -0.045685
H7    H     H_    0.714472 0.393111 0.597715 0.169013
H8    H     H_    0.293876 0.453536 0.358782 0.223609
N1    N     N_R   0.747530 0.500020 0.500000 -0.093920
N2    N     N_R   0.252470 0.499980 0.500000 -0.109940
C39   C     C_R   0.816365 0.562924 0.449686 -0.002558
C40   C     C_R   0.176048 0.527133 0.579267 0.011284
H9    H     H_    0.794483 0.611985 0.408375 0.117632
H10   H     H_    0.192610 0.547778 0.641336 0.166123
C41   C     C_R   0.915008 0.565160 0.451449 -0.341228
C42   C     C_R   0.075929 0.528806 0.581407 -0.335623
H11   H     H_    0.968433 0.615805 0.410488 0.144779
H12   H     H_    0.016924 0.551045 0.645485 0.148652
C43   C     C_R   0.944443 0.502314 0.505450 0.125263
C44   C     C_R   0.052457 0.502473 0.501259 0.123889
C45   C     C_3   0.891299 0.373660 0.627474 -0.433779
C46   C     C_3   0.952689 0.294843 0.573739 -0.877732
H13   H     H_    0.915525 0.262810 0.527031 0.256051
H14   H     H_    0.030597 0.317223 0.530446 0.277548
H15   H     H_    0.957812 0.244161 0.625490 0.249821
H16   H     H_    0.930669 0.407369 0.671162 0.214706
H17   H     H_    0.819213 0.346585 0.678997 0.238647
C47   C     C_3   0.117109 0.453493 0.325828 -0.413819
C48   C     C_3   0.067540 0.360942 0.329551 -0.829477
H18   H     H_    0.109115 0.310219 0.354085 0.258692
H19   H     H_    0.987503 0.361115 0.377901 0.269431
H20   H     H_    0.068916 0.341896 0.257387 0.238948
H21   H     H_    0.071447 0.504673 0.307543 0.199142
H22   H     H_    0.190375 0.454479 0.265985 0.242501
O9    O     O_3   0.437381 0.504118 0.209507 -0.609516
C49   C     C_3   0.446804 0.583515 0.156158 0.073517
H23   H     H_    0.460636 0.567728 0.079932 0.134414
H24   H     H_    0.510180 0.626912 0.160926 0.126552
C50   C     C_3   0.348488 0.634853 0.195960 -0.321685
H25   H     H_    0.284423 0.591072 0.194159 0.220134
H26   H     H_    0.335094 0.653742 0.271222 0.219485
C51   C     C_3   0.352047 0.719254 0.138058 -0.997795
H27   H     H_    0.415998 0.764204 0.137739 0.266423
H28   H     H_    0.280451 0.755869 0.170085 0.268579
H29   H     H_    0.360918 0.701177 0.063557 0.266195
O10   O     O_3   0.573853 0.473017 0.777622 -0.580705
C52   C     C_3   0.597266 0.553353 0.816963 0.105301
H30   H     H_    0.573077 0.549051 0.896016 0.121483
H31   H     H_    0.559125 0.610792 0.798044 0.118567
C53   C     C_3   0.711737 0.569972 0.776453 -0.298293
H32   H     H_    0.750765 0.507420 0.781469 0.236247
H33   H     H_    0.734800 0.588821 0.700125 0.221598
C54   C     C_3   0.745090 0.644114 0.830517 -1.003215
H34   H     H_    0.706069 0.707334 0.828600 0.263070
H35   H     H_    0.827970 0.656169 0.797148 0.267800
H36   H     H_    0.727716 0.623998 0.905850 0.265279
O11   O     O_3   0.776651 0.457154 0.208050 -0.623867
C55   C     C_3   0.809821 0.548146 0.198778 0.127233
H37   H     H_    0.857803 0.558019 0.243057 0.161824
H38   H     H_    0.745684 0.594392 0.227167 0.128434
C56   C     C_3   0.873690 0.573247 0.095618 -0.408237
H39   H     H_    0.937161 0.526137 0.067472 0.229892
H40   H     H_    0.826329 0.568723 0.050179 0.218653
C57   C     C_3   0.916092 0.668978 0.089884 -0.976006
H41   H     H_    0.854175 0.716705 0.122168 0.270108
H42   H     H_    0.955023 0.687975 0.014206 0.277158
H43   H     H_    0.971079 0.674237 0.127587 0.265540
O12   O     O_3   0.227102 0.517911 0.805212 -0.638677
C58   C     C_3   0.234417 0.612699 0.810994 0.094932
H44   H     H_    0.189539 0.641319 0.770880 0.156990
H45   H     H_    0.313362 0.638750 0.776120 0.102162
C59   C     C_3   0.190852 0.646157 0.914368 -0.385689
H46   H     H_    0.115244 0.614283 0.950144 0.239950
H47   H     H_    0.241049 0.627207 0.953577 0.213480
C60   C     C_3   0.181536 0.747897 0.918624 -0.967402
H48   H     H_    0.256838 0.780710 0.883403 0.259973
H49   H     H_    0.151333 0.769929 0.994135 0.270934
H50   H     H_    0.128992 0.769166 0.882866 0.263524
O13   O     O_3   0.336471 0.354668 0.203278 -0.644296
C61   C     C_3   0.363290 0.267369 0.219988 0.077878
H51   H     H_    0.352027 0.262895 0.296973 0.173640
H52   H     H_    0.444525 0.253552 0.180749 0.125947
C62   C     C_3   0.295380 0.196123 0.196516 -0.383378
H53   H     H_    0.214752 0.212910 0.232701 0.233608
H54   H     H_    0.311517 0.194595 0.118478 0.212173
C63   C     C_3   0.313059 0.103460 0.228390 -0.971004
H55   H     H_    0.393030 0.084549 0.191770 0.266195
H56   H     H_    0.263129 0.053546 0.210156 0.267115
H57   H     H_    0.295159 0.102509 0.306659 0.270915
O14   O     O_3   0.637246 0.322359 0.808424 -0.627850
C64   C     C_3   0.606692 0.232128 0.804249 0.053238
H58   H     H_    0.522698 0.225013 0.833833 0.144246
H59   H     H_    0.639883 0.188353 0.844980 0.132837
C65   C     C_3   0.644320 0.201676 0.700064 -0.315990
H60   H     H_    0.611937 0.244566 0.658354 0.231831
H61   H     H_    0.727985 0.209356 0.669617 0.221342
C66   C     C_3   0.615450 0.103834 0.689899 -0.972166
H62   H     H_    0.651775 0.059335 0.726789 0.261090
H63   H     H_    0.641581 0.085373 0.613276 0.275216
H64   H     H_    0.532254 0.093183 0.720482 0.257932
C67   C     C_3   0.510560 0.782094 0.659022 -0.411991
C68   C     C_3   0.620245 0.785977 0.654171 -0.829328
H65   H     H_    0.624640 0.760026 0.721563 0.234952
H66   H     H_    0.668059 0.744281 0.594300 0.272326
H67   H     H_    0.649892 0.856262 0.644400 0.255300
H68   H     H_    0.463624 0.820870 0.722097 0.193377
H69   H     H_    0.481340 0.711847 0.671475 0.181662
C69   C     C_3   0.663032 0.227608 0.361744 -0.361367
C70   C     C_3   0.750834 0.229176 0.398936 -0.803226
H70   H     H_    0.817023 0.265172 0.347568 0.252090
H71   H     H_    0.729749 0.263765 0.468786 0.262650
H72   H     H_    0.772790 0.159667 0.407418 0.239345
H73   H     H_    0.686347 0.190099 0.293259 0.187464
H74   H     H_    0.648200 0.296406 0.343322 0.222638
C71   C     C_3   0.525242 0.750886 0.314699 -0.417206
C72   C     C_3   0.638239 0.759791 0.258356 -0.941917
H75   H     H_    0.682236 0.735091 0.301315 0.262743
H76   H     H_    0.656904 0.719751 0.191864 0.243356
H77   H     H_    0.660147 0.830943 0.238942 0.265036
H78   H     H_    0.504810 0.679047 0.328756 0.214715
H79   H     H_    0.483649 0.771347 0.268457 0.224582
C73   C     C_3   0.329755 0.234322 0.650718 -0.408342
C74   C     C_3   0.376964 0.256508 0.725537 -0.878650
H80   H     H_    0.398428 0.193894 0.752041 0.251650
H81   H     H_    0.444542 0.301079 0.695994 0.257336
H82   H     H_    0.320957 0.290743 0.786727 0.259469
H83   H     H_    0.301610 0.295884 0.629011 0.240049
H84   H     H_    0.260100 0.195038 0.687942 0.216087
C75   C     C_3   0.449369 0.938026 0.326063 -0.419118
C76   C     C_3   0.344239 0.905157 0.330287 -0.890893
H85   H     H_    0.332760 0.831895 0.342741 0.260902
H86   H     H_    0.285112 0.939263 0.389016 0.263702
H87   H     H_    0.333888 0.920205 0.262082 0.259451
H88   H     H_    0.448659 0.012268 0.328673 0.215170
H89   H     H_    0.507135 0.921380 0.256134 0.204728
C77   C     C_3   0.291014 0.042613 0.603598 -0.418312
C78   C     C_3   0.206712 0.072727 0.569328 -0.886936
H90   H     H_    0.191449 0.145155 0.582178 0.255470
H91   H     H_    0.227946 0.060179 0.491776 0.257009
H92   H     H_    0.135914 0.034142 0.607477 0.251212
H93   H     H_    0.296672 0.969217 0.591573 0.220501
H94   H     H_    0.269267 0.050635 0.681807 0.196581

loop_
_geom_bond_atom_site_label_1
_geom_bond_atom_site_label_2
_geom_bond_distance
_ccdc_geom_bond_type
C15   C21   1.398111 A    
C24   H6    1.085697 S    
C50   H25   1.110853 S    
C41   H11   1.082978 S    
C16   C22   1.402014 A    
C70   H70   1.110496 S    
C20   O14   1.383110 S    
C58   H44   1.110190 S    
C37   H7    1.081903 S    
C26   C69   1.518841 S    
C52   H30   1.114734 S    
C8    C16   1.397583 A    
C49   C50   1.527374 S    
O7    Zn2   1.884667 S    
C62   C63   1.521718 S    
C61   H51   1.111343 S    
C63   H57   1.110861 S    
C57   H42   1.109574 S    
C66   H62   1.110637 S    
C78   H90   1.108842 S    
C52   C53   1.529071 S    
C60   H48   1.111124 S    
C31   C33   1.410053 A    
C73   H84   1.102346 S    
C48   H18   1.109995 S    
O12   C58   1.419408 S    
O5    C3    1.297253 A    
C74   H81   1.107633 S    
C18   C19   1.416217 A    
C54   H34   1.109733 S    
O1    C1    1.278539 A    
C42   C44   1.405064 A    
C12   C14   1.408565 A    
C69   C70   1.527912 S    
C14   C16   1.409796 A    
C24   C26   1.380172 A    
C45   C46   1.524904 S    
C58   H45   1.113947 S    
C64   C65   1.531590 S    
C60   H49   1.110494 S    
C25   C67   1.516195 S    
C73   C74   1.523696 S    
N2    C40   1.361484 A    
C75   H88   1.108101 S    
C53   H32   1.111910 S    
C77   C78   1.531346 S    
C40   H10   1.077221 S    
O4    Zn1   1.998408 S    
C3    C5    1.476939 S    
C4    C6    1.483957 S    
C36   C38   1.415992 A    
C68   H67   1.111090 S    
O6    Zn2   1.906749 S    
C21   H1    1.083434 S    
C46   H13   1.111079 S    
C13   C17   1.417079 A    
C36   C44   1.419674 A    
C59   C60   1.525566 S    
C6    C10   1.421935 A    
C29   C31   1.409817 A    
C1    C27   1.433206 S    
C69   H74   1.109242 S    
C54   H35   1.110440 S    
C2    C28   1.446888 S    
C17   C20   1.421812 A    
C23   C25   1.381384 A    
C25   C27   1.405159 A    
C65   C66   1.526554 S    
O2    C2    1.287944 A    
C26   C28   1.412674 A    
C71   H79   1.103953 S    
C57   H41   1.110394 S    
C66   H63   1.110829 S    
C28   C30   1.428401 A    
C76   H85   1.108921 S    
C30   C32   1.414580 A    
C73   H83   1.105572 S    
C48   H19   1.108223 S    
C11   C13   1.409183 A    
C23   H5    1.085241 S    
C74   H82   1.109026 S    
C38   H8    1.077107 S    
C39   H9    1.081522 S    
C78   H91   1.109798 S    
C43   C44   1.504790 S    
C76   H87   1.108853 S    
C47   C48   1.525195 S    
O4    C2    1.279654 A    
C56   C57   1.526399 S    
C47   H22   1.106252 S    
C32   C77   1.527875 S    
C37   N1    1.362198 A    
C78   H92   1.111197 S    
C63   H56   1.110200 S    
Zn1   N2    1.997233 S    
C36   C47   1.515438 S    
C75   H89   1.109652 S    
C32   C34   1.409797 A    
C60   H50   1.110801 S    
C35   C37   1.414171 A    
C42   H12   1.083162 S    
C70   H71   1.109382 S    
C5    C9    1.412200 A    
C67   H68   1.112230 S    
C41   C43   1.406563 A    
C23   C33   1.394646 A    
C51   H28   1.110337 S    
O9    C49   1.413034 S    
C5    C11   1.413152 A    
O6    C4    1.291090 A    
C46   H15   1.110376 S    
C62   H54   1.111271 S    
C45   H16   1.107982 S    
C35   C43   1.421523 A    
C55   H37   1.109836 S    
C49   H23   1.114046 S    
C27   C29   1.417247 A    
O7    C3    1.287966 A    
C74   H80   1.108297 S    
O3    Zn2   1.998409 S    
O8    C4    1.297042 A    
C69   H73   1.112313 S    
C33   C34   1.446871 S    
C54   H36   1.111375 S    
C53   H33   1.111572 S    
C19   O13   1.384350 S    
C68   H66   1.110621 S    
C58   C59   1.536903 S    
O1    Zn1   1.980328 S    
O13   C61   1.414181 S    
C61   C62   1.534229 S    
C66   H64   1.109128 S    
C59   H46   1.109900 S    
C59   H47   1.111156 S    
C51   H29   1.111201 S    
C10   O11   1.384748 S    
C38   N2    1.363463 A    
C48   H20   1.110134 S    
Zn2   N1    1.997233 S    
C72   H75   1.111074 S    
C77   H94   1.109431 S    
C6    C12   1.406901 A    
C65   H60   1.110543 S    
C72   H77   1.110742 S    
C14   C18   1.409252 A    
C49   H24   1.114117 S    
O3    C1    1.280948 A    
O8    Zn1   1.884667 S    
C61   H52   1.113756 S    
C47   H21   1.107632 S    
C76   H86   1.108102 S    
C64   H58   1.113849 S    
C52   H31   1.113537 S    
C63   H55   1.110928 S    
C24   C34   1.390057 A    
C70   H72   1.110778 S    
C53   C54   1.526015 S    
C7    H3    1.084295 S    
O11   C55   1.417089 S    
C39   C41   1.402494 A    
C68   H65   1.108309 S    
C40   C42   1.404132 A    
C7    C15   1.397448 A    
C12   O9    1.385140 S    
C56   H40   1.110845 S    
C71   H78   1.105777 S    
C67   H69   1.109873 S    
C19   C21   1.395465 A    
C67   C68   1.525020 S    
C20   C22   1.401650 A    
C64   H59   1.115167 S    
C51   H27   1.110376 S    
C55   H38   1.110080 S    
C9    O12   1.383611 S    
C72   H76   1.110258 S    
C7    C9    1.396300 A    
C45   H17   1.109072 S    
C8    C10   1.401416 A    
C13   C15   1.417047 A    
C29   C71   1.527661 S    
O10   C52   1.413549 S    
O2    Zn2   1.980326 S    
C71   C72   1.524289 S    
N1    C39   1.359646 A    
O14   C64   1.411034 S    
C30   C73   1.534781 S    
O5    Zn1   1.906748 S    
C31   C75   1.523252 S    
C75   C76   1.532452 S    
C11   O10   1.385180 S    
C50   C51   1.526269 S    
C17   C18   1.400015 A    
C50   H26   1.111807 S    
C77   H93   1.108293 S    
C46   H14   1.108232 S    
C35   C45   1.514739 S    
C56   H39   1.111520 S    
C8    H4    1.084038 S    
C57   H43   1.110899 S    
C65   H61   1.110627 S    
C62   H53   1.109761 S    
C22   H2    1.083895 S    
C55   C56   1.536904 S    
