data_mof_unit_49134.cif
_audit_creation_date              2012-10-26T20:53:56-0400
_audit_creation_method            fapswitch 2.2
_symmetry_space_group_name_H-M    P1
_symmetry_Int_Tables_number       1
_space_group_crystal_system       triclinic
_cell_length_a                    17.742159
_cell_length_b                    16.685898
_cell_length_c                    10.688361
_cell_angle_alpha                 89.458986
_cell_angle_beta                  97.009039
_cell_angle_gamma                 89.971748
_cell_volume                      3140.43275862

loop_
_atom_site_label
_atom_site_type_symbol
_atom_type_description
_atom_site_fract_x
_atom_site_fract_y
_atom_site_fract_z
_atom_type_partial_charge
C1    C     C_R   0.355802 0.500104 0.502057 0.580542
C2    C     C_R   0.434464 0.254263 0.461612 0.302687
C3    C     C_R   0.465741 0.746913 0.396671 0.310505
C4    C     C_R   0.565632 0.254293 0.539731 0.335601
C5    C     C_R   0.499681 0.874417 0.502229 -0.066379
C6    C     C_R   0.500428 0.126345 0.501918 -0.060042
C7    C     C_1   0.500330 0.963742 0.503247 0.230575
C8    C     C_1   0.500570 0.037416 0.503010 0.220884
C9    C     C_R   0.502367 0.500072 0.259713 0.592179
C10   C     C_R   0.499461 0.499428 0.740480 0.602940
C11   C     C_3   0.518359 0.572937 0.041980 -0.079813
C12   C     C_R   0.644281 0.500089 0.498207 0.570239
C13   C     C_3   0.486450 0.423105 0.957635 -0.110390
C14   C     C_3   0.570021 0.520856 0.968124 -0.125910
C15   C     C_3   0.434503 0.474814 0.031623 -0.151261
C16   C     C_3   0.448771 0.548281 0.949639 0.227787
C17   C     C_3   0.555458 0.447885 0.050694 0.238461
C18   C     C_3   0.499909 0.497535 0.876937 -0.017498
C19   C     C_3   0.504343 0.499254 0.123273 -0.023408
C20   C     C_R   0.848384 0.568244 0.541239 0.183548
C21   C     C_R   0.159731 0.436347 0.564713 0.227721
C22   C     C_R   0.151266 0.566915 0.457684 0.184714
C23   C     C_1   0.966531 0.499872 0.503036 0.183191
C24   C     C_R   0.842224 0.434010 0.450385 0.229821
C25   C     C_R   0.769488 0.568156 0.536496 -0.105091
C26   C     C_R   0.238343 0.437002 0.562583 -0.049341
C27   C     C_R   0.229932 0.566605 0.459076 -0.083359
C28   C     C_R   0.763531 0.434527 0.451056 -0.032654
C29   C     C_R   0.726910 0.500744 0.495536 -0.061694
C30   C     C_R   0.273474 0.500867 0.507105 -0.033388
C31   C     C_R   0.885310 0.500603 0.498342 0.002419
C32   C     C_R   0.115595 0.501085 0.509967 0.005071
C33   C     C_1   0.034456 0.500015 0.506760 0.183030
C34   C     C_R   0.521139 0.830102 0.612932 0.190877
C35   C     C_R   0.432298 0.170277 0.490381 0.116592
C36   C     C_R   0.476839 0.832617 0.390699 0.177235
C37   C     C_R   0.568271 0.170548 0.512258 0.190759
C38   C     C_R   0.533176 0.744884 0.605129 0.341848
Cu1   Cu    Cu3+1 0.500000 0.580420 0.500000 1.177824
Cu2   Cu    Cu3+1 0.500000 0.419580 0.500000 1.167920
H1    H     H_    0.538437 0.632756 0.074884 0.222156
H2    H     H_    0.699951 0.292744 0.043075 0.407418
H3    H     H_    0.813980 0.746072 0.622608 0.372812
H4    H     H_    0.159462 0.251375 0.750004 0.407787
H5    H     H_    0.182966 0.742294 0.358505 0.379788
H6    H     H_    0.846023 0.249017 0.271387 0.390018
H7    H     H_    0.564979 0.863289 0.956497 0.393572
H8    H     H_    0.316756 0.202816 0.654156 0.346440
H9    H     H_    0.425944 0.883126 0.048722 0.405654
H10   H     H_    0.760796 0.157590 0.424673 0.396755
H11   H     H_    0.691362 0.751941 0.857966 0.391726
H12   H     H_    0.473881 0.361692 0.921915 0.192520
H13   H     H_    0.321746 0.392297 0.234467 0.352671
H14   H     H_    0.302389 0.758510 0.155729 0.419415
H15   H     H_    0.678451 0.390564 0.766907 0.375346
H16   H     H_    0.625989 0.538601 0.940302 0.197977
H17   H     H_    0.378277 0.456814 0.057586 0.159589
H18   H     H_    0.741370 0.620837 0.566026 0.204001
H19   H     H_    0.272528 0.387917 0.605245 0.201990
H20   H     H_    0.257119 0.617755 0.421545 0.205787
H21   H     H_    0.730401 0.383617 0.414605 0.250024
H22   H     H_    0.290032 0.577108 0.008172 0.352841
N1    N     N_R   0.500000 0.701220 0.500000 -0.314542
N2    N     N_R   0.500000 0.298780 0.500000 -0.296501
O1    O     O_R   0.391260 0.567930 0.500000 -0.450170
O2    O     O_2   0.328100 0.569282 0.773740 -0.313636
O3    O     O_3   0.313688 0.629390 0.992346 -0.425347
O4    O     O_2   0.695575 0.431497 0.172644 -0.284820
O5    O     O_2   0.602045 0.329492 0.216180 -0.219366
O6    O     O_3   0.656631 0.324603 0.001692 -0.442483
O7    O     O_2   0.970090 0.632246 0.680462 -0.174296
O8    O     O_2   0.917808 0.703993 0.488565 -0.180039
O9    O     O_3   0.844269 0.710489 0.684266 -0.440007
O10   O     O_2   0.058664 0.379395 0.711377 -0.222554
O11   O     O_2   0.083208 0.299657 0.528994 -0.149595
O12   O     O_R   0.608740 0.432070 0.500000 -0.456106
O13   O     O_3   0.185594 0.300299 0.724735 -0.495346
O14   O     O_2   0.028357 0.625989 0.313214 -0.182300
O15   O     O_2   0.079956 0.703377 0.497332 -0.166932
O16   O     O_3   0.152810 0.705127 0.300533 -0.441968
O17   O     O_2   0.947733 0.372346 0.317374 -0.220771
O18   O     O_2   0.915231 0.295727 0.500336 -0.172530
O19   O     O_3   0.818910 0.296994 0.296711 -0.464187
O20   O     O_2   0.608493 0.931188 0.760894 -0.199982
O21   O     O_2   0.471524 0.945914 0.757550 -0.222949
O22   O     O_3   0.536011 0.831068 0.889678 -0.400573
O23   O     O_R   0.608740 0.567930 0.500000 -0.480017
O24   O     O_2   0.307063 0.092308 0.387398 -0.103650
O25   O     O_2   0.359865 0.049557 0.598737 -0.222557
O26   O     O_3   0.286604 0.182896 0.576575 -0.395219
O27   O     O_2   0.384984 0.938687 0.257724 -0.186223
O28   O     O_2   0.520690 0.952777 0.245380 -0.234897
O29   O     O_3   0.449433 0.844196 0.112424 -0.406851
O30   O     O_2   0.696047 0.097154 0.618221 -0.159270
O31   O     O_2   0.641935 0.049103 0.411211 -0.229692
O32   O     O_3   0.710959 0.184952 0.420008 -0.422518
O33   O     O_2   0.556344 0.685496 0.841674 -0.241082
O34   O     O_R   0.391260 0.432070 0.500000 -0.479942
O35   O     O_2   0.638816 0.628575 0.702930 -0.305107
O36   O     O_3   0.666345 0.771241 0.775232 -0.453743
O37   O     O_2   0.340376 0.225136 0.252125 -0.176625
O38   O     O_2   0.288004 0.301287 0.413985 -0.240020
O39   O     O_3   0.372811 0.373351 0.270525 -0.505844
O40   O     O_2   0.439118 0.698338 0.157560 -0.216349
O41   O     O_2   0.363688 0.628845 0.295424 -0.289171
O42   O     O_3   0.328015 0.773735 0.239657 -0.445420
O43   O     O_2   0.651014 0.223956 0.757890 -0.184200
O44   O     O_2   0.713323 0.293573 0.598637 -0.236364
O45   O     O_R   0.499980 0.567900 0.316850 -0.472640
O46   O     O_3   0.627341 0.373863 0.728281 -0.484405
O47   O     O_R   0.500020 0.432100 0.683150 -0.478015
O48   O     O_R   0.500020 0.567900 0.683150 -0.423298
O49   O     O_R   0.499980 0.432100 0.316850 -0.419009
O50   O     O_2   0.401597 0.689046 0.838628 -0.129720
S1    S     S_3+6 0.372006 0.610910 0.883306 0.110754
S2    S     S_3+6 0.655680 0.122095 0.492059 0.131857
S3    S     S_3+6 0.598419 0.703291 0.731478 0.088398
S4    S     S_3+6 0.357512 0.289125 0.349418 0.121861
S5    S     S_3+6 0.399439 0.707484 0.272030 0.113009
S6    S     S_3+6 0.640591 0.287278 0.656305 0.123459
S7    S     S_3+6 0.629448 0.382147 0.116291 0.065800
S8    S     S_3+6 0.898140 0.655020 0.598712 0.109286
S9    S     S_3+6 0.118645 0.352503 0.633008 0.105046
S10   S     S_3+6 0.100114 0.651617 0.391993 0.113395
S11   S     S_3+6 0.884303 0.348308 0.391124 0.106103
S12   S     S_3+6 0.534886 0.886120 0.757311 0.121369
S13   S     S_3+6 0.345375 0.120807 0.512102 0.139506
S14   S     S_3+6 0.457419 0.893280 0.249538 0.107975

loop_
_geom_bond_atom_site_label_1
_geom_bond_atom_site_label_2
_ccdc_geom_bond_type
C2    C35   A    
H3    O9    S    
C14   H16   S    
C21   C26   A    
O42   S5    S    
O22   S12   S    
Cu1   O1    S    
O44   S6    D    
O7    S8    D    
Cu1   O23   S    
O50   S1    D    
C2    S4    S    
C7    C8    T    
C37   S2    S    
C15   C19   S    
C11   C19   S    
C22   C32   A    
C13   C18   S    
O11   S9    D    
O37   S4    D    
C28   C29   A    
C10   C18   S    
O24   S13   D    
C27   H20   S    
Cu2   O34   S    
C12   C29   S    
C11   C14   S    
C20   C25   A    
C15   C16   S    
C5    C36   A    
H2    O6    S    
C6    C35   A    
C14   C18   S    
O3    S1    S    
C38   S3    S    
C9    C19   S    
C23   C33   T    
C1    O1    A    
O26   S13   S    
C10   O48   A    
O14   S10   D    
C26   H19   S    
C20   S8    S    
O38   S4    D    
O40   S5    D    
O17   S11   D    
C28   H21   S    
O10   S9    D    
H8    O26   S    
C27   C30   A    
C9    O45   A    
C15   H17   S    
C14   C17   S    
O21   S12   D    
C36   S14   S    
O19   S11   S    
O28   S14   D    
C2    N2    A    
Cu2   O47   S    
C25   C29   A    
C21   C32   A    
O27   S14   D    
H14   O42   S    
H7    O22   S    
O29   S14   S    
O2    S1    D    
O46   S6    S    
Cu1   Cu2   S    
C5    C7    S    
O30   S2    D    
C6    C8    S    
Cu2   O12   S    
C23   C31   S    
C21   S9    S    
O18   S11   D    
O13   S9    S    
O35   S3    D    
C13   H12   S    
C11   C16   S    
C4    S6    S    
Cu2   O49   S    
O5    S7    D    
O31   S2    D    
C34   S12   S    
C5    C34   A    
C6    C37   A    
C10   O47   A    
C35   S13   S    
C3    S5    S    
H22   O3    S    
C17   S7    S    
Cu1   O48   S    
C26   C30   A    
C22   C27   A    
C12   O12   A    
H15   O46   S    
C24   S11   S    
O39   S4    S    
C25   H18   S    
C16   S1    S    
O43   S6    D    
C38   N1    A    
O25   S13   D    
H11   O36   S    
H4    O13   S    
C12   O23   A    
O8    S8    D    
C34   C38   A    
O41   S5    D    
C24   C28   A    
O4    S7    D    
C22   S10   S    
C3    N1    A    
Cu1   N1    S    
O15   S10   D    
C4    N2    A    
Cu2   N2    S    
C13   C17   S    
C9    O49   A    
C32   C33   S    
O20   S12   D    
C13   C15   S    
C1    O34   A    
O6    S7    S    
H10   O32   S    
C3    C36   A    
H13   O39   S    
C1    C30   S    
C17   C19   S    
C11   H1    S    
H5    O16   S    
O33   S3    D    
C24   C31   A    
O16   S10   S    
H6    O19   S    
Cu1   O45   S    
C4    C37   A    
C16   C18   S    
O9    S8    S    
O32   S2    S    
O36   S3    S    
H9    O29   S    
C20   C31   A    
