data_mof_unit_23203.cif
_audit_creation_date              2012-12-10T17:17:23-0500
_audit_creation_method            fapswitch 2.2
_symmetry_space_group_name_H-M    P1
_symmetry_Int_Tables_number       1
_space_group_crystal_system       triclinic
_cell_length_a                    10.288704
_cell_length_b                    10.808834
_cell_length_c                    12.268586
_cell_angle_alpha                 91.718011
_cell_angle_beta                  109.352402
_cell_angle_gamma                 95.681398
_cell_volume                      1278.09528494

loop_
_atom_site_label
_atom_site_type_symbol
_atom_type_description
_atom_site_fract_x
_atom_site_fract_y
_atom_site_fract_z
_atom_type_partial_charge
C1    C     C_R   0.052445 0.732495 0.495309 0.961263
C2    C     C_R   0.214815 0.557513 0.832867 -0.098775
C3    C     C_2   0.089203 0.865629 0.508654 -0.319040
C4    C     C_R   0.134404 0.516137 0.713617 0.824663
C5    C     C_2   0.006944 0.935629 0.542059 -0.226539
C6    C     C_2   0.931094 0.136856 0.525722 -0.452950
C7    C     C_2   0.038500 0.068574 0.560000 0.059708
C8    C     C_2   0.432429 0.513859 0.506488 -0.139388
C9    C     C_2   0.566073 0.488263 0.487366 0.210388
C10   C     C_R   0.952862 0.268629 0.513288 0.919605
C11   C     C_R   0.867723 0.491190 0.285706 0.887159
C12   C     C_R   0.452101 0.571088 0.967582 0.090455
C13   C     C_R   0.705017 0.339501 0.994284 -0.244671
C14   C     C_R   0.797434 0.485384 0.160355 -0.179473
C15   C     C_R   0.203126 0.678189 0.870044 -0.166780
C16   C     C_R   0.318632 0.749502 0.946615 -0.115523
C17   C     C_R   0.444103 0.699385 0.988385 -0.125306
C18   C     C_2   0.943425 0.323412 0.120415 0.931579
C19   C     C_3   0.554003 0.380289 0.400181 -0.354698
C20   C     C_3   0.466102 0.403122 0.275621 -0.754685
C21   C     C_2   0.682639 0.667840 0.191771 0.912032
C22   C     C_2   0.185930 0.118440 0.620442 0.927685
C23   C     C_R   0.334217 0.500508 0.887254 0.076444
C24   C     C_R   0.574786 0.511782 0.015480 -0.013431
C25   C     C_R   0.582031 0.394081 0.963202 0.115243
C26   C     C_R   0.464927 0.327972 0.883479 -0.191861
C27   C     C_R   0.340450 0.377047 0.852524 -0.158786
C28   C     C_R   0.686167 0.557570 0.117358 -0.104960
C29   C     C_R   0.816009 0.386902 0.090553 -0.046001
H1    H     H_    0.909995 0.896039 0.551273 0.189463
H2    H     H_    0.534111 0.764894 0.030740 0.150606
H3    H     H_    0.314058 0.847056 0.965917 0.166069
H4    H     H_    0.249424 0.320821 0.795020 0.170824
H5    H     H_    0.026575 0.160869 0.132116 0.348731
H6    H     H_    0.387156 0.321745 0.237611 0.239039
H7    H     H_    0.411847 0.487666 0.271096 0.296536
H8    H     H_    0.532232 0.413621 0.220630 0.259263
H9    H     H_    0.652180 0.355694 0.397056 0.261946
H10   H     H_    0.508814 0.294440 0.428199 0.164612
H11   H     H_    0.783191 0.829646 0.278904 0.346375
H12   H     H_    0.824716 0.092252 0.494842 0.155296
H13   H     H_    0.365820 0.201312 0.610463 0.322450
H14   H     H_    0.183888 0.905767 0.496078 0.170931
H15   H     H_    0.435327 0.592257 0.564915 0.148427
H16   H     H_    0.684037 0.623788 0.602810 0.140377
H17   H     H_    0.309148 0.368911 0.403080 0.224165
H18   H     H_    0.468783 0.235808 0.848281 0.185918
H19   H     H_    0.712160 0.255853 0.946350 0.174743
H20   H     H_    0.111659 0.723222 0.827615 0.158224
N1    N     N_2   0.313640 0.446500 0.454900 -0.168057
N2    N     N_2   0.686360 0.553430 0.545150 -0.200222
O1    O     O_R   0.936910 0.692950 0.509080 -0.606442
O2    O     O_R   0.932732 0.193248 0.110871 -0.806244
O3    O     O_2   0.585614 0.673826 0.227637 -0.623746
O4    O     O_R   0.795237 0.761043 0.226063 -0.799342
O5    O     O_2   0.240048 0.097568 0.721898 -0.676141
O6    O     O_R   0.266302 0.174988 0.559450 -0.789811
O7    O     O_R   0.138320 0.658600 0.480130 -0.603503
O8    O     O_R   0.002900 0.525670 0.675280 -0.607860
O9    O     O_R   0.204310 0.491320 0.646330 -0.604734
O10   O     O_R   0.861680 0.341400 0.519870 -0.641432
O11   O     O_R   0.063090 0.307050 0.490920 -0.555999
O12   O     O_R   0.795690 0.508680 0.353670 -0.605399
O13   O     O_R   0.997100 0.474330 0.324720 -0.563535
O14   O     O_2   0.057324 0.384682 0.148354 -0.607060
Zn1   Zn    Zn3+2 0.865520 0.522940 0.519330 0.953184
Zn2   Zn    Zn3+2 0.134480 0.477060 0.480670 1.008989

loop_
_geom_bond_atom_site_label_1
_geom_bond_atom_site_label_2
_ccdc_geom_bond_type
C12   C17   A    
C6    C10   S    
C13   H19   S    
C2    C4    S    
N2    Zn1   S    
C6    C7    D    
C2    C15   A    
C19   H9    S    
C23   C27   A    
C16   H3    S    
C7    C22   S    
N1    Zn2   S    
H17   N1    S    
C19   C20   S    
C9    N2    D    
C3    C5    D    
H11   O4    S    
C13   C25   A    
C4    O9    A    
C22   O6    S    
O12   Zn1   S    
C18   C29   S    
C1    O7    A    
C27   H4    S    
C18   O14   D    
C20   H8    S    
C12   C23   A    
C3    H14   S    
C26   C27   A    
C10   O11   A    
C19   H10   S    
C26   H18   S    
O11   Zn2   S    
H13   O6    S    
C13   C29   A    
C11   C14   S    
C21   C28   S    
C8    H15   S    
C11   O13   A    
C11   O12   A    
C15   H20   S    
O8    Zn1   S    
C21   O3    D    
C17   H2    S    
C1    O1    A    
C10   O10   A    
H16   N2    S    
C14   C29   A    
C15   C16   A    
C20   H7    S    
O13   Zn2   S    
C8    N1    D    
O7    Zn2   S    
O1    Zn1   S    
C24   C25   A    
C4    O8    A    
H5    O2    S    
C21   O4    S    
C5    H1    S    
C2    C23   A    
C5    C7    S    
C12   C24   A    
C16   C17   A    
C22   O5    D    
C18   O2    S    
C14   C28   A    
C25   C26   A    
C20   H6    S    
O10   Zn1   S    
C9    C19   S    
C24   C28   A    
O9    Zn2   S    
C8    C9    S    
C1    C3    S    
C6    H12   S    
