data_mof_unit_19794.cif
_audit_creation_date              2012-12-11T16:10:52-0500
_audit_creation_method            fapswitch 2.2
_symmetry_space_group_name_H-M    P1
_symmetry_Int_Tables_number       1
_space_group_crystal_system       triclinic
_cell_length_a                    12.78177
_cell_length_b                    13.281933
_cell_length_c                    26.97757
_cell_angle_alpha                 97.472278
_cell_angle_beta                  90.067369
_cell_angle_gamma                 118.589931
_cell_volume                      3976.71143511

loop_
_atom_site_label
_atom_site_type_symbol
_atom_type_description
_atom_site_fract_x
_atom_site_fract_y
_atom_site_fract_z
_atom_type_partial_charge
C1    C     C_R   0.628062 0.894794 0.424317 0.546845
C2    C     C_1   0.139229 0.823852 0.179610 -0.047187
C3    C     C_1   0.159114 0.836444 0.231941 0.000516
C4    C     C_R   0.602276 0.224442 0.443504 0.548978
C5    C     C_1   0.173525 0.843270 0.276580 0.009444
C6    C     C_1   0.193841 0.850409 0.328551 -0.018257
C7    C     C_1   0.220264 0.859114 0.372316 0.018863
C8    C     C_1   0.689092 0.799305 0.136173 -0.007329
C9    C     C_1   0.672730 0.809543 0.179983 -0.048511
C10   C     C_1   0.661774 0.819082 0.232043 -0.006377
C11   C     C_1   0.656104 0.828000 0.276754 0.004586
C12   C     C_R   0.611731 0.395640 0.239840 0.008760
C13   C     C_1   0.650545 0.842730 0.329101 -0.023304
C14   C     C_1   0.643274 0.861891 0.373402 0.012745
C15   C     C_1   0.692382 0.384280 0.874789 0.001867
C16   C     C_R   0.268239 0.875629 0.422448 0.548912
C17   C     C_1   0.680270 0.357722 0.830006 -0.046114
C18   C     C_1   0.669051 0.337050 0.777301 -0.023187
C19   C     C_1   0.660493 0.322192 0.732260 -0.034117
C20   C     C_1   0.648532 0.301461 0.679581 -0.073877
C21   C     C_1   0.632979 0.274757 0.634829 -0.030384
C22   C     C_1   0.210452 0.860672 0.606741 -0.022769
C23   C     C_R   0.597474 0.372067 0.289542 0.078145
C24   C     C_R   0.114358 0.720361 0.712721 0.014100
C25   C     C_R   0.110818 0.710738 0.764338 -0.000491
C26   C     C_R   0.153140 0.913195 0.784401 0.098466
C27   C     C_R   0.177338 0.928874 0.734389 0.008036
C28   C     C_R   0.630784 0.898577 0.563770 0.544366
C29   C     C_R   0.150302 0.830658 0.698500 0.015252
C30   C     C_R   0.120498 0.804793 0.798874 0.025208
C31   C     C_1   0.088520 0.786694 0.848884 -0.015565
C32   C     C_1   0.176647 0.846332 0.647704 -0.072030
C33   C     C_1   0.055882 0.765947 0.889574 0.017603
C34   C     C_R   0.691285 0.373639 0.317182 0.035280
C35   C     C_1   0.650607 0.864460 0.609142 -0.026574
C36   C     C_R   0.739955 0.923781 0.737267 0.011433
C37   C     C_R   0.729540 0.914809 0.788590 0.103998
C38   C     C_R   0.588294 0.706356 0.768032 -0.002333
C39   C     C_R   0.588780 0.717727 0.716434 0.012181
C40   C     C_R   0.602689 0.227218 0.583008 0.528365
C41   C     C_R   0.665820 0.826514 0.701629 0.015310
C42   C     C_R   0.654945 0.806797 0.803675 0.027199
C43   C     C_1   0.660688 0.797123 0.855914 -0.015873
C44   C     C_1   0.660297 0.843171 0.650202 -0.071658
C45   C     C_R   0.723087 0.425578 0.218884 0.027369
C46   C     C_1   0.676777 0.788011 0.898514 0.018164
C47   C     C_R   0.065283 0.771759 0.084253 0.545962
C48   C     C_R   0.738325 0.493252 0.075482 0.561009
C49   C     C_R   0.720118 0.782358 0.086097 0.538833
C50   C     C_R   0.011572 0.737025 0.936583 0.549552
C51   C     C_R   0.709337 0.431821 0.926616 0.559484
C52   C     C_R   0.266882 0.879066 0.561371 0.546587
C53   C     C_R   0.712358 0.775198 0.946188 0.544673
C54   C     C_1   0.642371 0.286687 0.402000 0.042646
C55   C     C_R   0.802476 0.405789 0.297301 0.070027
C56   C     C_1   0.731847 0.447633 0.167739 -0.068169
C57   C     C_R   0.821133 0.433417 0.247927 0.009157
C58   C     C_3   0.520775 0.588200 0.785566 -0.251657
C59   C     C_3   0.397564 0.565724 0.801970 -0.309984
C60   C     C_3   0.332039 0.450186 0.821841 -0.430750
C61   C     C_3   0.508753 0.615608 0.676739 -0.250059
C62   C     C_3   0.579573 0.560999 0.650181 -0.305409
C63   C     C_3   0.501373 0.461571 0.609109 -0.431193
C64   C     C_3   0.946861 0.468273 0.230484 -0.241797
C65   C     C_3   0.977327 0.500107 0.177767 -0.298862
C66   C     C_3   0.107461 0.533724 0.169242 -0.443788
C67   C     C_1   0.668505 0.330732 0.364497 0.031795
C68   C     C_3   0.507779 0.388911 0.209043 -0.234580
C69   C     C_3   0.515409 0.508448 0.212949 -0.284996
C70   C     C_3   0.412194 0.503248 0.182205 -0.439537
C71   C     C_3   0.080440 0.615503 0.672380 -0.249519
C72   C     C_3   0.958656 0.577189 0.645209 -0.301288
C73   C     C_3   0.928574 0.479479 0.601824 -0.436672
C74   C     C_3   0.107367 0.606442 0.783748 -0.255525
C75   C     C_3   0.979728 0.508974 0.786380 -0.301597
C76   C     C_3   0.980682 0.411608 0.810593 -0.429208
C77   C     C_3   0.235689 0.049764 0.719395 -0.231504
C78   C     C_1   0.734384 0.466525 0.125211 -0.036429
C79   C     C_3   0.142337 0.077273 0.698581 -0.292626
C80   C     C_3   0.201115 0.192043 0.677811 -0.456665
C81   C     C_3   0.834954 0.034254 0.720121 -0.242657
C82   C     C_3   0.788000 0.117422 0.710950 -0.275371
C83   C     C_3   0.881723 0.218586 0.687236 -0.452675
C84   C     C_1   0.113122 0.805435 0.135266 -0.014358
Cr1   Cr    Cr6+3 0.416010 0.828400 0.490230 1.050202
Cr2   Cr    Cr6+3 0.676380 0.087280 0.505260 1.036687
Cr3   Cr    Cr6+3 0.407590 0.084280 0.504540 1.037954
Cr4   Cr    Cr6+3 0.914090 0.832340 0.018020 1.063645
Cr5   Cr    Cr6+3 0.923310 0.576840 0.003860 1.028176
Cr6   Cr    Cr6+3 0.654200 0.573160 0.004700 1.024252
H1    H     H_    0.318894 0.377677 0.792403 0.159942
H2    H     H_    0.556902 0.428925 0.588639 0.164957
H3    H     H_    0.656440 0.627216 0.632965 0.169201
H4    H     H_    0.615240 0.527612 0.677740 0.163036
H5    H     H_    0.430217 0.548643 0.692599 0.132928
H6    H     H_    0.469245 0.645005 0.648910 0.150754
H7    H     H_    0.168668 0.609247 0.197078 0.161831
H8    H     H_    0.123812 0.459786 0.172445 0.156227
H9    H     H_    0.127467 0.557590 0.131092 0.171342
H10   H     H_    0.920365 0.424317 0.149178 0.187521
H11   H     H_    0.964590 0.575445 0.173113 0.176760
H12   H     H_    0.383764 0.450344 0.855002 0.181614
H13   H     H_    0.011243 0.544446 0.257366 0.178029
H14   H     H_    0.964951 0.395260 0.233611 0.181795
H15   H     H_    0.414746 0.474013 0.141942 0.167024
H16   H     H_    0.325372 0.442666 0.195701 0.166071
H17   H     H_    0.419707 0.590780 0.186135 0.152763
H18   H     H_    0.513094 0.541224 0.252778 0.196923
H19   H     H_    0.600973 0.570445 0.199052 0.171103
H20   H     H_    0.506359 0.354380 0.169134 0.155888
H21   H     H_    0.420571 0.325505 0.220909 0.181529
H22   H     H_    0.997068 0.508716 0.573973 0.167279
H23   H     H_    0.243218 0.436252 0.833247 0.155193
H24   H     H_    0.924394 0.402662 0.615736 0.151607
H25   H     H_    0.840413 0.454061 0.582960 0.148737
H26   H     H_    0.887911 0.546706 0.672124 0.160394
H27   H     H_    0.958321 0.650909 0.630076 0.171599
H28   H     H_    0.150717 0.637306 0.645222 0.152651
H29   H     H_    0.074772 0.539608 0.687335 0.132782
H30   H     H_    0.037555 0.379979 0.790526 0.151803
H31   H     H_    0.015561 0.443116 0.850462 0.175115
H32   H     H_    0.888791 0.337914 0.809073 0.176948
H33   H     H_    0.927833 0.543272 0.808897 0.170293
H34   H     H_    0.407424 0.636211 0.831924 0.175807
H35   H     H_    0.934487 0.473255 0.748177 0.164404
H36   H     H_    0.159768 0.573810 0.760800 0.121971
H37   H     H_    0.154819 0.633680 0.821648 0.153333
H38   H     H_    0.254268 0.187043 0.645956 0.165632
H39   H     H_    0.131147 0.210813 0.664221 0.138889
H40   H     H_    0.260557 0.263984 0.707389 0.149150
H41   H     H_    0.083232 0.007173 0.668216 0.166691
H42   H     H_    0.087003 0.083037 0.729214 0.182914
H43   H     H_    0.289692 0.116861 0.751509 0.173299
H44   H     H_    0.301442 0.057500 0.691183 0.152098
H45   H     H_    0.342945 0.564518 0.769653 0.148623
H46   H     H_    0.968708 0.260584 0.709704 0.145106
H47   H     H_    0.894001 0.187374 0.648584 0.164631
H48   H     H_    0.852787 0.284414 0.685431 0.151635
H49   H     H_    0.705102 0.071780 0.685587 0.179856
H50   H     H_    0.766715 0.151477 0.747106 0.189052
H51   H     H_    0.912756 0.079998 0.747997 0.171692
H52   H     H_    0.871025 0.011868 0.685428 0.141074
H53   H     H_    0.511479 0.517129 0.756224 0.141890
H54   H     H_    0.573164 0.583042 0.817108 0.149710
H55   H     H_    0.429086 0.389675 0.625699 0.156486
H56   H     H_    0.461344 0.491839 0.581929 0.159881
I1    I     I_    0.942702 0.411108 0.343747 -0.397571
I2    I     I_    0.826811 0.064446 0.844534 -0.394317
I3    I     I_    0.434319 0.334570 0.324716 -0.392813
I4    I     I_    0.165425 0.052081 0.838928 -0.382985
O1    O     O_R   0.294740 0.800910 0.434410 -0.492318
O2    O     O_R   0.635480 0.460400 0.052590 -0.494388
O3    O     O_R   0.662650 0.681410 0.060750 -0.514117
O4    O     O_R   0.526010 0.837250 0.440870 -0.490372
O5    O     O_R   0.814500 0.852290 0.965490 -0.481216
O6    O     O_R   0.013160 0.821640 0.966980 -0.466390
O7    O     O_R   0.038850 0.666600 0.954370 -0.508626
O8    O     O_R   0.813260 0.476410 0.948680 -0.500565
O9    O     O_R   0.630060 0.454430 0.944230 -0.496049
O10   O     O_R   0.657630 0.675880 0.960300 -0.507590
O11   O     O_3   0.830530 0.660780 0.008860 -0.298605
O12   O     O_R   0.664100 0.185180 0.560770 -0.497689
O13   O     O_R   0.704290 0.994500 0.446090 -0.495924
O14   O     O_R   0.662870 0.181760 0.460430 -0.488775
O15   O     O_R   0.498970 0.199080 0.457120 -0.492532
O16   O     O_R   0.309350 0.975930 0.448180 -0.489840
O17   O     O_R   0.296060 0.804610 0.542650 -0.508303
O18   O     O_R   0.527240 0.840670 0.541200 -0.494426
O19   O     O_R   0.705610 0.998200 0.554330 -0.512538
O20   O     O_R   0.500290 0.202770 0.565360 -0.518805
O21   O     O_R   0.310570 0.979360 0.548520 -0.497628
O22   O     O_3   0.499990 0.999990 0.500010 -0.254547
O23   O     O_R   0.819910 0.858260 0.073860 -0.496723
O24   O     O_R   0.018180 0.827180 0.067430 -0.484885
O25   O     O_R   0.044260 0.672570 0.062730 -0.517776
O26   O     O_R   0.818270 0.481940 0.049130 -0.486975

loop_
_geom_bond_atom_site_label_1
_geom_bond_atom_site_label_2
_ccdc_geom_bond_type
C64   H13   S    
C40   O20   A    
C27   C29   A    
Cr2   O19   S    
C2    C84   T    
C19   C20   S    
C65   H11   S    
C49   O23   A    
C81   C82   S    
C60   H23   S    
C61   H6    S    
C56   C78   T    
Cr5   O8    S    
C39   C41   A    
C74   H36   S    
C5    C6    S    
C12   C68   S    
C12   C23   A    
C45   C57   A    
C26   C27   A    
C76   H30   S    
C22   C32   T    
C73   H22   S    
Cr2   O22   S    
C76   H31   S    
Cr4   O6    S    
C66   H7    S    
C49   O3    A    
C36   C37   A    
C38   C42   A    
C29   C32   S    
C70   H17   S    
C52   O17   A    
C30   C31   S    
Cr3   O16   S    
C79   H42   S    
Cr4   O11   S    
Cr6   O9    S    
Cr4   O24   S    
C4    O15   A    
C59   H45   S    
C15   C17   T    
C25   C74   S    
C48   C78   S    
C37   C42   A    
C24   C29   A    
C82   H50   S    
C38   C58   S    
C69   H19   S    
C58   H53   S    
C28   C35   S    
C16   O16   A    
C8    C9    T    
C72   H27   S    
C4    O14   A    
Cr2   O12   S    
C15   C51   S    
C9    C10   S    
C63   H56   S    
C81   H51   S    
C23   I3    S    
Cr3   O21   S    
C34   C55   A    
C13   C14   T    
C36   C41   A    
C61   C62   S    
C77   H43   S    
C60   H12   S    
C52   O21   A    
Cr5   O11   S    
C69   H18   S    
C77   C79   S    
C50   O7    A    
C38   C39   A    
C39   C61   S    
Cr1   O22   S    
C80   H40   S    
C74   C75   S    
Cr6   O11   S    
Cr1   O17   S    
Cr4   O5    S    
C26   I4    S    
C24   C25   A    
C45   C56   S    
Cr6   O2    S    
C70   H16   S    
C50   O6    A    
C28   O18   A    
C68   C69   S    
C54   C67   T    
C80   H38   S    
C27   C77   S    
C58   C59   S    
Cr3   O20   S    
C82   C83   S    
C73   H24   S    
C75   H35   S    
C68   H21   S    
C66   H9    S    
C63   H2    S    
C75   C76   S    
Cr1   O1    S    
C40   O12   A    
C62   C63   S    
C55   I1    S    
C74   H37   S    
C36   C81   S    
C23   C34   A    
C79   H41   S    
C82   H49   S    
C31   C33   T    
C17   C18   S    
C55   C57   A    
C68   H20   S    
C47   C84   S    
Cr6   O3    S    
Cr5   O7    S    
C35   C44   T    
C83   H46   S    
C81   H52   S    
C53   O5    A    
C62   H4    S    
C59   H34   S    
C41   C44   S    
C75   H33   S    
Cr2   O14   S    
C42   C43   S    
Cr5   O25   S    
C83   H47   S    
C57   C64   S    
C22   C52   S    
C60   H1    S    
C25   C30   A    
C64   H14   S    
C7    C16   S    
C53   O10   A    
C80   H39   S    
C71   H28   S    
C4    C54   S    
Cr1   O18   S    
C65   H10   S    
C72   C73   S    
C3    C5    T    
C70   H15   S    
C34   C67   S    
C61   H5    S    
C26   C30   A    
C6    C7    T    
C12   C45   A    
C1    C14   S    
C72   H26   S    
C51   O8    A    
C73   H25   S    
C71   H29   S    
C76   H32   S    
C64   C65   S    
C66   H8    S    
C48   O2    A    
C2    C3    S    
C33   C50   S    
C71   C72   S    
C11   C13   S    
Cr3   O15   S    
C21   C40   S    
Cr3   O22   S    
C46   C53   S    
C51   O9    A    
C16   O1    A    
Cr1   O4    S    
C37   I2    S    
Cr6   O10   S    
C1    O4    A    
C43   C46   T    
C69   C70   S    
C47   O24   A    
C10   C11   T    
Cr4   O23   S    
C79   C80   S    
C58   H54   S    
C28   O19   A    
C59   C60   S    
C20   C21   T    
C1    O13   A    
C65   C66   S    
C77   H44   S    
C62   H3    S    
C18   C19   T    
Cr2   O13   S    
Cr5   O26   S    
C8    C49   S    
C63   H55   S    
C83   H48   S    
C47   O25   A    
C24   C71   S    
C48   O26   A    
