data_mof_unit_55575.cif
_audit_creation_date              2012-12-10T16:43:00-0500
_audit_creation_method            fapswitch 2.2
_symmetry_space_group_name_H-M    P1
_symmetry_Int_Tables_number       1
_space_group_crystal_system       triclinic
_cell_length_a                    7.500335
_cell_length_b                    8.680562
_cell_length_c                    13.067766
_cell_angle_alpha                 87.050253
_cell_angle_beta                  79.387099
_cell_angle_gamma                 103.133299
_cell_volume                      810.499237247

loop_
_atom_site_label
_atom_site_type_symbol
_atom_type_description
_atom_site_fract_x
_atom_site_fract_y
_atom_site_fract_z
_atom_type_partial_charge
C1    C     C_R   0.452480 0.199667 0.503364 0.882594
C2    C     C_R   0.547520 0.800333 0.496636 0.882581
C3    C     C_R   0.467550 0.496957 0.700934 0.870599
C4    C     C_R   0.532449 0.503038 0.299068 0.870614
C5    C     C_R   0.549003 0.508438 0.185897 -0.154482
C6    C     C_R   0.450991 0.491573 0.814107 -0.154409
C7    C     C_R   0.252595 0.414563 0.986096 0.447211
C8    C     C_R   0.747359 0.585560 0.013909 0.447050
C9    C     C_R   0.275245 0.431054 0.877692 -0.336555
C10   C     C_R   0.724721 0.569081 0.122312 -0.336409
C11   C     C_R   0.609934 0.537400 0.858216 0.390749
C12   C     C_R   0.390067 0.462520 0.141794 0.390611
C13   C     C_R   0.590512 0.530842 0.967713 -0.097884
C14   C     C_R   0.409462 0.469178 0.032296 -0.097654
C15   C     C_2   0.426175 0.031380 0.505151 -0.321906
C16   C     C_2   0.573825 0.968620 0.494849 -0.321927
Cu1   Cu    Cu3+1 0.686350 0.517570 0.488220 0.991650
Cu2   Cu    Cu3+1 0.313650 0.482430 0.511780 0.991637
H1    H     H_    0.845290 0.609397 0.157321 0.176804
H2    H     H_    0.154660 0.390828 0.842682 0.176790
H3    H     H_    0.284250 0.958857 0.515009 0.183798
H4    H     H_    0.715750 0.041143 0.484991 0.183789
N1    N     N_2   0.033570 0.455950 0.529530 -0.207115
N2    N     N_2   0.966430 0.544050 0.470470 -0.207118
O1    O     O_R   0.621060 0.286250 0.492350 -0.595026
O2    O     O_R   0.378940 0.713750 0.507650 -0.594992
O3    O     O_R   0.306310 0.256580 0.512240 -0.594652
O4    O     O_R   0.693690 0.743420 0.487760 -0.594653
O5    O     O_R   0.631800 0.512400 0.642670 -0.553130
O6    O     O_R   0.368200 0.487600 0.357330 -0.553259
O7    O     O_R   0.317060 0.482730 0.662570 -0.608472
O8    O     O_R   0.682940 0.517270 0.337430 -0.608471
O9    O     O_3   0.217124 0.411177 0.206824 -0.651453
H5    H     H_    0.143872 0.488224 0.191224 0.341918
O10   O     O_3   0.782915 0.588499 0.793191 -0.651523
H6    H     H_    0.856160 0.511559 0.809007 0.341875
O11   O     O_3   0.079369 0.341671 0.046994 -0.695808
H7    H     H_    0.986326 0.312761 0.001923 0.328990
O12   O     O_3   0.920533 0.658595 0.953008 -0.695806
H8    H     H_    0.013570 0.687561 0.998076 0.329033
C17   C     C_1   0.909212 0.342778 0.603360 0.557899
N3    N     N_1   0.807369 0.247613 0.665475 -0.355560
C18   C     C_1   0.090787 0.657221 0.396640 0.557666
N4    N     N_1   0.192631 0.752385 0.334524 -0.355592

loop_
_geom_bond_atom_site_label_1
_geom_bond_atom_site_label_2
_ccdc_geom_bond_type
C3    O7    A    
N1    N2    D    
C8    C13   A    
Cu2   O6    S    
C8    O12   S    
Cu1   O5    S    
C17   N3    T    
C9    H2    S    
O10   H6    S    
N1    C17   S    
C10   H1    S    
C18   N4    T    
C3    C6    S    
Cu1   O1    S    
C6    C9    A    
C11   O10   S    
O9    H5    S    
C7    O11   S    
C5    C10   A    
C2    O2    A    
C13   C14   A    
C1    O1    A    
C11   C13   A    
C1    O3    A    
C4    O8    A    
C1    C15   S    
O11   H7    S    
C12   C14   A    
Cu1   Cu2   S    
C6    C11   A    
Cu1   O8    S    
Cu1   N2    S    
Cu2   N1    S    
C15   H3    S    
C3    O5    A    
C2    C16   S    
C5    C12   A    
C8    C10   A    
O12   H8    S    
C7    C9    A    
N2    C18   S    
C2    O4    A    
Cu2   O7    S    
C12   O9    S    
Cu1   O4    S    
C7    C14   A    
C4    O6    A    
Cu2   O3    S    
C15   C16   D    
C16   H4    S    
C4    C5    S    
Cu2   O2    S    
