data_mof_unit_38318.cif
_audit_creation_date              2012-12-10T18:46:21-0500
_audit_creation_method            fapswitch 2.2
_symmetry_space_group_name_H-M    P1
_symmetry_Int_Tables_number       1
_space_group_crystal_system       triclinic
_cell_length_a                    9.859553
_cell_length_b                    10.660401
_cell_length_c                    13.069491
_cell_angle_alpha                 90.086634
_cell_angle_beta                  69.928016
_cell_angle_gamma                 89.76225
_cell_volume                      1290.23974414

loop_
_atom_site_label
_atom_site_type_symbol
_atom_type_description
_atom_site_fract_x
_atom_site_fract_y
_atom_site_fract_z
_atom_type_partial_charge
C1    C     C_R   0.499204 0.739658 0.501254 0.960867
C2    C     C_R   0.365419 0.515756 0.823163 -0.111408
C3    C     C_R   0.614355 0.933614 0.430187 -0.398545
C4    C     C_R   0.419552 0.505447 0.704531 0.888053
C5    C     C_R   0.616743 0.062948 0.429320 0.402701
C6    C     C_R   0.499329 0.127368 0.502732 -0.188068
C7    C     C_R   0.379958 0.065915 0.576575 0.259176
C8    C     C_R   0.381630 0.934828 0.579500 0.338457
C9    C     C_R   0.497481 0.871798 0.503519 -0.146804
C10   C     C_R   0.957667 0.418942 0.434174 0.511151
C11   C     C_R   0.102209 0.419179 0.434803 -0.136115
C12   C     C_R   0.422179 0.538163 0.988568 0.051211
C13   C     C_R   0.042027 0.581032 0.564900 -0.074585
C14   C     C_R   0.898547 0.581192 0.564665 -0.157236
C15   C     C_R   0.499895 0.260113 0.500571 1.025604
C16   C     C_R   0.580519 0.503749 0.295228 0.880625
C17   C     C_R   0.762921 0.653589 0.020877 -0.193154
C18   C     C_R   0.629250 0.529728 0.178406 -0.097900
C19   C     C_R   0.232672 0.461508 0.882461 -0.220010
C20   C     C_R   0.188765 0.454861 0.995197 -0.257329
C21   C     C_R   0.282250 0.492247 0.049997 0.436131
C22   C     C_3   0.859073 0.643378 0.175047 -0.836443
C23   C     C_R   0.452241 0.567820 0.878047 0.014946
C24   C     C_R   0.533945 0.556744 0.032038 0.098177
C25   C     C_R   0.655517 0.630783 0.975474 0.114755
C26   C     C_R   0.668268 0.680515 0.874111 -0.237088
C27   C     C_R   0.568784 0.648005 0.825117 -0.164551
C28   C     C_R   0.532340 0.497022 0.126861 -0.220987
C29   C     C_R   0.748990 0.606812 0.124198 0.161785
H1    H     H_    0.181879 0.355188 0.382888 0.141278
H2    H     H_    0.702315 0.880937 0.373021 0.165860
H3    H     H_    0.806515 0.698788 0.250305 0.236473
H4    H     H_    0.909419 0.557912 0.194933 0.258037
H5    H     H_    0.946680 0.701384 0.119223 0.232453
H6    H     H_    0.801538 0.067984 0.309969 0.336059
H7    H     H_    0.176047 0.086975 0.660603 0.344658
H8    H     H_    0.234783 0.917877 0.723123 0.338807
H9    H     H_    0.000079 0.285943 0.326132 0.308203
H10   H     H_    0.135483 0.459178 0.191258 0.328773
H11   H     H_    0.072407 0.645976 0.616881 0.168664
H12   H     H_    0.820979 0.646843 0.615924 0.148270
H13   H     H_    0.758069 0.740510 0.830834 0.145290
H14   H     H_    0.854934 0.711242 0.977287 0.146971
H15   H     H_    0.453077 0.425984 0.164263 0.206098
H16   H     H_    0.163036 0.423608 0.841564 0.191451
H17   H     H_    0.082735 0.417948 0.039718 0.158914
H18   H     H_    0.582551 0.687590 0.746057 0.160361
N1    N     N_R   0.142790 0.500030 0.500030 -0.087839
N2    N     N_R   0.857180 0.499940 0.500010 -0.089010
O1    O     O_R   0.385370 0.683250 0.500010 -0.576148
O2    O     O_3   0.266026 0.136092 0.644254 -0.763997
O3    O     O_3   0.276840 0.866135 0.656657 -0.786311
O4    O     O_3   0.916231 0.338860 0.367621 -0.709936
O5    O     O_3   0.233888 0.494994 0.162496 -0.797884
O6    O     O_R   0.614700 0.683220 0.500010 -0.654095
O7    O     O_R   0.328400 0.499990 0.653620 -0.601266
O8    O     O_R   0.557730 0.499960 0.653620 -0.626892
O9    O     O_R   0.385300 0.316780 0.499990 -0.598132
O10   O     O_R   0.614630 0.316750 0.499990 -0.539500
O11   O     O_R   0.442270 0.500040 0.346380 -0.607760
O12   O     O_R   0.671600 0.500010 0.346380 -0.572199
O13   O     O_3   0.728644 0.128273 0.355363 -0.718244
Zn1   Zn    Zn3+2 0.346870 0.500020 0.500000 1.003875
Zn2   Zn    Zn3+2 0.653130 0.499980 0.500000 1.005303

loop_
_geom_bond_atom_site_label_1
_geom_bond_atom_site_label_2
_ccdc_geom_bond_type
C4    O8    A    
C26   C27   A    
O12   Zn2   S    
C2    C4    S    
C24   C25   A    
C19   H16   S    
C6    C7    A    
C3    C9    A    
C22   C29   S    
C23   C27   A    
C13   N1    A    
C17   C29   A    
C1    O1    A    
C8    O3    S    
C19   C20   A    
C6    C15   S    
C17   C25   A    
O6    Zn2   S    
C17   H14   S    
O10   Zn2   S    
O7    Zn1   S    
C7    O2    S    
C7    C8    A    
N2    Zn2   S    
C13   C14   A    
C4    O7    A    
C3    H2    S    
O1    Zn1   S    
H7    O2    S    
C12   C23   A    
C11   N1    A    
C5    C6    A    
H9    O4    S    
C22   H3    S    
C22   H4    S    
O11   Zn1   S    
C16   O11   A    
C25   C26   A    
C5    O13   S    
H6    O13   S    
C14   H12   S    
C1    O6    A    
C21   O5    S    
C22   H5    S    
C15   O9    A    
H10   O5    S    
C10   C11   A    
H8    O3    S    
C14   N2    A    
C1    C9    S    
C2    C23   A    
C18   C28   A    
C20   C21   A    
C26   H13   S    
O8    Zn2   S    
C16   C18   S    
C16   O12   A    
C27   H18   S    
O9    Zn1   S    
C18   C29   A    
C10   O4    S    
C12   C24   A    
C13   H11   S    
C3    C5    A    
C2    C19   A    
C10   N2    A    
C15   O10   A    
C12   C21   A    
C28   H15   S    
C20   H17   S    
C24   C28   A    
C11   H1    S    
C8    C9    A    
N1    Zn1   S    
