data_mof_unit_24968.cif
_audit_creation_date              2012-12-11T14:34:00-0500
_audit_creation_method            fapswitch 2.2
_symmetry_space_group_name_H-M    P1
_symmetry_Int_Tables_number       1
_space_group_crystal_system       triclinic
_cell_length_a                    13.988559
_cell_length_b                    14.017828
_cell_length_c                    27.351427
_cell_angle_alpha                 89.571018
_cell_angle_beta                  90.359532
_cell_angle_gamma                 119.69176
_cell_volume                      4658.97981154

loop_
_atom_site_label
_atom_site_type_symbol
_atom_type_description
_atom_site_fract_x
_atom_site_fract_y
_atom_site_fract_z
_atom_type_partial_charge
C1    C     C_R   0.236220 0.785536 0.569810 0.551287
C2    C     C_1   0.698569 0.861223 0.861790 -0.010343
C3    C     C_1   0.147103 0.834989 0.863924 -0.000193
C4    C     C_1   0.159053 0.305494 0.862655 0.038488
C5    C     C_1   0.621530 0.812840 0.660022 -0.015660
C6    C     C_1   0.194000 0.802632 0.662125 -0.021195
C7    C     C_1   0.190991 0.380509 0.660560 -0.004218
C8    C     C_1   0.596383 0.794110 0.617542 0.037806
C9    C     C_1   0.209543 0.797557 0.619116 0.036226
C10   C     C_1   0.198815 0.404528 0.617834 0.044262
C11   C     C_R   0.068104 0.155324 0.096472 0.613352
C12   C     C_R   0.213560 0.448386 0.569316 0.552786
C13   C     C_R   0.777289 0.882949 0.087993 0.582245
C14   C     C_R   0.117841 0.893124 0.087542 0.537954
C15   C     C_R   0.107558 0.221804 0.951463 0.576397
C16   C     C_R   0.779345 0.887167 0.951034 0.558481
C17   C     C_R   0.113600 0.892816 0.951196 0.565095
C18   C     C_R   0.565948 0.855836 0.353631 -0.126582
C19   C     C_R   0.114044 0.718739 0.358911 -0.111902
C20   C     C_R   0.278214 0.413863 0.355054 -0.115824
C21   C     C_R   0.587177 0.864737 0.303831 0.014407
C22   C     C_R   0.097561 0.729314 0.309376 0.021214
C23   C     C_R   0.551455 0.764553 0.569289 0.550508
C24   C     C_R   0.260081 0.374541 0.307500 0.017969
C25   C     C_R   0.630724 0.880536 0.203306 0.041885
C26   C     C_R   0.081609 0.748272 0.207890 0.024964
C27   C     C_R   0.221178 0.300321 0.210803 0.030333
C28   C     C_R   0.232226 0.788201 0.431808 0.567847
C29   C     C_R   0.212127 0.444932 0.432130 0.575951
C30   C     C_R   0.553979 0.766909 0.431789 0.578866
C31   C     C_R   0.567005 0.923988 0.221950 0.291902
C32   C     C_R   0.019997 0.645099 0.230397 0.282706
C33   C     C_R   0.329906 0.370442 0.226514 0.270116
C34   C     C_3   0.592876 0.726801 0.795368 0.120341
C35   C     C_R   0.542080 0.912775 0.272518 0.264493
C36   C     C_R   0.025729 0.635917 0.281825 0.236444
C37   C     C_R   0.349150 0.411024 0.274840 0.248721
C38   C     C_R   0.661009 0.894363 0.153793 -0.111883
C39   C     C_R   0.070135 0.761565 0.157643 -0.107299
C40   C     C_R   0.200402 0.261389 0.162791 -0.098927
C41   C     C_R   0.734738 0.861929 0.137587 0.033957
C42   C     C_R   0.143542 0.859790 0.134689 -0.053891
C43   C     C_R   0.092674 0.192398 0.147015 0.013943
C44   C     C_R   0.675351 0.766629 0.367060 0.281799
C45   C     C_3   0.267561 0.815906 0.799597 0.113194
C46   C     C_R   0.233956 0.915714 0.366495 0.289932
C47   C     C_R   0.083377 0.304294 0.373920 0.282392
C48   C     C_R   0.688301 0.763808 0.316295 0.038643
C49   C     C_R   0.226351 0.928342 0.315324 0.032738
C50   C     C_R   0.060795 0.272018 0.324511 0.041110
C51   C     C_R   0.647627 0.817657 0.284976 -0.087044
C52   C     C_R   0.159404 0.833163 0.286855 -0.095825
C53   C     C_R   0.150767 0.304847 0.291746 -0.083173
C54   C     C_R   0.733223 0.702570 0.295677 0.285992
C55   C     C_R   0.287289 0.031283 0.291410 0.274370
C56   C     C_3   0.070672 0.339901 0.790123 0.106922
C57   C     C_R   0.951843 0.215527 0.306173 0.288464
C58   C     C_R   0.748049 0.706271 0.244981 0.183532
C59   C     C_R   0.295465 0.035392 0.240022 0.222182
C60   C     C_R   0.934118 0.190766 0.256192 0.195484
C61   C     C_R   0.729903 0.779501 0.216402 -0.023192
C62   C     C_R   0.229929 0.939952 0.212144 0.018296
C63   C     C_R   0.022264 0.205720 0.226145 -0.004612
C64   C     C_3   0.604853 0.907738 0.734660 0.135070
C65   C     C_3   0.074050 0.706081 0.734885 0.138194
C66   C     C_3   0.287816 0.454047 0.740536 0.128707
C67   C     C_3   0.574558 0.716159 0.739102 -0.230908
C68   C     C_R   0.668182 0.824936 0.234835 -0.089459
C69   C     C_R   0.155315 0.841127 0.235809 -0.103586
C70   C     C_R   0.131461 0.269663 0.243041 -0.077046
C71   C     C_R   0.774644 0.810502 0.169910 0.276256
C72   C     C_R   0.235742 0.939188 0.161016 0.274388
C73   C     C_R   0.004404 0.161374 0.178841 0.249667
C74   C     C_R   0.606317 0.803884 0.384623 -0.008044
C75   C     C_R   0.188895 0.809407 0.386320 -0.016563
C76   C     C_R   0.190751 0.382129 0.387410 -0.010073
C77   C     C_3   0.765968 0.870876 0.724858 0.188001
C78   C     C_3   0.279758 0.811860 0.743008 -0.238825
C79   C     C_3   0.180073 0.916333 0.727916 0.182658
C80   C     C_3   0.171692 0.246616 0.726143 0.187935
C81   C     C_3   0.785438 0.886885 0.780924 0.116271
C82   C     C_3   0.169376 0.924364 0.783987 0.110448
C83   C     C_3   0.171823 0.231955 0.782542 0.103024
C84   C     C_1   0.729416 0.872309 0.903690 0.033946
C85   C     C_1   0.132302 0.856224 0.904995 0.049099
C86   C     C_1   0.140903 0.273458 0.904416 0.049515
C87   C     C_3   0.642818 0.828886 0.713042 -0.006587
C88   C     C_3   0.180360 0.808589 0.715378 0.002992
C89   C     C_3   0.081947 0.362291 0.734017 -0.274615
C90   C     C_3   0.184730 0.360894 0.713788 0.001731
C91   C     C_3   0.627123 0.921336 0.790787 -0.165276
C92   C     C_3   0.061163 0.717946 0.790638 -0.154818
C93   C     C_3   0.277656 0.434902 0.796923 -0.154051
C94   C     C_3   0.675247 0.848446 0.808762 0.000851
C95   C     C_3   0.162015 0.822781 0.811165 -0.001481
C96   C     C_3   0.169462 0.328325 0.809550 0.016653
Cl1   Cl    Cl    0.766603 0.603963 0.216084 -0.512483
Cl2   Cl    Cl    0.856614 0.817777 0.802470 -0.614190
Cl3   Cl    Cl    0.282029 0.050752 0.806464 -0.591871
Cl4   Cl    Cl    0.059232 0.101611 0.800294 -0.589794
Cl5   Cl    Cl    0.389454 0.162086 0.212145 -0.474106
Cl6   Cl    Cl    0.807080 0.165793 0.230325 -0.516915
Cl7   Cl    Cl    0.749163 0.731954 0.410031 -0.424757
Cl8   Cl    Cl    0.296286 0.028505 0.407337 -0.401803
Cl9   Cl    Cl    0.982803 0.244537 0.420710 -0.415778
Cl10  Cl    Cl    0.856977 0.994956 0.692491 -0.463580
Cl11  Cl    Cl    0.074962 0.930013 0.695902 -0.394641
Cl12  Cl    Cl    0.274635 0.224208 0.698087 -0.443068
Cr1   Cr    Cr6+3 0.164410 0.584450 0.499910 1.105644
Cr2   Cr    Cr6+3 0.415550 0.579960 0.499910 1.118568
Cr3   Cr    Cr6+3 0.420040 0.835590 0.499910 1.115819
Cr4   Cr    Cr6+3 0.155170 0.075460 0.019960 1.095609
Cr5   Cr    Cr6+3 0.924540 0.079710 0.019960 1.100760
Cr6   Cr    Cr6+3 0.920290 0.844830 0.019960 1.102014
H1    H     H_    0.685419 0.008828 0.799706 0.162071
H2    H     H_    0.627545 0.673436 0.806753 0.185214
H3    H     H_    0.341892 0.890134 0.813809 0.174729
H4    H     H_    0.992845 0.261552 0.797310 0.182406
H5    H     H_    0.633092 0.935380 0.128517 0.189912
H6    H     H_    0.003620 0.697467 0.136684 0.220846
H7    H     H_    0.267641 0.285114 0.137370 0.217884
H8    H     H_    0.512364 0.884018 0.368134 0.213044
H9    H     H_    0.075032 0.637625 0.375346 0.217532
H10   H     H_    0.360654 0.473882 0.366574 0.208731
H11   H     H_    0.786886 0.808321 0.711951 0.208415
H12   H     H_    0.984730 0.720861 0.797724 0.220354
H13   H     H_    0.259191 0.986705 0.715095 0.202229
H14   H     H_    0.091923 0.182717 0.710603 0.228930
H15   H     H_    0.839462 0.975360 0.788819 0.230307
H16   H     H_    0.093123 0.926899 0.791935 0.270902
H17   H     H_    0.248019 0.231523 0.793867 0.236724
H18   H     H_    0.485856 0.682939 0.730523 0.163008
H19   H     H_    0.287674 0.739217 0.732965 0.152049
H20   H     H_    0.088179 0.443119 0.725776 0.143706
H21   H     H_    0.597746 0.656228 0.724830 0.144847
H22   H     H_    0.356955 0.885921 0.731201 0.101452
H23   H     H_    0.349370 0.429420 0.811393 0.165636
H24   H     H_    0.006256 0.298812 0.715362 0.151755
H25   H     H_    0.522901 0.033679 0.209460 0.398652
H26   H     H_    0.956595 0.489125 0.217161 0.360646
H27   H     H_    0.482659 0.414542 0.212535 0.393707
H28   H     H_    0.415494 0.932444 0.267118 0.325938
H29   H     H_    0.892881 0.493534 0.287381 0.379106
H30   H     H_    0.494244 0.535994 0.262799 0.342043
H31   H     H_    0.911881 0.815292 0.186937 0.326893
H32   H     H_    0.336421 0.983093 0.106349 0.338047
H33   H     H_    0.867775 0.032717 0.192243 0.331101
H34   H     H_    0.514382 0.869989 0.728978 0.104882
H35   H     H_    0.805568 0.616434 0.308414 0.373181
H36   H     H_    0.349297 0.188777 0.300127 0.366579
H37   H     H_    0.796614 0.131863 0.323414 0.371094
H38   H     H_    0.618631 0.004535 0.680568 0.346602
H39   H     H_    0.975013 0.653390 0.678931 0.342477
H40   H     H_    0.402964 0.496650 0.691906 0.329526
H41   H     H_    0.498486 0.667482 0.852404 0.326852
H42   H     H_    0.281294 0.738831 0.856216 0.336270
H43   H     H_    0.993193 0.417794 0.807104 0.331450
H44   H     H_    0.082439 0.631573 0.729679 0.114045
H45   H     H_    0.291878 0.534382 0.732976 0.115539
H46   H     H_    0.549187 0.898644 0.810397 0.150782
H47   H     H_    0.051679 0.643883 0.810213 0.159494
H48   H     H_    0.279262 0.506346 0.815176 0.206188
O1    O     O_R   0.137150 0.468200 0.553200 -0.487581
O2    O     O_R   0.140110 0.470540 0.446010 -0.450534
O3    O     O_R   0.529460 0.669570 0.446010 -0.450429
O4    O     O_R   0.330430 0.859890 0.446010 -0.444785
O5    O     O_R   0.176710 0.690910 0.450560 -0.509911
O6    O     O_R   0.309090 0.485800 0.450560 -0.505271
O7    O     O_R   0.514200 0.823290 0.450560 -0.506112
O8    O     O_3   0.333333 0.666667 0.499990 -0.329959
O9    O     O_R   0.176750 0.985260 0.074180 -0.496669
O10   O     O_R   0.014740 0.191490 0.074180 -0.453475
O11   O     O_R   0.808510 0.823250 0.074180 -0.443669
O12   O     O_R   0.531800 0.668950 0.553200 -0.484045
O13   O     O_R   0.146100 0.172630 0.068980 -0.510829
O14   O     O_R   0.827370 0.973470 0.068980 -0.485257
O15   O     O_R   0.026530 0.853900 0.068980 -0.469614
O16   O     O_3   0.000000 1.000000 0.020040 -0.270426
O17   O     O_R   0.148270 0.170520 0.969620 -0.480497
O18   O     O_R   0.829480 0.977750 0.969620 -0.502124
O19   O     O_R   0.022250 0.851730 0.969620 -0.492942
O20   O     O_3   0.533867 0.979939 0.190546 -0.658723
O21   O     O_3   0.960409 0.554416 0.201049 -0.636336
O22   O     O_3   0.415164 0.397989 0.194014 -0.654328
O23   O     O_R   0.331050 0.862850 0.553200 -0.480157
O24   O     O_3   0.472482 0.945867 0.291947 -0.677562
O25   O     O_3   0.961742 0.537604 0.306098 -0.677724
O26   O     O_3   0.453161 0.487934 0.290710 -0.674561
O27   O     O_3   0.866641 0.803629 0.157163 -0.630449
O28   O     O_3   0.329773 0.015863 0.137272 -0.581567
O29   O     O_3   0.902332 0.081491 0.163685 -0.653310
O30   O     O_3   0.752310 0.632602 0.324705 -0.565962
O31   O     O_3   0.345432 0.125830 0.318466 -0.561187
O32   O     O_3   0.864627 0.195478 0.336124 -0.568589
O33   O     O_3   0.658012 0.011365 0.711802 -0.633861
O34   O     O_R   0.179100 0.982980 0.967000 -0.491173
O35   O     O_3   0.979415 0.691385 0.710046 -0.615691
O36   O     O_3   0.385509 0.459421 0.724274 -0.643245
O37   O     O_3   0.491300 0.690538 0.818813 -0.707214
O38   O     O_3   0.261884 0.721837 0.821174 -0.681148
O39   O     O_3   0.066284 0.425583 0.814552 -0.691484
O40   O     O_R   0.017020 0.196120 0.967000 -0.497676
O41   O     O_R   0.803880 0.820900 0.967000 -0.495440
O42   O     O_R   0.173970 0.688730 0.549930 -0.499778
O43   O     O_R   0.311270 0.485240 0.549930 -0.490049
O44   O     O_R   0.514760 0.826030 0.549930 -0.496166

loop_
_geom_bond_atom_site_label_1
_geom_bond_atom_site_label_2
_ccdc_geom_bond_type
C92   H47   S    
C25   C31   A    
C13   O14   A    
C26   C32   A    
C16   O18   A    
C55   C59   A    
C65   C92   S    
C18   C21   A    
C82   Cl3   S    
C32   O21   S    
C2    C84   T    
C67   H18   S    
C6    C9    T    
C13   C41   S    
H41   O37   S    
C66   C90   S    
C29   C76   S    
C27   C33   A    
C45   O38   S    
C13   O11   A    
C40   H7    S    
C58   Cl1   S    
C46   C49   A    
C19   H9    S    
C54   O30   S    
C60   C63   A    
C17   C85   S    
C32   C36   A    
C29   O6    A    
C22   C52   A    
C77   Cl10  S    
C47   C76   A    
C15   O17   A    
C54   C58   A    
H40   O36   S    
Cr2   O3    S    
C26   C39   A    
C37   O26   S    
H39   O35   S    
C81   Cl2   S    
C34   H2    S    
C39   H6    S    
C64   O33   S    
C16   C84   S    
C8    C23   S    
C6    C88   S    
C20   C76   A    
C7    C10   T    
C39   C42   A    
C46   C75   A    
C52   C69   A    
Cr1   O5    S    
C28   O5    A    
C4    C96   S    
Cr2   O6    S    
C43   C73   A    
Cr6   O11   S    
Cr4   O34   S    
C20   C24   A    
H33   O29   S    
Cr6   O16   S    
C11   C43   S    
C45   C78   S    
C82   C95   S    
C47   C50   A    
C16   O41   A    
C64   C87   S    
C28   O4    A    
C41   C71   A    
C61   C71   A    
C58   C61   A    
Cr5   O16   S    
C11   O10   A    
C18   C74   A    
C64   H34   S    
C29   O2    A    
H42   O38   S    
C25   C68   A    
H29   O25   S    
C80   C83   S    
C60   Cl6   S    
C53   C70   A    
C34   O37   S    
C72   O28   S    
C66   H45   S    
C44   Cl7   S    
Cr5   O10   S    
C10   C12   S    
Cr2   O12   S    
H28   O24   S    
Cr3   O23   S    
H26   O21   S    
C62   C72   A    
C50   C53   A    
C2    C94   S    
C19   C22   A    
C1    C9    S    
C30   O3    A    
C38   C41   A    
Cr2   O43   S    
Cr1   O1    S    
C23   O12   A    
C65   H44   S    
C57   C60   A    
C56   O39   S    
C63   C73   A    
C47   Cl9   S    
C24   C53   A    
C49   C55   A    
C7    C90   S    
C46   Cl8   S    
C92   C95   S    
C33   C37   A    
C62   C69   A    
Cr3   O7    S    
C59   Cl5   S    
C48   C54   A    
H36   O31   S    
C83   H17   S    
C67   H21   S    
C25   C38   A    
C79   C82   S    
C81   H15   S    
C63   C70   A    
C77   C81   S    
C27   C40   A    
Cr6   O15   S    
C40   C43   A    
C33   O22   S    
C42   C72   A    
C24   C37   A    
C5    C87   S    
C79   Cl11  S    
Cr3   O4    S    
C66   O36   S    
Cr5   O40   S    
C71   O27   S    
C44   C74   A    
C11   O13   A    
C27   C70   A    
Cr3   O44   S    
C91   H46   S    
C73   O29   S    
H25   O20   S    
C79   C88   S    
C48   C51   A    
C18   H8    S    
Cr4   O17   S    
C65   O35   S    
C38   H5    S    
Cr2   O8    S    
C56   C89   S    
C55   O31   S    
C93   C96   S    
C83   Cl4   S    
Cr5   O14   S    
C23   O44   A    
C31   C35   A    
C3    C85   T    
C82   H16   S    
C4    C86   T    
C45   C95   S    
C21   C51   A    
C15   O40   A    
C77   H11   S    
Cr1   O8    S    
H37   O32   S    
C65   C88   S    
Cr4   O16   S    
H30   O26   S    
C78   C88   S    
C56   C96   S    
C79   H13   S    
C59   C62   A    
C89   H20   S    
H38   O33   S    
H31   O27   S    
C66   C93   S    
C50   C57   A    
C56   H4    S    
Cr1   O42   S    
C34   C94   S    
C49   C52   A    
C14   O9    A    
Cr1   O2    S    
C92   H12   S    
C34   C67   S    
C5    C8    T    
C15   C86   S    
C21   C35   A    
C1    O23   A    
Cr4   O9    S    
Cr6   O19   S    
C22   C36   A    
C80   Cl12  S    
C67   C87   S    
C14   C42   S    
C57   O32   S    
C36   O25   S    
C12   O43   A    
H27   O22   S    
Cr3   O8    S    
C19   C75   A    
C80   H14   S    
C31   O20   S    
Cr5   O18   S    
C12   O1    A    
C81   C94   S    
C1    O42   A    
C61   C68   A    
C93   H48   S    
C35   O24   S    
C30   C74   S    
C83   C96   S    
C91   H1    S    
C30   O7    A    
C51   C68   A    
C80   C90   S    
C78   H19   S    
C45   H3    S    
C20   H10   S    
C14   O15   A    
C93   H23   S    
H35   O30   S    
C17   O19   A    
Cr4   O13   S    
H43   O39   S    
C77   C87   S    
C89   H24   S    
C26   C69   A    
Cr6   O41   S    
H32   O28   S    
C17   O34   A    
C3    C95   S    
C64   C91   S    
C89   C90   S    
C28   C75   S    
C78   H22   S    
C44   C48   A    
C91   C94   S    
