data_mof_unit_12078.cif
_audit_creation_date              2012-12-11T21:15:13-0500
_audit_creation_method            fapswitch 2.2
_symmetry_space_group_name_H-M    P1
_symmetry_Int_Tables_number       1
_space_group_crystal_system       triclinic
_cell_length_a                    8.511562
_cell_length_b                    18.865803
_cell_length_c                    26.762336
_cell_angle_alpha                 99.783205
_cell_angle_beta                  92.247564
_cell_angle_gamma                 88.308876
_cell_volume                      4230.53630161

loop_
_atom_site_label
_atom_site_type_symbol
_atom_type_description
_atom_site_fract_x
_atom_site_fract_y
_atom_site_fract_z
_atom_type_partial_charge
Ba1   Ba    Ba6+2 0.160810 0.465630 0.521640 1.753304
Ba2   Ba    Ba6+2 0.649380 0.534380 0.478400 1.710670
C1    C     C_3   0.297201 0.204239 0.671941 0.184828
C2    C     C_R   0.086848 0.098119 0.461126 0.023892
C3    C     C_R   0.233250 0.076311 0.441089 -0.070565
C4    C     C_3   0.870420 0.294675 0.655799 0.872969
C5    C     C_R   0.290719 0.005531 0.439342 0.007931
C6    C     C_R   0.199012 0.954570 0.457945 0.037952
C7    C     C_R   0.051198 0.976614 0.478445 0.019033
C8    C     C_R   0.252001 0.882669 0.456950 -0.124556
C9    C     C_R   0.159117 0.831355 0.473844 -0.014944
C10   C     C_R   0.012577 0.854085 0.495400 0.038741
C11   C     C_R   0.959790 0.927009 0.497833 0.039289
C12   C     C_3   0.371850 0.246278 0.635309 0.259065
C13   C     C_R   0.209741 0.758219 0.470907 -0.011458
C14   C     C_R   0.114114 0.709498 0.488779 -0.268589
C15   C     C_R   0.974851 0.731559 0.513516 0.072078
C16   C     C_3   0.857120 0.238528 0.691615 0.255774
C17   C     C_R   0.923082 0.805223 0.517268 -0.006264
C18   C     C_R   0.849572 0.071845 0.501158 0.031977
C19   C     C_R   0.795276 0.144492 0.502851 0.064823
C20   C     C_R   0.886555 0.193937 0.482328 -0.021474
C21   C     C_R   0.030053 0.168625 0.461036 -0.035792
C22   C     C_R   0.787611 0.832510 0.543374 0.035186
C23   C     C_3   0.465084 0.300410 0.354178 0.299210
C24   C     C_R   0.729122 0.902675 0.542221 0.014971
C25   C     C_R   0.815542 0.950576 0.519963 0.026155
C26   C     C_R   0.758966 0.022433 0.520932 0.022575
C27   C     C_R   0.584123 0.925343 0.563077 -0.023592
C28   C     C_3   0.882120 0.646185 0.644109 0.677963
C29   C     C_R   0.522403 0.994823 0.562010 0.045225
C30   C     C_R   0.611430 0.044631 0.541478 0.069390
C31   C     C_R   0.648974 0.167197 0.524353 -0.005363
C32   C     C_R   0.556837 0.115946 0.541389 -0.072675
C33   C     C_R   0.600561 0.240758 0.528605 0.048761
C34   C     C_3   0.571960 0.286322 0.307920 0.189284
C35   C     C_R   0.696002 0.289414 0.510713 -0.150451
C36   C     C_R   0.833169 0.267235 0.485086 0.059720
C37   C     C_R   0.272269 0.462493 0.173955 0.613988
C38   C     C_R   0.228900 0.590039 0.181577 0.582429
C39   C     C_2   0.062472 0.562335 0.275034 -0.035496
C40   C     C_3   0.014063 0.655525 0.685230 0.342367
C41   C     C_3   0.046619 0.577352 0.331770 -0.061568
C42   C     C_1   0.274394 0.498118 0.338979 0.078651
C43   C     C_2   0.316424 0.505498 0.292724 -0.117374
C44   C     C_2   0.198215 0.531686 0.256304 0.224877
C45   C     C_3   0.872433 0.734780 0.378861 0.412288
C46   C     C_R   0.312588 0.521382 0.101055 -0.079366
C47   C     C_R   0.310897 0.458238 0.122595 -0.043660
C48   C     C_R   0.348605 0.392196 0.092438 -0.048648
C49   C     C_R   0.271882 0.587695 0.130950 -0.029338
C50   C     C_2   0.135101 0.521244 0.357306 -0.166405
C51   C     C_2   0.660168 0.488201 0.638837 -0.159430
C52   C     C_3   0.027363 0.290591 0.355684 0.610915
C53   C     C_R   0.416447 0.447380 0.966383 0.017373
C54   C     C_R   0.415930 0.579892 0.978866 0.019385
C55   C     C_R   0.436986 0.512129 0.947149 0.056699
C56   C     C_3   0.885006 0.804529 0.357504 0.645518
C57   C     C_R   0.426514 0.381504 0.932217 -0.095680
C58   C     C_R   0.461262 0.379259 0.881561 -0.030752
C59   C     C_R   0.489678 0.442453 0.862824 -0.040459
C60   C     C_R   0.478584 0.509092 0.895624 -0.080800
C61   C     C_R   0.507971 0.572721 0.876815 -0.050864
C62   C     C_R   0.551619 0.568635 0.825989 0.609493
C63   C     C_R   0.527626 0.440471 0.811757 0.613921
C64   C     C_3   0.994816 0.217921 0.321062 -0.191612
C65   C     C_2   0.756917 0.488896 0.728772 -0.049834
C66   C     C_3   0.802387 0.493122 0.674987 -0.040071
C67   C     C_3   0.360368 0.731951 0.353538 0.362610
C68   C     C_1   0.522542 0.513286 0.656083 0.096397
C69   C     C_2   0.481533 0.510419 0.702858 -0.023983
C70   C     C_2   0.604982 0.499456 0.742159 0.253313
C71   C     C_R   0.384905 0.450557 0.018708 0.020456
C72   C     C_R   0.354197 0.518230 0.049499 0.053879
C73   C     C_R   0.364306 0.582818 0.029240 0.018857
C74   C     C_R   0.384062 0.388279 0.041645 -0.089654
C75   C     C_R   0.274456 0.650523 0.109666 -0.035824
C76   C     C_3   0.328866 0.690215 0.597637 0.343788
C77   C     C_R   0.448629 0.642604 0.959032 -0.088494
C78   C     C_3   0.320402 0.797211 0.328058 -0.293265
C79   C     C_R   0.494136 0.638952 0.909239 -0.030107
C80   C     C_R   0.320371 0.648316 0.060110 -0.092280
C81   C     C_3   0.365470 0.769965 0.615991 0.633601
C82   C     C_3   0.945586 0.156882 0.346873 -0.399233
C83   C     C_3   0.548306 0.304018 0.405485 -0.357338
C84   C     C_3   0.500763 0.314697 0.261590 -0.180286
C85   C     C_3   0.770408 0.267836 0.739965 -0.271702
C86   C     C_3   0.434194 0.672905 0.315292 -0.267257
C87   C     C_3   0.448083 0.985889 0.416438 -0.330511
C88   C     C_3   0.363766 0.014765 0.584182 -0.320603
C89   C     C_R   0.995975 0.048848 0.480402 0.017909
C90   C     C_3   0.053551 0.484066 0.395027 -0.157891
Cl1   Cl    Cl    0.015109 0.744275 0.721682 -0.406615
Cl2   Cl    Cl    0.680225 0.328268 0.641162 -0.863919
Cl3   Cl    Cl    0.766460 0.157143 0.661052 -0.653773
Cl4   Cl    Cl    0.704096 0.664327 0.676583 -0.586562
Cl5   Cl    Cl    0.045980 0.349076 0.310125 -0.725226
Cl6   Cl    Cl    0.280714 0.258117 0.733257 -0.636535
Cl7   Cl    Cl    0.388522 0.793129 0.683526 -0.382307
Cl8   Cl    Cl    0.214597 0.827679 0.597626 -0.725994
Cl9   Cl    Cl    0.601609 0.191121 0.289613 -0.724177
Cl10  Cl    Cl    0.717060 0.861127 0.371379 -0.699361
Cl11  Cl    Cl    0.908848 0.787235 0.290551 -0.599899
Cl12  Cl    Cl    0.957549 0.251830 0.599135 -0.635572
H1    H     H_    0.369669 0.304724 0.651273 0.152090
H2    H     H_    0.493158 0.224311 0.630937 0.089506
H3    H     H_    0.372819 0.156968 0.677074 0.092784
H4    H     H_    0.392033 0.251842 0.350941 0.107296
H5    H     H_    0.686669 0.312212 0.317729 0.125304
H6    H     H_    0.181112 0.183896 0.657018 0.132764
H7    H     H_    0.820681 0.746568 0.416893 0.019810
H8    H     H_    0.994423 0.714150 0.383824 -0.152916
H9    H     H_    0.988007 0.834534 0.375761 -0.060200
H10   H     H_    0.248361 0.711613 0.364904 -0.059288
H11   H     H_    0.243877 0.781363 0.293683 0.165514
H12   H     H_    0.002075 0.616066 0.711195 -0.013211
H13   H     H_    0.428745 0.820402 0.316452 0.191754
H14   H     H_    0.257303 0.839168 0.354297 0.091702
H15   H     H_    0.303068 0.114828 0.426396 0.081371
H16   H     H_    0.155182 0.654287 0.486799 0.043092
H17   H     H_    0.366338 0.866655 0.442692 0.129617
H18   H     H_    0.096946 0.202009 0.441632 0.096700
H19   H     H_    0.724405 0.799725 0.564591 0.121597
H20   H     H_    0.517362 0.888496 0.579918 0.115446
H21   H     H_    0.442739 0.131525 0.555453 0.089025
H22   H     H_    0.655776 0.344829 0.513155 0.052256
H23   H     H_    0.129231 0.646284 0.668194 0.036431
H24   H     H_    0.436559 0.494403 0.281192 0.083347
H25   H     H_    0.350437 0.342781 0.108030 0.131823
H26   H     H_    0.848195 0.482659 0.757292 0.074390
H27   H     H_    0.466858 0.327308 0.857041 0.157487
H28   H     H_    0.403789 0.330476 0.943134 0.087850
H29   H     H_    0.414580 0.335491 0.021627 0.083253
H30   H     H_    0.974450 0.583158 0.250486 0.119998
H31   H     H_    0.241728 0.702250 0.131501 0.144337
H32   H     H_    0.444205 0.695649 0.981540 0.087514
H33   H     H_    0.518057 0.688701 0.896132 0.150634
H34   H     H_    0.137657 0.286564 0.378222 0.025470
H35   H     H_    0.361513 0.522419 0.714228 0.095882
H36   H     H_    0.315998 0.699002 0.046613 0.087291
H37   H     H_    0.674228 0.467950 0.598742 0.078640
H38   H     H_    0.976452 0.222857 0.703824 0.132373
H39   H     H_    0.885792 0.590451 0.622746 -0.191821
H40   H     H_    0.893869 0.113729 0.318049 0.214478
H41   H     H_    0.050869 0.132697 0.363427 0.101888
H42   H     H_    0.855519 0.175517 0.375264 0.142299
H43   H     H_    0.625709 0.350462 0.413425 0.133058
H44   H     H_    0.459790 0.310517 0.435241 0.107790
H45   H     H_    0.102969 0.199835 0.299990 0.127158
H46   H     H_    0.616978 0.253328 0.406369 0.055662
H47   H     H_    0.575624 0.297727 0.228386 0.139626
H48   H     H_    0.380575 0.293888 0.252065 0.190972
H49   H     H_    0.495741 0.374122 0.269035 0.090151
H50   H     H_    0.642757 0.273009 0.731053 0.228722
H51   H     H_    0.786557 0.229984 0.767427 0.153158
H52   H     H_    0.816781 0.320831 0.758055 0.129371
H53   H     H_    0.475066 0.627979 0.334636 0.120607
H54   H     H_    0.346074 0.653037 0.285495 0.091943
H55   H     H_    0.533546 0.693351 0.296675 0.186362
H56   H     H_    0.903096 0.225728 0.291863 0.211465
H57   H     H_    0.431643 0.945523 0.381490 0.180540
H58   H     H_    0.505938 0.033098 0.406023 0.131626
H59   H     H_    0.528002 0.963611 0.443894 0.140291
H60   H     H_    0.308810 0.968779 0.596968 0.197406
H61   H     H_    0.377472 0.057802 0.617494 0.132279
H62   H     H_    0.282403 0.033727 0.555638 0.108054
H63   H     H_    0.105284 0.431322 0.399354 0.122316
H64   H     H_    0.059415 0.518320 0.432962 0.109877
H65   H     H_    0.930585 0.471325 0.382435 0.154980
H66   H     H_    0.200422 0.682302 0.594951 -0.044129
H67   H     H_    0.378583 0.672626 0.559598 -0.031068
H68   H     H_    0.477645 0.781234 0.599742 -0.010981
N1    N     N_R   0.233018 0.528033 0.203053 -0.431573
N2    N     N_R   0.562131 0.502824 0.794353 -0.445266
O1    O     O_2   0.106080 0.324280 0.466820 -0.465653
O2    O     O_2   0.718951 0.545366 0.324735 -0.489223
O3    O     O_3   0.777001 0.685378 0.346605 -0.561871
O4    O     O_3   0.859130 0.413620 0.470620 -0.484321
O5    O     O_3   0.459240 0.537930 0.559910 -0.490686
O6    O     O_2   0.583120 0.462390 0.379940 -0.473179
O7    O     O_3   0.353913 0.355993 0.351996 -0.627027
O8    O     O_2   0.528896 0.756622 0.489970 -0.491298
O9    O     O_3   0.469370 0.751634 0.394273 -0.536760
O10   O     O_2   0.271374 0.407672 0.192563 -0.571479
O11   O     O_2   0.528810 0.383288 0.782607 -0.555329
O12   O     O_3   0.397467 0.651882 0.633326 -0.565997
O13   O     O_2   0.188771 0.647567 0.206631 -0.579568
O14   O     O_2   0.579801 0.623574 0.809810 -0.508587
O15   O     O_3   0.376230 0.370290 0.556910 -0.440733
O16   O     O_2   0.310597 0.250391 0.495328 -0.494832
O17   O     O_3   0.898163 0.317493 0.385553 -0.659745
O18   O     O_3   0.292465 0.235749 0.587837 -0.563670
O19   O     O_2   0.227190 0.537650 0.620070 -0.508169
O20   O     O_3   0.971110 0.406970 0.583250 -0.416886
O21   O     O_2   0.121067 0.458935 0.670651 -0.467454
O22   O     O_3   0.969375 0.349825 0.679655 -0.591374
O23   O     O_2   0.704230 0.675760 0.533200 -0.464510
O24   O     O_3   0.951180 0.586390 0.529420 -0.516149
O25   O     O_3   0.434080 0.629720 0.443130 -0.481507
O26   O     O_3   0.895152 0.698045 0.612921 -0.590997
O27   O     O_3   0.351080 0.462080 0.440130 -0.475918
O28   O     O_3   0.839200 0.593040 0.416790 -0.499267
P1    P     P_3+3 0.929380 0.335110 0.452880 0.958498
P2    P     P_3+3 0.398530 0.559060 0.613740 1.046777
P3    P     P_3+3 0.961816 0.427121 0.650451 1.081224
P4    P     P_3+3 0.880940 0.664900 0.547160 1.014506
P5    P     P_3+3 0.841512 0.598423 0.352771 0.991891
P6    P     P_3+3 0.400156 0.275452 0.545683 1.026287
P7    P     P_3+3 0.401404 0.445546 0.376391 0.972115
P8    P     P_3+3 0.407028 0.723505 0.449308 0.960880

loop_
_geom_bond_atom_site_label_1
_geom_bond_atom_site_label_2
_ccdc_geom_bond_type
C28   O26   S    
C53   C57   A    
C63   N2    Am   
O24   P4    S    
Ba2   O23   S    
O18   P6    S    
C71   C72   A    
Ba1   O24   S    
Ba2   O28   S    
C83   H44   S    
O8    P8    D    
C37   N1    Am   
C8    H17   S    
Ba1   O27   S    
C7    C89   A    
C4    O22   S    
C55   C60   A    
C38   O13   D    
C43   C44   S    
O9    P8    S    
C79   H33   S    
C77   H32   S    
C24   C25   A    
C35   C36   A    
C54   C77   A    
Ba2   O6    S    
C61   C79   A    
O2    P5    D    
C15   P4    S    
C33   C35   A    
C84   H49   S    
C22   C24   A    
C65   C70   D    
C13   P8    S    
C48   C74   A    
C14   H16   S    
C38   N1    Am   
C41   C50   S    
C19   C31   A    
C82   H40   S    
C43   H24   S    
C13   C14   A    
C20   C36   A    
C27   H20   S    
C76   H66   S    
C16   C85   S    
C54   C55   A    
O7    P7    S    
Ba1   Ba2   S    
C86   H55   S    
O27   P7    S    
O22   P3    S    
C51   C66   S    
C7    C11   A    
C83   H46   S    
C28   Cl4   S    
C15   C17   A    
C9    C13   A    
C76   C81   S    
C12   H1    S    
C14   C15   A    
C4    Cl2   S    
C56   H9    S    
C80   H36   S    
C39   C44   D    
C52   Cl5   S    
C68   C69   D    
Ba2   P4    S    
C70   N2    S    
C11   C25   A    
C37   O10   D    
C87   H57   S    
C2    C89   A    
C12   O18   S    
C42   C50   D    
C57   C58   A    
C54   C73   A    
C81   Cl7   S    
O4    P1    S    
C88   H62   S    
C67   C86   S    
C16   Cl3   S    
C39   C41   S    
O23   P4    D    
C59   C60   A    
Ba2   O27   S    
O17   P1    S    
C27   C29   A    
C51   C68   D    
C58   H27   S    
C64   H56   S    
C39   H30   S    
C23   O7    S    
C21   H18   S    
C78   H14   S    
C46   C49   A    
C68   P2    S    
C4    C16   S    
C18   C89   A    
C63   O11   D    
C67   H10   S    
C85   H50   S    
C52   O17   S    
C41   P5    S    
Ba2   O25   S    
C46   C72   A    
O28   P5    S    
C16   H38   S    
C64   H45   S    
C72   C73   A    
C3    C5    A    
C2    C21   A    
C6    C7    A    
C69   H35   S    
C18   C26   A    
C1    H3    S    
C82   H41   S    
C22   H19   S    
C28   H39   S    
O3    P5    S    
C88   H60   S    
C58   C59   A    
C30   C32   A    
Ba1   O19   S    
C65   C66   S    
C49   C75   A    
C60   C61   A    
C48   H25   S    
C84   H48   S    
Ba1   O4    S    
C90   H64   S    
C29   C30   A    
O21   P3    D    
C78   H11   S    
C26   C30   A    
C90   H65   S    
C9    C10   A    
C29   C88   S    
C81   H68   S    
C23   C83   S    
C31   C32   A    
C44   N1    S    
O12   P2    S    
C86   H53   S    
C18   C19   A    
O19   P2    D    
C62   O14   D    
C1    C12   S    
C40   H23   S    
C67   O9    S    
C76   O12   S    
C40   Cl1   S    
O16   P6    D    
C46   C47   A    
C37   C47   A    
C3    H15   S    
C86   H54   S    
C36   P1    S    
C53   C55   A    
C88   H61   S    
C71   C74   A    
C85   H51   S    
C50   C90   S    
C65   H26   S    
Ba2   O5    S    
C62   N2    Am   
Ba1   P1    S    
C87   H58   S    
C34   H5    S    
C42   C43   D    
C77   C79   A    
C35   H22   S    
C40   H12   S    
O20   P3    S    
C78   H13   S    
Ba1   O1    S    
O26   P4    S    
Ba2   O4    S    
Ba2   O24   S    
C1    H6    S    
C28   C40   S    
C83   H43   S    
C2    C3    A    
C74   H29   S    
C73   C80   A    
C52   C64   S    
C82   H42   S    
C38   C49   A    
C75   H31   S    
C4    Cl12  S    
C81   Cl8   S    
O25   P8    S    
C34   C84   S    
C17   C22   A    
O1    P1    D    
C69   C70   S    
C45   O3    S    
C84   H47   S    
C45   C56   S    
Ba1   O5    S    
C90   H63   S    
C52   H34   S    
C75   C80   A    
C32   H21   S    
C45   H7    S    
C56   Cl10  S    
C57   H28   S    
C10   C17   A    
C76   H67   S    
C31   C33   A    
C42   P7    S    
Ba1   O20   S    
C51   H37   S    
O6    P7    D    
C5    C6    A    
C8    C9    A    
C23   C34   S    
C64   C82   S    
C61   C62   A    
C53   C71   A    
C59   C63   A    
C33   P6    S    
C12   H2    S    
O5    P2    S    
C24   C27   A    
C6    C8    A    
C47   C48   A    
C66   P3    S    
C20   C21   A    
C34   Cl9   S    
C67   C78   S    
C56   Cl11  S    
O15   P6    S    
C10   C11   A    
C19   C20   A    
Ba1   P2    S    
C85   H52   S    
C87   H59   S    
C1    Cl6   S    
C45   H8    S    
C23   H4    S    
Ba1   O15   S    
C25   C26   A    
C5    C87   S    
