data_mof_unit_25642.cif
_audit_creation_date              2012-12-10T17:18:54-0500
_audit_creation_method            fapswitch 2.2
_symmetry_space_group_name_H-M    P1
_symmetry_Int_Tables_number       1
_space_group_crystal_system       triclinic
_cell_length_a                    9.59246
_cell_length_b                    10.861925
_cell_length_c                    13.437646
_cell_angle_alpha                 92.8564
_cell_angle_beta                  72.170193
_cell_angle_gamma                 89.59805
_cell_volume                      1330.83507924

loop_
_atom_site_label
_atom_site_type_symbol
_atom_type_description
_atom_site_fract_x
_atom_site_fract_y
_atom_site_fract_z
_atom_type_partial_charge
C1    C     C_R   0.501650 0.737199 0.493052 0.808797
C2    C     C_R   0.433705 0.477513 0.979108 0.083216
C3    C     C_R   0.472202 0.450833 0.869453 0.089374
C4    C     C_R   0.542620 0.463324 0.030017 0.074801
C5    C     C_R   0.682172 0.411102 0.973358 0.171324
C6    C     C_R   0.710712 0.370564 0.868995 -0.235218
C7    C     C_R   0.606718 0.388248 0.818227 -0.197212
C8    C     C_R   0.517890 0.501232 0.135361 -0.246540
C9    C     C_R   0.761330 0.431732 0.128287 -0.213185
C10   C     C_R   0.373840 0.486017 0.814706 -0.108057
C11   C     C_R   0.254899 0.884565 0.456351 -0.169439
C12   C     C_R   0.421504 0.493389 0.699822 0.786562
C13   C     C_R   0.119989 0.946170 0.478846 -0.114108
C14   C     C_R   0.099002 0.061482 0.531144 -0.114054
C15   C     C_R   0.216956 0.120230 0.551274 -0.157249
C16   C     C_R   0.359073 0.064264 0.518114 0.096703
C17   C     C_R   0.371661 0.938128 0.486226 0.095474
C18   C     C_R   0.499950 0.871495 0.486336 -0.120933
C19   C     C_R   0.622924 0.935569 0.493779 -0.197461
C20   C     C_R   0.619523 0.062884 0.502907 -0.215115
C21   C     C_R   0.489234 0.128821 0.514332 -0.114657
C22   C     C_R   0.916173 0.335977 0.360518 -0.160533
C23   C     C_R   0.496280 0.262917 0.507234 0.776567
C24   C     C_R   0.017523 0.254548 0.292565 -0.227903
C25   C     C_R   0.161098 0.253346 0.292818 -0.194573
C26   C     C_R   0.204262 0.333751 0.360837 -0.125983
C27   C     C_R   0.104587 0.418486 0.431650 0.178537
C28   C     C_R   0.955059 0.419026 0.431564 0.193882
C29   C     C_R   0.895637 0.577019 0.564876 -0.033120
C30   C     C_R   0.043197 0.578336 0.565978 0.047028
C31   C     C_R   0.578767 0.497715 0.299885 0.782124
C32   C     C_R   0.790860 0.397506 0.022433 -0.192567
C33   C     C_R   0.623320 0.481098 0.185567 -0.046055
C34   C     C_R   0.230676 0.525539 0.871407 -0.188944
C35   C     C_R   0.187189 0.537065 0.979905 -0.145820
C36   C     C_R   0.287479 0.516015 0.033476 -0.182501
Cu1   Cu    Cu3+1 0.359340 0.500010 0.500010 0.902242
Cu2   Cu    Cu3+1 0.640660 0.499990 0.499990 0.925053
H1    H     H_    0.844289 0.415580 0.165878 0.153385
H2    H     H_    0.266699 0.797043 0.412563 0.161018
H3    H     H_    0.030691 0.902983 0.457960 0.130986
H4    H     H_    0.992186 0.106884 0.553863 0.132027
H5    H     H_    0.193640 0.207871 0.595274 0.162838
H6    H     H_    0.719403 0.109615 0.501733 0.164498
H7    H     H_    0.813837 0.639018 0.617215 0.192434
H8    H     H_    0.809023 0.330171 0.353804 0.201776
H9    H     H_    0.984167 0.192050 0.239184 0.155196
H10   H     H_    0.240058 0.189695 0.239751 0.155861
H11   H     H_    0.317037 0.324854 0.354123 0.202639
H12   H     H_    0.814232 0.325153 0.826140 0.144869
H13   H     H_    0.897583 0.357730 0.979451 0.140546
H14   H     H_    0.416517 0.546397 0.180842 0.149798
H15   H     H_    0.152492 0.550130 0.831786 0.161013
H16   H     H_    0.245861 0.527727 0.117561 0.132945
H17   H     H_    0.075930 0.566362 0.022789 0.153021
H18   H     H_    0.632433 0.348821 0.739167 0.174673
H19   H     H_    0.723152 0.887347 0.491606 0.165432
N1    N     N_R   0.852480 0.498790 0.499000 -0.227158
N2    N     N_R   0.148360 0.498710 0.498970 -0.249488
O1    O     O_R   0.381190 0.680360 0.500010 -0.615760
O2    O     O_R   0.618760 0.680340 0.500000 -0.573526
O3    O     O_R   0.323240 0.499990 0.650990 -0.610715
O4    O     O_R   0.560820 0.499960 0.650980 -0.576141
O5    O     O_R   0.381240 0.319660 0.500000 -0.608309
O6    O     O_R   0.618810 0.319640 0.499990 -0.603600
O7    O     O_R   0.439180 0.500040 0.349020 -0.602228
O8    O     O_R   0.676760 0.500010 0.349010 -0.594770
C37   C     C_2   0.077990 0.668041 0.641748 0.341326
H20   H     H_    0.184760 0.673804 0.650850 0.154300
O9    O     O_2   0.984158 0.739635 0.697272 -0.579341

loop_
_geom_bond_atom_site_label_1
_geom_bond_atom_site_label_2
_ccdc_geom_bond_type
C31   O7    A    
C2    C4    A    
C24   C25   A    
C31   C33   S    
C32   H13   S    
C29   C30   A    
C30   C37   S    
C28   N1    A    
C12   O3    A    
C8    H14   S    
C35   C36   A    
Cu2   O6    S    
C4    C8    A    
C14   H4    S    
Cu2   O2    S    
C30   N2    A    
C5    C32   A    
C13   H3    S    
C2    C3    A    
C1    C18   S    
C15   H5    S    
C10   C34   A    
C3    C10   A    
C27   N2    A    
C13   C14   A    
C6    H12   S    
C31   O8    A    
C11   C13   A    
C25   H10   S    
C23   O6    A    
C26   C27   A    
Cu1   N2    S    
C10   C12   S    
C7    H18   S    
C9    C33   A    
C5    C6    A    
C23   O5    A    
C22   H8    S    
Cu1   Cu2   S    
C17   C18   A    
C6    C7    A    
C3    C7    A    
C8    C33   A    
C21   C23   S    
Cu1   O7    S    
C11   H2    S    
C37   H20   S    
C22   C24   A    
C26   H11   S    
Cu1   O1    S    
C36   H16   S    
C35   H17   S    
C15   C16   A    
Cu2   O8    S    
C20   C21   A    
C9    H1    S    
Cu1   O5    S    
C18   C19   A    
C29   N1    A    
C34   H15   S    
C37   O9    D    
C34   C35   A    
C1    O1    A    
C2    C36   A    
C27   C28   A    
C12   O4    A    
Cu1   O3    S    
C14   C15   A    
C4    C5    A    
C22   C28   A    
C9    C32   A    
C20   H6    S    
C25   C26   A    
Cu2   O4    S    
C24   H9    S    
C16   C21   A    
Cu2   N1    S    
C19   H19   S    
C11   C17   A    
C19   C20   A    
C29   H7    S    
C16   C17   A    
C1    O2    A    
