data_mof_unit_21642.cif
_audit_creation_date              2013-03-05T15:52:44-0500
_audit_creation_method            fapswitch 2.2
_symmetry_space_group_name_H-M    P1
_symmetry_Int_Tables_number       1
_space_group_crystal_system       triclinic
_cell_length_a                    9.955518
_cell_length_b                    10.469286
_cell_length_c                    13.03155
_cell_angle_alpha                 91.743399
_cell_angle_beta                  70.466323
_cell_angle_gamma                 89.959771
_cell_volume                      1279.390298

loop_
_atom_site_label
_atom_site_type_symbol
_atom_site_description
_atom_site_fract_x
_atom_site_fract_y
_atom_site_fract_z
_atom_type_partial_charge
O1    O     O_R   0.385310 0.683220 0.500000 -0.572534
O2    O     O_R   0.614640 0.683250 0.500010 -0.564827
C1    C     C_R   0.509858 0.736113 0.477457 0.964806
O3    O     O_R   0.328400 0.499950 0.653610 -0.607851
O4    O     O_R   0.557730 0.499970 0.653620 -0.635680
C2    C     C_R   0.421728 0.485423 0.702635 0.963481
Zn1   Zn    Zn3+2 0.346880 0.499980 0.499990 0.984371
Zn2   Zn    Zn3+2 0.653120 0.500020 0.500010 0.993082
O5    O     O_R   0.385360 0.316750 0.499990 -0.627227
O6    O     O_R   0.614690 0.316780 0.500000 -0.639867
O7    O     O_R   0.442270 0.500030 0.346380 -0.629176
O8    O     O_R   0.671600 0.500050 0.346390 -0.596935
C3    C     C_R   0.506293 0.259928 0.484969 0.871405
C4    C     C_R   0.579101 0.497911 0.295415 0.823384
C5    C     C_R   0.775421 0.350019 0.019869 -0.195781
H1    H     H_    0.824440 0.378286 0.167120 0.156195
H2    H     H_    0.795596 0.269233 0.817621 0.161166
H3    H     H_    0.874102 0.298463 0.978556 0.149804
C6    C     C_R   0.625746 0.472067 0.177908 -0.099123
C7    C     C_R   0.229247 0.474462 0.881638 -0.134751
C8    C     C_R   0.185701 0.464461 0.994098 -0.133557
C9    C     C_R   0.287140 0.444755 0.044033 -0.147813
C10   C     C_R   0.432345 0.429396 0.980826 0.085745
C11   C     C_R   0.469365 0.410491 0.867912 0.084730
C12   C     C_R   0.541576 0.427754 0.026854 -0.016200
C13   C     C_R   0.671802 0.363933 0.969847 0.164161
C14   C     C_R   0.697045 0.318909 0.862817 -0.201533
C15   C     C_R   0.599535 0.347126 0.810463 -0.198715
C16   C     C_R   0.529373 0.497086 0.123334 -0.081456
C17   C     C_R   0.749379 0.398948 0.125698 -0.199369
C18   C     C_R   0.372674 0.453930 0.817937 -0.108795
H4    H     H_    0.151058 0.497515 0.844554 0.158558
H5    H     H_    0.251174 0.436216 0.131408 0.161039
H6    H     H_    0.074379 0.476629 0.042755 0.154020
H7    H     H_    0.624790 0.315005 0.726413 0.176194
C19   C     C_R   0.324255 0.864020 0.367431 -0.080549
H8    H     H_    0.323490 0.761734 0.360383 0.205714
C20   C     C_R   0.231241 0.930396 0.328305 -0.033019
H9    H     H_    0.160624 0.878244 0.295031 0.209979
C21   C     C_R   0.234485 0.062939 0.326595 -0.143868
H10   H     H_    0.165479 0.114231 0.292665 0.146876
C22   C     C_R   0.330338 0.129442 0.364757 -0.164804
H11   H     H_    0.337149 0.230877 0.352476 0.155089
C23   C     C_R   0.422863 0.063899 0.408006 0.128329
C24   C     C_R   0.422723 0.929258 0.406094 0.076696
C25   C     C_R   0.529539 0.865012 0.434936 -0.260777
C26   C     C_R   0.655844 0.930879 0.426861 0.306849
H12   H     H_    0.735889 0.112747 0.454723 0.210437
C27   C     C_R   0.646122 0.061844 0.444809 -0.301912
C28   C     C_R   0.522130 0.126879 0.448158 -0.170187
H13   H     H_    0.942957 0.409110 0.345565 0.124212
C29   C     C_R   0.783975 0.605977 0.684221 -0.003656
C30   C     C_R   0.809628 0.602572 0.783103 -0.270187
H14   H     H_    0.726476 0.630248 0.858702 0.219398
C31   C     C_R   0.949063 0.607218 0.781497 -0.304610
H15   H     H_    0.967008 0.640664 0.855255 0.205191
C32   C     C_R   0.059199 0.608716 0.681143 0.331401
C33   C     C_R   0.033808 0.553615 0.588439 0.058642
C34   C     C_R   0.889573 0.553734 0.588809 0.095808
N1    N     N_R   0.856860 0.501200 0.500990 -0.109984
C35   C     C_R   0.965822 0.450360 0.414966 -0.051182
H16   H     H_    0.191556 0.409454 0.345335 0.135931
C36   C     C_R   0.108396 0.450368 0.415023 -0.046061
N2    N     N_R   0.142450 0.501280 0.501020 -0.122180
C37   C     C_2   0.696616 0.718442 0.680370 1.016610
O9    O     O_2   0.574716 0.730642 0.744078 -0.610109
O10   O     O_R   0.760945 0.819465 0.615327 -0.734549
H17   H     H_    0.695646 0.897045 0.628466 0.338304
N3    N     N_R   0.157100 0.711655 0.669047 0.246702
O11   O     O_R   0.147763 0.805392 0.608309 -0.353257
O12   O     O_R   0.215715 0.733912 0.743291 -0.380430
C38   C     C_2   0.444434 0.617624 0.150299 0.894181
O13   O     O_2   0.321802 0.618718 0.213040 -0.665415
O14   O     O_R   0.506395 0.730051 0.101755 -0.782746
H18   H     H_    0.438725 0.806128 0.124282 0.345076
N4    N     N_R   0.793000 0.867964 0.395743 0.243912
O15   O     O_R   0.899067 0.923916 0.415149 -0.390189
O16   O     O_R   0.819952 0.769312 0.328467 -0.376615

loop_
_geom_bond_atom_site_label_1
_geom_bond_atom_site_label_2
_geom_bond_distance
_ccdc_geom_bond_type
C5    H3    1.083603 S    
C31   H15   1.082973 S    
H13   C35   1.081806 S    
C26   C27   1.381735 A    
C30   H14   1.084765 S    
C23   C24   1.409069 A    
Zn1   O7    1.907297 S    
C13   C14   1.398630 A    
C19   H8    1.072253 S    
N4    O16   1.301740 A    
C26   N4    1.440478 S    
C20   H9    1.081834 S    
O7    C4    1.300501 A    
H1    C17   1.083148 S    
N3    O12   1.301893 A    
C35   C36   1.419647 A    
O5    C3    1.294612 A    
C15   H7    1.081337 S    
C37   O10   1.392725 S    
C10   C11   1.399882 A    
C16   C38   1.484538 S    
C21   C22   1.392808 A    
C2    C18   1.464440 S    
C34   N1    1.389045 A    
C8    C9    1.390389 A    
C33   N2    1.380233 A    
C22   C23   1.416616 A    
O3    Zn1   1.948133 S    
C30   C31   1.382210 A    
C12   C16   1.401640 A    
O14   H18   1.013492 S    
O10   H17   1.013889 S    
H2    C14   1.083605 S    
N4    O15   1.300984 A    
C38   O14   1.396951 S    
C5    C13   1.401990 A    
C8    H6    1.082360 S    
C12   C13   1.415509 A    
C24   C25   1.416390 A    
C36   N2    1.368546 A    
N1    C35   1.366168 A    
O1    C1    1.302942 A    
H16   C36   1.080130 S    
C29   C34   1.426191 A    
Zn2   O8    1.948134 S    
C19   C24   1.411247 A    
O3    C2    1.302776 A    
C21   H10   1.082989 S    
O8    C4    1.303066 A    
C27   C28   1.396504 A    
C31   C32   1.398251 A    
C22   H11   1.077558 S    
C6    C16   1.400788 A    
C29   C30   1.396352 A    
C5    C17   1.396168 A    
C7    H4    1.075229 S    
C23   C28   1.418055 A    
Zn1   O5    1.955903 S    
C9    H5    1.079943 S    
C25   C26   1.408855 A    
H12   C27   1.083076 S    
O1    Zn1   1.956438 S    
C4    C6    1.460412 S    
O2    Zn2   1.955902 S    
C11   C15   1.414114 A    
C38   O13   1.221071 D    
O6    C3    1.300898 A    
O4    Zn2   1.907297 S    
C1    C25   1.462810 S    
C19   C20   1.391675 A    
O2    C1    1.301909 A    
C33   C34   1.434323 A    
C11   C18   1.412163 A    
Zn2   N1    2.032685 S    
C20   C21   1.388713 A    
C32   C33   1.420615 A    
O4    C2    1.300882 A    
C10   C12   1.406917 A    
N3    O11   1.301743 A    
Zn1   N2    2.030792 S    
C3    C28   1.450411 S    
C7    C8    1.389674 A    
Zn2   O6    1.956439 S    
C37   O9    1.223900 D    
C14   C15   1.396383 A    
C9    C10   1.410461 A    
C32   N3    1.430147 S    
C6    C17   1.403859 A    
C29   C37   1.475321 S    
C7    C18   1.403653 A    
