data_mof_unit_13169.cif
_audit_creation_date              2012-12-10T18:57:09-0500
_audit_creation_method            fapswitch 2.2
_symmetry_space_group_name_H-M    P1
_symmetry_Int_Tables_number       1
_space_group_crystal_system       triclinic
_cell_length_a                    10.876709
_cell_length_b                    9.90116
_cell_length_c                    10.704844
_cell_angle_alpha                 87.949806
_cell_angle_beta                  91.94117
_cell_angle_gamma                 90.047974
_cell_volume                      1151.42726216

loop_
_atom_site_label
_atom_site_type_symbol
_atom_type_description
_atom_site_fract_x
_atom_site_fract_y
_atom_site_fract_z
_atom_type_partial_charge
C1    C     C_R   0.259609 0.499947 0.496603 1.009634
C2    C     C_R   0.739878 0.500011 0.503695 0.972777
C3    C     C_R   0.559926 0.068201 0.593058 -0.125149
C4    C     C_R   0.438119 0.075678 0.408881 -0.109937
C5    C     C_R   0.565109 0.923767 0.590672 0.440925
C6    C     C_R   0.429111 0.930918 0.413606 0.490219
C7    C     C_R   0.509360 0.502464 0.260441 0.859674
C8    C     C_R   0.500742 0.497372 0.740169 0.918794
C9    C     C_R   0.514427 0.626692 0.056452 0.008595
C10   C     C_R   0.486409 0.611028 0.932271 0.037143
C11   C     C_R   0.535744 0.508140 0.129794 -0.119877
C12   C     C_R   0.511154 0.493396 0.873039 -0.019131
C13   C     C_R   0.570396 0.388837 0.071841 -0.133744
C14   C     C_R   0.560562 0.382573 0.942207 -0.125622
C15   C     C_3   0.369689 0.689625 0.932666 0.094428
C16   C     C_3   0.413221 0.729525 0.062240 0.253306
C17   C     C_R   0.059716 0.377535 0.494735 0.320519
C18   C     C_R   0.938588 0.380497 0.529963 0.382971
C19   C     C_R   0.872296 0.500809 0.505372 -0.451201
C20   C     C_R   0.126226 0.499914 0.494328 -0.434773
C21   C     C_R   0.935642 0.621905 0.478635 0.332534
C22   C     C_R   0.061693 0.623005 0.497674 0.351963
H1    H     H_    0.596535 0.298433 0.126320 0.183669
H2    H     H_    0.584691 0.290270 0.897665 0.152962
H3    H     H_    0.363584 0.772059 0.859490 0.160307
H4    H     H_    0.349939 0.706503 0.138580 0.139169
H5    H     H_    0.603059 0.120786 0.669506 0.172088
H6    H     H_    0.395007 0.135660 0.333921 0.215287
N1    N     N_R   0.500000 0.857200 0.500000 -0.160288
N2    N     N_R   0.500000 0.142810 0.500000 -0.117263
O1    O     O_R   0.316770 0.614620 0.499990 -0.590032
O2    O     O_R   0.683230 0.614620 0.500010 -0.587974
O3    O     O_R   0.316800 0.385290 0.500000 -0.517579
O4    O     O_R   0.683200 0.385290 0.500000 -0.556402
O5    O     O_R   0.500000 0.614690 0.316780 -0.597033
O6    O     O_R   0.500000 0.614690 0.683220 -0.590833
O7    O     O_R   0.500020 0.385360 0.316780 -0.607824
O8    O     O_R   0.499980 0.385360 0.683220 -0.609411
Zn1   Zn    Zn3+2 0.500000 0.653120 0.500000 1.051905
Zn2   Zn    Zn3+2 0.500000 0.346880 0.500000 1.072346
S1    S     S_3+6 0.235548 0.582187 0.939671 -0.029918
O9    O     O_2   0.122090 0.668395 0.942767 -0.372592
O10   O     O_2   0.226269 0.495836 0.827143 -0.286512
O11   O     O_3   0.243995 0.479363 0.068370 -0.517211
H7    H     H_    0.197691 0.525944 0.132290 0.344395
S2    S     S_3+6 0.471500 0.899821 0.056340 -0.003394
O12   O     O_2   0.366040 0.997492 0.040510 -0.299794
O13   O     O_2   0.543801 0.927662 0.174024 -0.330705
O14   O     O_3   0.563766 0.922156 0.934752 -0.564791
H8    H     H_    0.588226 0.018513 0.935737 0.364839
S3    S     S_3+6 0.115169 0.229007 0.428694 0.013144
O15   O     O_2   0.199574 0.157143 0.522590 -0.296119
O16   O     O_2   0.011894 0.136105 0.392876 -0.313222
O17   O     O_3   0.192727 0.271568 0.299905 -0.580021
H9    H     H_    0.128551 0.300786 0.236885 0.373307
S4    S     S_3+6 0.883908 0.247112 0.628361 0.052567
O18   O     O_2   0.820109 0.144355 0.549421 -0.315414
O19   O     O_2   0.990224 0.181823 0.700508 -0.275589
O20   O     O_3   0.785449 0.307594 0.730567 -0.588280
H10   H     H_    0.780909 0.236440 0.797647 0.350783
O21   O     O_3   0.876392 0.742570 0.448145 -0.559193
C23   C     C_3   0.845916 0.746478 0.318557 0.103097
H11   H     H_    0.770005 0.675247 0.296073 0.147784
H12   H     H_    0.925338 0.719316 0.261769 0.121703
C24   C     C_3   0.803347 0.888053 0.279452 -0.636771
H13   H     H_    0.877412 0.961713 0.298245 0.277813
H14   H     H_    0.779304 0.892912 0.177780 0.227291
H15   H     H_    0.722472 0.915556 0.333758 0.266437
O22   O     O_3   0.118942 0.745095 0.517930 -0.578485
C25   C     C_3   0.134152 0.758190 0.648600 0.124604
H16   H     H_    0.213268 0.696779 0.684780 0.199649
H17   H     H_    0.050382 0.727394 0.699451 0.173945
C26   C     C_3   0.161642 0.903579 0.677328 -0.647649
H18   H     H_    0.086758 0.967811 0.635443 0.324324
H19   H     H_    0.166386 0.915829 0.780101 0.233873
H20   H     H_    0.251368 0.933505 0.638368 0.240965
O23   O     O_3   0.620599 0.846897 0.687447 -0.563997
C27   C     C_3   0.743731 0.886184 0.710317 0.171088
H21   H     H_    0.747985 0.983288 0.759013 0.148680
H22   H     H_    0.794969 0.894845 0.622197 0.218193
C28   C     C_3   0.806836 0.779450 0.795832 -0.710492
H23   H     H_    0.815563 0.683568 0.746056 0.251430
H24   H     H_    0.899624 0.815381 0.825409 0.219631
H25   H     H_    0.752800 0.760074 0.880797 0.277217
O24   O     O_3   0.355285 0.860951 0.328858 -0.575994
C29   C     C_3   0.240896 0.926574 0.304351 0.205492
H26   H     H_    0.251647 0.022285 0.249219 0.209436
H27   H     H_    0.195222 0.945886 0.392989 0.234741
C30   C     C_3   0.155640 0.840038 0.225671 -0.729125
H28   H     H_    0.062971 0.885904 0.222333 0.222826
H29   H     H_    0.185326 0.839722 0.127847 0.266544
H30   H     H_    0.152031 0.735089 0.265257 0.242326

loop_
_geom_bond_atom_site_label_1
_geom_bond_atom_site_label_2
_ccdc_geom_bond_type
C26   H19   S    
S1    O9    D    
C17   S3    S    
C28   H23   S    
C1    O3    A    
O23   C27   S    
C7    C11   S    
S2    O14   S    
C6    O24   S    
O4    Zn2   S    
C19   C21   A    
C9    C16   S    
O7    Zn2   S    
C10   C15   S    
C8    O6    A    
C27   H22   S    
C15   H3    S    
C15   C16   S    
C1    O1    A    
C17   C20   A    
S4    O18   D    
C13   H1    S    
C2    O2    A    
C18   C19   A    
C26   H18   S    
O2    Zn1   S    
C14   H2    S    
C23   H12   S    
C4    H6    S    
O17   H9    S    
O1    Zn1   S    
C24   H14   S    
C25   H16   S    
C30   H29   S    
C9    C10   A    
C22   O22   S    
C21   O21   S    
C18   S4    S    
C2    O4    A    
O20   H10   S    
C13   C14   A    
S1    O10   D    
O21   C23   S    
C8    O8    A    
C28   H24   S    
C5    N1    A    
C16   H4    S    
S2    O13   D    
O3    Zn2   S    
S3    O15   D    
C15   S1    S    
C4    C6    A    
C16   S2    S    
C27   H21   S    
O24   C29   S    
S3    O16   D    
C3    N2    A    
O5    Zn1   S    
C23   H11   S    
C8    C12   S    
C24   H15   S    
N1    Zn1   S    
C25   C26   S    
C17   C18   A    
C7    O7    A    
N2    Zn2   S    
C30   H30   S    
C9    C11   A    
C10   C12   A    
C12   C14   A    
C24   H13   S    
S1    O11   S    
C5    O23   S    
C28   H25   S    
O11   H7    S    
S2    O12   D    
C1    C20   S    
C23   C24   S    
C2    C19   S    
C29   H26   S    
C7    O5    A    
O6    Zn1   S    
C20   C22   A    
C3    C5    A    
C29   C30   S    
S4    O20   S    
S3    O17   S    
C3    H5    S    
O8    Zn2   S    
C11   C13   A    
C27   C28   S    
C26   H20   S    
S4    O19   D    
C29   H27   S    
O22   C25   S    
C6    N1    A    
O14   H8    S    
C25   H17   S    
C30   H28   S    
C21   C22   A    
C4    N2    A    
