data_mof_unit_47549.cif
_audit_creation_date              2012-10-26T18:34:01-0400
_audit_creation_method            fapswitch 2.2
_symmetry_space_group_name_H-M    P1
_symmetry_Int_Tables_number       1
_space_group_crystal_system       triclinic
_cell_length_a                    11.052397
_cell_length_b                    10.822605
_cell_length_c                    9.519957
_cell_angle_alpha                 89.278223
_cell_angle_beta                  102.442601
_cell_angle_gamma                 90.425406
_cell_volume                      1111.88915746

loop_
_atom_site_label
_atom_site_type_symbol
_atom_type_description
_atom_site_fract_x
_atom_site_fract_y
_atom_site_fract_z
_atom_type_partial_charge
C1    C     C_R   0.499751 0.262260 0.500837 0.597106
C2    C     C_2   0.871900 0.501686 0.590947 -0.133762
C3    C     C_2   0.067191 0.501892 0.515633 -0.169210
C4    C     C_2   0.932813 0.498038 0.484382 -0.169244
C5    C     C_R   0.431010 0.065632 0.381191 0.204836
C6    C     C_R   0.568994 0.934371 0.618809 0.204844
C7    C     C_R   0.437312 0.937009 0.376284 0.209313
C8    C     C_R   0.562698 0.062996 0.623711 0.209323
C9    C     C_R   0.502090 0.871660 0.497752 -0.056632
C10   C     C_R   0.497903 0.128341 0.502250 -0.056593
C11   C     C_3   0.232156 0.316949 0.847637 -0.165205
C12   C     C_R   0.500243 0.737741 0.499162 0.597077
C13   C     C_3   0.767951 0.682851 0.152448 -0.165120
C14   C     C_3   0.240614 0.145346 0.290276 -0.106896
C15   C     C_3   0.759409 0.854677 0.709651 -0.106890
C16   C     C_3   0.431281 0.886644 0.142905 -0.059251
C17   C     C_3   0.568934 0.113391 0.857142 -0.059298
C18   C     C_R   0.262808 0.499773 0.441908 0.550372
C19   C     C_R   0.737191 0.500222 0.558092 0.550387
C20   C     C_R   0.422979 0.423187 0.056780 -0.036747
C21   C     C_R   0.577021 0.576812 0.943221 -0.036744
C22   C     C_R   0.420723 0.423664 0.905709 0.373702
C23   C     C_R   0.579287 0.576322 0.094291 0.373696
C24   C     C_2   0.128100 0.498297 0.409056 -0.133775
Cu1   Cu    Cu3+1 0.500000 0.500020 0.640660 1.023189
Cu2   Cu    Cu3+1 0.500000 0.499980 0.359340 1.023186
H1    H     H_    0.883422 0.492043 0.372793 0.164945
H2    H     H_    0.832976 0.718372 0.249100 0.143309
H3    H     H_    0.756610 0.757070 0.069035 0.119579
H4    H     H_    0.810968 0.599079 0.117481 0.093877
H5    H     H_    0.184847 0.198064 0.198425 0.117611
H6    H     H_    0.242009 0.199376 0.389380 0.109339
H7    H     H_    0.193894 0.054596 0.296555 0.144360
H8    H     H_    0.757976 0.800655 0.610547 0.109363
H9    H     H_    0.815216 0.801969 0.801493 0.117625
H10   H     H_    0.806113 0.945423 0.703346 0.144381
H11   H     H_    0.394999 0.814730 0.062475 0.137067
H12   H     H_    0.116583 0.507851 0.627232 0.164990
H13   H     H_    0.533299 0.872968 0.176919 0.141616
H14   H     H_    0.411555 0.977935 0.088605 0.142039
H15   H     H_    0.466921 0.127055 0.823243 0.141617
H16   H     H_    0.605272 0.185314 0.937525 0.137005
H17   H     H_    0.588720 0.022129 0.911459 0.142058
H18   H     H_    0.364403 0.361172 0.102420 0.146283
H19   H     H_    0.635592 0.638837 0.897586 0.146308
H20   H     H_    0.921544 0.506500 0.702560 0.090735
H21   H     H_    0.078454 0.493521 0.297435 0.090713
H22   H     H_    0.167146 0.281360 0.751021 0.143328
H23   H     H_    0.189051 0.400647 0.882639 0.093894
H24   H     H_    0.243645 0.242724 0.931052 0.119639
N1    N     N_R   0.500030 0.500030 0.852080 -0.242628
N2    N     N_R   0.499970 0.499970 0.147920 -0.242619
O1    O     O_R   0.499990 0.319660 0.618740 -0.430634
O2    O     O_3   0.653611 0.656292 0.189799 -0.540625
O3    O     O_3   0.360916 0.130010 0.265719 -0.561153
O4    O     O_3   0.639132 0.869997 0.734261 -0.561165
O5    O     O_3   0.370475 0.874060 0.258567 -0.541731
O6    O     O_3   0.629618 0.125960 0.741372 -0.541764
O7    O     O_R   0.500010 0.680340 0.381260 -0.430636
O8    O     O_R   0.499990 0.319630 0.381170 -0.485625
O9    O     O_R   0.500010 0.680370 0.618830 -0.485632
O10   O     O_R   0.320690 0.500020 0.575130 -0.466923
O11   O     O_R   0.679310 0.499980 0.424870 -0.466929
O12   O     O_R   0.320680 0.499990 0.337560 -0.512345
O13   O     O_R   0.679320 0.500010 0.662440 -0.512336
O14   O     O_3   0.346416 0.343683 0.810191 -0.540599

loop_
_geom_bond_atom_site_label_1
_geom_bond_atom_site_label_2
_ccdc_geom_bond_type
C16   H11   S    
C2    C4    D    
Cu2   O11   S    
C17   H17   S    
C13   H2    S    
C11   H23   S    
Cu2   N2    S    
C5    C7    A    
Cu2   O7    S    
C14   H5    S    
C15   H8    S    
C11   O14   S    
C17   O6    S    
Cu1   O10   S    
C15   O4    S    
C14   H7    S    
Cu1   N1    S    
C14   O3    S    
C11   H22   S    
C5    C10   A    
C20   N2    A    
C11   H24   S    
Cu1   O9    S    
C2    H20   S    
C6    O4    S    
C12   O9    A    
C24   H21   S    
C18   O12   A    
C23   N2    A    
C19   O11   A    
C6    C9    A    
C18   C24   S    
C6    C8    A    
C13   H3    S    
C20   H18   S    
C16   H14   S    
C19   O13   A    
C21   H19   S    
C16   O5    S    
C21   C23   A    
C9    C12   S    
C17   H15   S    
C7    O5    S    
C20   C22   A    
C16   H13   S    
C3    C4    S    
C15   H10   S    
C21   N1    A    
C4    H1    S    
Cu1   O13   S    
C13   H4    S    
C23   O2    S    
C7    C9    A    
C13   O2    S    
C1    C10   S    
C1    O8    A    
C14   H6    S    
C15   H9    S    
C1    O1    A    
C17   H16   S    
C18   O10   A    
Cu2   O12   S    
C8    O6    S    
Cu1   Cu2   S    
C2    C19   S    
C12   O7    A    
Cu2   O8    S    
C5    O3    S    
C8    C10   A    
C22   O14   S    
Cu1   O1    S    
C3    H12   S    
C3    C24   D    
C22   N1    A    
