data_mof_unit_22735.cif
_audit_creation_date              2012-10-26T18:59:37-0400
_audit_creation_method            fapswitch 2.2
_symmetry_space_group_name_H-M    P1
_symmetry_Int_Tables_number       1
_space_group_crystal_system       triclinic
_cell_length_a                    23.497955
_cell_length_b                    10.918296
_cell_length_c                    9.675932
_cell_angle_alpha                 87.399985
_cell_angle_beta                  91.624857
_cell_angle_gamma                 93.110296
_cell_volume                      2475.3911614

loop_
_atom_site_label
_atom_site_type_symbol
_atom_type_description
_atom_site_fract_x
_atom_site_fract_y
_atom_site_fract_z
_atom_type_partial_charge
C1    C     C_R   0.501378 0.262552 0.502293 0.531460
C2    C     C_R   0.121233 0.636577 0.479253 0.400871
C3    C     C_R   0.238061 0.543764 0.373375 -0.056102
C4    C     C_R   0.391154 0.505798 0.498435 0.531610
C5    C     C_R   0.297262 0.538587 0.372876 -0.145490
C6    C     C_R   0.328619 0.518814 0.497138 0.001715
C7    C     C_R   0.299573 0.515559 0.622683 -0.145758
C8    C     C_R   0.240444 0.520089 0.623176 -0.058286
C9    C     C_R   0.209451 0.531833 0.498375 0.245341
C10   C     C_R   0.759640 0.461056 0.395007 -0.056416
C11   C     C_R   0.700249 0.457852 0.393493 -0.143822
C12   C     C_R   0.968207 0.297850 0.544744 -0.122200
C13   C     C_R   0.671454 0.502070 0.504722 0.006219
C14   C     C_R   0.703050 0.549404 0.617459 -0.144402
C15   C     C_R   0.762493 0.553020 0.618552 -0.054476
C16   C     C_R   0.501805 0.736740 0.497554 0.551224
C17   C     C_R   0.790935 0.508920 0.507302 0.241219
C18   C     C_R   0.504490 0.052684 0.622204 0.020017
C19   C     C_R   0.505015 0.129095 0.502605 0.006479
C20   C     C_R   0.509817 0.070586 0.375337 -0.157702
C21   C     C_R   0.509084 0.941811 0.370924 -0.160482
C22   C     C_R   0.505747 0.869165 0.494381 0.012067
C23   C     C_R   0.027607 0.301157 0.543024 -0.122839
C24   C     C_R   0.506295 0.929530 0.616814 0.032202
C25   C     C_3   0.502213 0.903119 0.767534 -0.253555
C26   C     C_3   0.499224 0.041651 0.776436 -0.297153
C27   C     C_R   0.533893 0.582794 0.070909 0.131177
C28   C     C_R   0.608837 0.500578 0.501570 0.550308
C29   C     C_R   0.459633 0.432588 0.073390 0.120653
C30   C     C_R   0.465686 0.419289 0.929081 0.117525
C31   C     C_R   0.532601 0.585604 0.924317 0.132845
C32   C     C_3   0.596098 0.602785 0.922319 -0.280617
C33   C     C_3   0.597018 0.599848 0.079281 -0.268119
C34   C     C_R   0.059083 0.413242 0.522026 0.028939
C35   C     C_R   0.881625 0.623451 0.488207 0.400872
C36   C     C_R   0.879359 0.405465 0.526849 0.400966
C37   C     C_R   0.939062 0.406581 0.525721 0.028982
C38   C     C_R   0.970214 0.519532 0.504873 -0.028140
C39   C     C_R   0.941406 0.629132 0.486067 0.029172
C40   C     C_3   0.401255 0.390131 0.128095 -0.217792
C41   C     C_3   0.397786 0.270654 0.217744 -0.373994
C42   C     C_3   0.448850 0.292948 0.880271 -0.232541
C43   C     C_3   0.393604 0.279552 0.792855 -0.380798
C44   C     C_R   0.030311 0.522841 0.502681 -0.028238
C45   C     C_R   0.061496 0.635695 0.481105 0.028640
C46   C     C_R   0.032333 0.744448 0.462393 -0.122496
C47   C     C_R   0.972910 0.741215 0.464981 -0.122468
C48   C     C_R   0.118809 0.418780 0.519806 0.400594
Cu1   Cu    Cu3+1 0.500000 0.499980 0.640670 0.928251
Cu2   Cu    Cu3+1 0.500000 0.500020 0.359330 0.929900
H1    H     H_    0.945247 0.209881 0.560996 0.170331
H2    H     H_    0.536555 0.084388 0.832847 0.134135
H3    H     H_    0.048735 0.215647 0.558072 0.168716
H4    H     H_    0.616311 0.522799 0.881105 0.152281
H5    H     H_    0.610410 0.693481 0.874968 0.121411
H6    H     H_    0.617690 0.518364 0.126359 0.150796
H7    H     H_    0.611356 0.689160 0.122788 0.134750
H8    H     H_    0.055300 0.832364 0.445791 0.169858
H9    H     H_    0.951777 0.826740 0.450211 0.168857
H10   H     H_    0.214351 0.556116 0.276582 0.126634
H11   H     H_    0.317897 0.552573 0.275423 0.108683
H12   H     H_    0.676893 0.419745 0.306046 0.120072
H13   H     H_    0.322299 0.510563 0.721015 0.120457
H14   H     H_    0.218625 0.514082 0.720542 0.123796
H15   H     H_    0.781432 0.426746 0.308767 0.131103
H16   H     H_    0.357621 0.216944 0.192386 0.120804
H17   H     H_    0.433517 0.212564 0.198604 0.140907
H18   H     H_    0.396473 0.288032 0.329182 0.180906
H19   H     H_    0.381416 0.466738 0.171841 0.156092
H20   H     H_    0.370855 0.374820 0.040387 0.097952
H21   H     H_    0.364363 0.351635 0.813812 0.139537
H22   H     H_    0.401702 0.280244 0.680968 0.184086
H23   H     H_    0.681939 0.585727 0.703314 0.116054
H24   H     H_    0.371124 0.189764 0.819229 0.115768
H25   H     H_    0.486293 0.259285 0.834493 0.174930
H26   H     H_    0.443946 0.226557 0.969633 0.092111
H27   H     H_    0.786505 0.590239 0.705601 0.131911
H28   H     H_    0.513767 0.123380 0.278517 0.132148
H29   H     H_    0.510840 0.900019 0.271838 0.132416
H30   H     H_    0.461933 0.850835 0.795449 0.150594
H31   H     H_    0.541964 0.866548 0.814020 0.138530
H32   H     H_    0.456415 0.063468 0.810094 0.131848
N1    N     N_R   0.852010 0.512796 0.508053 -0.400340
N2    N     N_R   0.148455 0.529195 0.498734 -0.400415
N3    N     N_R   0.500360 0.500930 0.147930 -0.231594
N4    N     N_R   0.500360 0.500890 0.852020 -0.235086
O1    O     O_R   0.500000 0.319640 0.618810 -0.515253
O2    O     O_R   0.582120 0.500020 0.618760 -0.502892
O3    O     O_R   0.582120 0.500060 0.381180 -0.502766
O4    O     O_2   0.853254 0.727354 0.469400 -0.490106
O5    O     O_2   0.848823 0.298189 0.547154 -0.488860
O6    O     O_2   0.147121 0.314726 0.538013 -0.491665
O7    O     O_2   0.151906 0.743668 0.459067 -0.489745
O8    O     O_R   0.500010 0.319680 0.381230 -0.507488
O9    O     O_R   0.417880 0.499940 0.618820 -0.501523
O10   O     O_R   0.417880 0.499980 0.381240 -0.515416
O11   O     O_R   0.499990 0.680320 0.618770 -0.498718
O12   O     O_R   0.500000 0.680360 0.381190 -0.501966

loop_
_geom_bond_atom_site_label_1
_geom_bond_atom_site_label_2
_ccdc_geom_bond_type
C1    O1    A    
C43   H22   S    
C25   H30   S    
Cu1   O1    S    
C2    N2    A    
C19   C20   A    
C18   C26   S    
C11   H12   S    
C16   O12   A    
C7    C8    A    
C41   H17   S    
C45   C46   A    
C27   C33   S    
C12   C23   A    
C42   H25   S    
C37   C38   A    
C40   H20   S    
C18   C24   A    
C5    C6    A    
C36   C37   A    
C38   C39   A    
C16   O11   A    
C36   N1    A    
C18   C19   A    
C12   C37   A    
C27   N3    A    
Cu2   N3    S    
C4    O10   A    
C8    C9    A    
C28   O2    A    
C43   H21   S    
C13   C28   S    
C28   O3    A    
C30   N4    A    
C32   H5    S    
C29   N3    A    
C3    H10   S    
C33   H6    S    
C26   H32   S    
C31   N4    A    
C21   C22   A    
C46   H8    S    
C25   H31   S    
Cu1   O2    S    
C32   H4    S    
C23   H3    S    
C41   H18   S    
C2    C45   A    
Cu2   O12   S    
C1    C19   S    
C40   H19   S    
C27   C31   A    
C14   H23   S    
C34   C44   A    
C24   C25   S    
C4    C6    S    
C35   N1    A    
Cu2   O8    S    
C25   C26   S    
C47   H9    S    
C48   N2    A    
C17   N1    S    
C35   C39   A    
C38   C44   A    
C29   C30   A    
C3    C9    A    
C26   H2    S    
C4    O9    A    
Cu2   O3    S    
C31   C32   S    
C23   C34   A    
C21   H29   S    
C5    H11   S    
Cu1   O9    S    
C7    H13   S    
C41   H16   S    
C8    H14   S    
C36   O5    S    
C40   C41   S    
C22   C24   A    
C34   C48   A    
C42   C43   S    
C12   H1    S    
C44   C45   A    
C39   C47   A    
C10   H15   S    
C15   C17   A    
C46   C47   A    
C16   C22   S    
Cu1   N4    S    
C2    O7    S    
C3    C5    A    
C1    O8    A    
C6    C7    A    
C33   H7    S    
C42   H26   S    
C20   H28   S    
C32   C33   S    
C11   C13   A    
Cu2   O10   S    
C15   H27   S    
C43   H24   S    
C29   C40   S    
C10   C11   A    
C9    N2    S    
Cu1   O11   S    
C35   O4    S    
C20   C21   A    
Cu1   Cu2   S    
C48   O6    S    
C14   C15   A    
C30   C42   S    
C10   C17   A    
C13   C14   A    
