data_mof_unit_59083.cif
_audit_creation_date              2012-10-26T18:32:23-0400
_audit_creation_method            fapswitch 2.2
_symmetry_space_group_name_H-M    P1
_symmetry_Int_Tables_number       1
_space_group_crystal_system       triclinic
_cell_length_a                    12.329116
_cell_length_b                    13.180079
_cell_length_c                    15.865488
_cell_angle_alpha                 77.920718
_cell_angle_beta                  101.092604
_cell_angle_gamma                 116.570024
_cell_volume                      2240.35660967

loop_
_atom_site_label
_atom_site_type_symbol
_atom_type_description
_atom_site_fract_x
_atom_site_fract_y
_atom_site_fract_z
_atom_type_partial_charge
C1    C     C_R   0.854859 0.286590 0.507401 0.529363
C2    C     C_R   0.228017 0.834456 0.469776 -0.002376
C3    C     C_R   0.815283 0.085362 0.563672 -0.133326
C4    C     C_R   0.999485 0.499741 0.659572 0.547304
C5    C     C_R   0.736501 0.970550 0.580686 -0.140827
C6    C     C_R   0.613190 0.932802 0.550521 -0.120972
C7    C     C_R   0.566414 0.009410 0.499244 0.031904
C8    C     C_R   0.649858 0.123729 0.473554 0.024145
C9    C     C_R   0.439808 0.976043 0.471757 0.027868
C10   C     C_R   0.400111 0.053151 0.412884 0.050364
C11   C     C_R   0.485316 0.160151 0.380477 -0.137274
C12   C     C_3   0.048105 0.413610 0.070591 -0.190608
C13   C     C_R   0.608388 0.194300 0.409187 -0.116878
C14   C     C_R   0.351025 0.868434 0.501541 -0.135904
C15   C     C_R   0.189741 0.911928 0.413133 -0.137607
C16   C     C_R   0.145079 0.713370 0.487471 0.544806
C17   C     C_R   0.772903 0.163583 0.512203 -0.001175
C18   C     C_R   0.345373 0.327501 0.636745 -0.149440
C19   C     C_R   0.760306 0.646005 0.384100 0.050938
C20   C     C_R   0.664271 0.678116 0.358906 -0.160534
C21   C     C_R   0.560488 0.623028 0.402474 -0.136898
C22   C     C_R   0.551624 0.534695 0.472360 -0.006139
C23   C     C_3   0.998301 0.498173 0.082851 0.115050
C24   C     C_R   0.652818 0.505107 0.496101 0.180069
C25   C     C_R   0.446939 0.475045 0.519700 -0.013231
C26   C     C_R   0.445915 0.387460 0.589276 0.036673
C27   C     C_R   0.545393 0.360392 0.611524 -0.173618
C28   C     C_R   0.000364 0.500068 0.340435 0.546289
C29   C     C_R   0.646629 0.418245 0.566346 -0.095497
C30   C     C_R   0.342407 0.498082 0.501488 0.041298
C31   C     C_R   0.245882 0.354426 0.615610 0.042960
C32   C     C_3   0.047261 0.413587 0.972827 -0.217658
C33   C     C_3   0.866558 0.462088 0.937723 -0.178741
C34   C     C_3   0.080406 0.619516 0.040112 -0.265834
C35   C     C_3   0.866370 0.462785 0.035667 0.138791
C36   C     C_1   0.000537 0.499394 0.250861 -0.028479
C37   C     C_3   0.997875 0.498721 0.917044 0.046024
C38   C     C_3   0.079743 0.619895 0.942310 -0.232264
C39   C     C_1   0.999857 0.498818 0.175255 -0.032614
C40   C     C_1   0.997982 0.499121 0.824782 -0.079082
C41   C     C_1   0.998464 0.499455 0.749189 -0.038440
C42   C     C_R   0.275478 0.021207 0.385272 -0.131274
Cu1   Cu    Cu3+1 0.098280 0.475420 0.519630 0.927806
Cu2   Cu    Cu3+1 0.901720 0.524580 0.480370 0.916268
H1    H     H_    0.991823 0.325471 0.101113 0.165182
H2    H     H_    0.557759 0.842610 0.566899 0.104379
H3    H     H_    0.770532 0.910820 0.619866 0.118115
H4    H     H_    0.989407 0.325614 0.956151 0.121178
H5    H     H_    0.670367 0.275616 0.378187 0.157661
H6    H     H_    0.167858 0.308484 0.651932 0.118277
H7    H     H_    0.545402 0.293866 0.664956 0.107496
H8    H     H_    0.343873 0.260357 0.689954 0.089055
H9    H     H_    0.335115 0.562992 0.449805 0.119166
H10   H     H_    0.840555 0.689284 0.349956 0.123836
H11   H     H_    0.488986 0.651409 0.380206 0.099805
H12   H     H_    0.141515 0.437728 0.958895 0.112717
H13   H     H_    0.670293 0.745938 0.305425 0.102697
H14   H     H_    0.718382 0.392016 0.589394 0.183134
H15   H     H_    0.828819 0.521781 0.898049 0.078518
H16   H     H_    0.806291 0.375224 0.919601 0.140841
H17   H     H_    0.833579 0.527007 0.041991 0.100047
H18   H     H_    0.174691 0.648261 0.927814 0.124259
H19   H     H_    0.045654 0.682601 0.903316 0.117865
H20   H     H_    0.175630 0.647229 0.072566 0.118672
H21   H     H_    0.703441 0.344988 0.053002 0.313294
H22   H     H_    0.142958 0.438658 0.103346 0.093474
H23   H     H_    0.047360 0.682570 0.048065 0.103431
H24   H     H_    0.094631 0.886593 0.387714 0.121233
H25   H     H_    0.456760 0.217871 0.332553 0.108881
H26   H     H_    0.244760 0.079662 0.340190 0.106272
H27   H     H_    0.374939 0.808168 0.549020 0.118607
H28   H     H_    0.909233 0.113374 0.592712 0.126044
N1    N     N_R   0.246300 0.438200 0.549400 -0.232421
N2    N     N_R   0.754300 0.561180 0.451130 -0.235136
O1    O     O_R   0.972520 0.318130 0.524690 -0.501238
O2    O     O_R   0.806530 0.359650 0.491530 -0.529017
O3    O     O_R   0.083030 0.479240 0.637150 -0.495191
O4    O     O_R   0.917040 0.520750 0.603990 -0.511808
O5    O     O_R   0.193470 0.640350 0.508470 -0.508803
O6    O     O_R   0.027480 0.681870 0.475310 -0.503887
O7    O     O_R   0.082960 0.479250 0.396010 -0.497155
O8    O     O_R   0.916970 0.520760 0.362850 -0.504626
O9    O     O_3   0.788106 0.354015 0.073881 -0.716087

loop_
_geom_bond_atom_site_label_1
_geom_bond_atom_site_label_2
_ccdc_geom_bond_type
Cu1   N1    S    
C8    C13   A    
C10   C42   A    
C14   H27   S    
C19   C20   A    
C18   C26   A    
Cu1   Cu2   S    
C18   H8    S    
C7    C8    A    
C5    H3    S    
C12   C23   S    
C26   C27   A    
C37   C40   S    
Cu2   O8    S    
C5    C6    A    
C31   N1    A    
C27   C29   A    
C4    C41   S    
Cu1   O5    S    
C42   H26   S    
Cu2   O2    S    
C24   C29   A    
C22   C25   A    
C2    C16   S    
C9    C10   A    
C33   H15   S    
C21   C22   A    
C12   C32   S    
C32   H4    S    
C27   H7    S    
C36   C39   T    
Cu1   O1    S    
C30   H9    S    
C28   O8    A    
C1    O1    A    
Cu2   O6    S    
C21   H11   S    
C30   N1    A    
C35   O9    S    
C25   C26   A    
C12   H22   S    
C33   C37   S    
C16   O6    A    
C9    C14   A    
C4    O4    A    
C37   C38   S    
C23   C34   S    
C34   H20   S    
C35   H17   S    
C32   C37   S    
C20   C21   A    
Cu2   N2    S    
C2    C15   A    
C13   H5    S    
C19   H10   S    
C40   C41   T    
C33   H16   S    
C23   C35   S    
Cu1   O7    S    
C22   C24   A    
C31   H6    S    
C38   H19   S    
C25   C30   A    
C7    C9    A    
C6    H2    S    
C28   O7    A    
C34   C38   S    
C1    O2    A    
C19   N2    A    
C15   C42   A    
C12   H1    S    
C3    C5    A    
C34   H23   S    
C11   H25   S    
C6    C7    A    
Cu1   O3    S    
C1    C17   S    
C8    C17   A    
C16   O5    A    
Cu2   O4    S    
C3    H28   S    
C4    O3    A    
C11   C13   A    
C24   N2    A    
C23   C39   S    
C15   H24   S    
C33   C35   S    
C3    C17   A    
C2    C14   A    
H21   O9    S    
C10   C11   A    
C29   H14   S    
C28   C36   S    
C18   C31   A    
C20   H13   S    
C32   H12   S    
C38   H18   S    
