data_mof_unit_64424.cif
_audit_creation_date              2012-12-10T21:05:09-0500
_audit_creation_method            fapswitch 2.2
_symmetry_space_group_name_H-M    P1
_symmetry_Int_Tables_number       1
_space_group_crystal_system       triclinic
_cell_length_a                    25.839989
_cell_length_b                    59.940064
_cell_length_c                    32.641613
_cell_angle_alpha                 89.999986
_cell_angle_beta                  113.385274
_cell_angle_gamma                 90.000083
_cell_volume                      46404.0628261

loop_
_atom_site_label
_atom_site_type_symbol
_atom_type_description
_atom_site_fract_x
_atom_site_fract_y
_atom_site_fract_z
_atom_type_partial_charge
C1    C     C_R   0.500000 0.810663 0.500000 0.509102
C2    C     C_R   0.091571 0.765992 0.740700 -0.068036
C3    C     C_R   0.155458 0.285318 0.904807 -0.111998
C4    C     C_R   0.661779 0.213713 0.904995 -0.111893
C5    C     C_R   0.336212 0.786944 0.095037 -0.111856
C6    C     C_R   0.338239 0.213717 0.095004 -0.111892
C7    C     C_R   0.663793 0.786945 0.904963 -0.111857
C8    C     C_R   0.235474 0.713111 0.048950 -0.139479
C9    C     C_R   0.766951 0.286645 0.951058 -0.139299
C10   C     C_R   0.764521 0.713110 0.951050 -0.139479
C11   C     C_R   0.233027 0.286640 0.048942 -0.139300
C12   C     C_R   0.728772 0.214778 0.049132 -0.139265
C13   C     C_R   0.089067 0.234921 0.740697 -0.068507
C14   C     C_R   0.271907 0.785329 0.951028 -0.139532
C15   C     C_R   0.271274 0.214790 0.950868 -0.139267
C16   C     C_R   0.728097 0.785330 0.048972 -0.139532
C17   C     C_R   0.449852 0.582663 0.486554 0.398047
C18   C     C_R   0.550236 0.417300 0.516625 0.397920
C19   C     C_R   0.550148 0.582663 0.513446 0.398047
C20   C     C_R   0.449764 0.417300 0.483375 0.397920
C21   C     C_R   0.949852 0.082663 0.486557 0.398004
C22   C     C_R   0.050236 0.917300 0.516622 0.397888
C23   C     C_R   0.050148 0.082663 0.513443 0.398004
C24   C     C_R   0.908429 0.765991 0.259299 -0.068037
C25   C     C_R   0.949764 0.917300 0.483378 0.397887
C26   C     C_R   0.482245 0.629591 0.529222 -0.059949
C27   C     C_R   0.520504 0.370403 0.472448 -0.060607
C28   C     C_R   0.517755 0.629591 0.470778 -0.059949
C29   C     C_R   0.479496 0.370403 0.527552 -0.060607
C30   C     C_R   0.982248 0.129591 0.529223 -0.060021
C31   C     C_R   0.020503 0.870403 0.472447 -0.060666
C32   C     C_R   0.017752 0.129591 0.470776 -0.060021
C33   C     C_R   0.979497 0.870403 0.527552 -0.060666
C34   C     C_R   0.482194 0.652867 0.529235 -0.139107
C35   C     C_R   0.368416 0.750196 0.235751 0.239787
C36   C     C_R   0.520496 0.347127 0.472397 -0.140616
C37   C     C_R   0.517806 0.652867 0.470765 -0.139107
C38   C     C_R   0.479504 0.347127 0.527603 -0.140615
C39   C     C_R   0.982197 0.152867 0.529237 -0.139233
C40   C     C_R   0.020496 0.847127 0.472397 -0.140729
C41   C     C_R   0.017803 0.152867 0.470763 -0.139232
C42   C     C_R   0.979504 0.847127 0.527603 -0.140729
C43   C     C_R   0.500000 0.617849 0.500000 0.238584
C44   C     C_R   0.500000 0.382134 0.500000 0.239904
C45   C     C_R   0.000000 0.117849 0.500000 0.238623
C46   C     C_R   0.631909 0.249968 0.764254 0.238398
C47   C     C_R   1.000000 0.882134 0.500000 0.239926
C48   C     C_R   0.500000 0.547318 0.500000 -0.026997
C49   C     C_R   0.500000 0.452645 0.500000 -0.027017
C50   C     C_R   0.000000 0.047318 0.500000 -0.027006
C51   C     C_R   1.000000 0.952645 0.500000 -0.027024
C52   C     C_R   0.448942 0.559227 0.486387 0.024485
C53   C     C_R   0.551162 0.440736 0.516826 0.024332
C54   C     C_R   0.551058 0.559227 0.513613 0.024485
C55   C     C_R   0.448838 0.440736 0.483174 0.024332
C56   C     C_R   0.948942 0.059227 0.486389 0.024470
C57   C     C_R   0.631584 0.750196 0.764248 0.239786
C58   C     C_R   0.051162 0.940736 0.516823 0.024322
C59   C     C_R   0.051058 0.059227 0.513611 0.024470
C60   C     C_R   0.948838 0.940736 0.483177 0.024322
C61   C     C_R   0.398147 0.547564 0.473022 -0.111250
C62   C     C_R   0.602064 0.452398 0.533777 -0.111518
C63   C     C_R   0.601853 0.547564 0.526977 -0.111250
C64   C     C_R   0.397936 0.452398 0.466223 -0.111518
C65   C     C_R   0.898148 0.047564 0.473027 -0.111281
C66   C     C_R   0.102064 0.952398 0.533771 -0.111542
C67   C     C_R   0.101852 0.047564 0.526973 -0.111281
C68   C     C_R   0.368091 0.249968 0.235746 0.238401
C69   C     C_R   0.897936 0.952398 0.466229 -0.111542
C70   C     C_R   0.640205 0.749777 0.500521 0.508791
C71   C     C_R   0.359737 0.250279 0.499422 0.511048
C72   C     C_R   0.359795 0.749777 0.499479 0.508790
C73   C     C_R   0.640263 0.250279 0.500578 0.511048
C74   C     C_R   0.140202 0.249778 0.500518 0.509020
C75   C     C_R   0.859746 0.750274 0.499437 0.511127
C76   C     C_R   0.859798 0.249778 0.499482 0.509022
C77   C     C_R   0.140254 0.750274 0.500563 0.511126
C78   C     C_R   0.500000 0.664732 0.500000 0.025811
C79   C     C_R   0.868797 0.250304 0.235819 0.241317
C80   C     C_R   0.500000 0.335262 0.500000 0.025404
C81   C     C_R   0.000000 0.164733 0.500000 0.025829
C82   C     C_R   0.000000 0.835262 0.500000 0.025398
C83   C     C_R   0.947894 0.988117 0.483786 0.018229
C84   C     C_R   0.052062 0.011845 0.514803 0.018249
C85   C     C_R   0.052106 0.988117 0.516214 0.018229
C86   C     C_R   0.947938 0.011845 0.485197 0.018249
C87   C     C_R   0.447894 0.488117 0.483783 0.018237
C88   C     C_R   0.552062 0.511845 0.514806 0.018258
C89   C     C_R   0.552106 0.488117 0.516217 0.018237
C90   C     C_R   0.131566 0.749867 0.764232 0.239459
C91   C     C_R   0.447938 0.511845 0.485194 0.018258
C92   C     C_R   1.000000 0.976395 0.500000 0.034250
C93   C     C_R   0.000000 0.023567 0.500000 0.034247
C94   C     C_R   0.500000 0.476395 0.500000 0.034259
C95   C     C_R   0.500000 0.523567 0.500000 0.034256
C96   C     C_R   0.897339 0.975566 0.466394 -0.139151
C97   C     C_R   0.102471 0.024396 0.527482 -0.139072
C98   C     C_R   0.102660 0.975566 0.533606 -0.139150
C99   C     C_R   0.897529 0.024396 0.472518 -0.139072
C100  C     C_R   0.397340 0.475566 0.466388 -0.139133
C101  C     C_R   0.131203 0.250304 0.764181 0.241326
C102  C     C_R   0.602471 0.524396 0.527487 -0.139053
C103  C     C_R   0.602660 0.475566 0.533611 -0.139133
C104  C     C_R   0.397529 0.524396 0.472513 -0.139052
C105  C     C_R   0.421706 0.755556 0.650258 -0.099762
C106  C     C_R   0.574504 0.244871 0.352123 -0.097167
C107  C     C_R   0.578293 0.755558 0.349743 -0.099761
C108  C     C_R   0.425496 0.244871 0.647877 -0.097168
C109  C     C_R   0.922173 0.255364 0.650000 -0.098664
C110  C     C_R   0.074106 0.745083 0.352348 -0.096391
C111  C     C_R   0.077829 0.255366 0.349999 -0.098669
C112  C     C_R   0.500000 0.189336 0.500000 0.510747
C113  C     C_R   0.868433 0.749867 0.235768 0.239457
C114  C     C_R   0.925895 0.745081 0.647651 -0.096390
C115  C     C_R   0.372920 0.749147 0.613960 -0.078477
C116  C     C_R   0.622687 0.251637 0.388555 -0.064986
C117  C     C_R   0.627079 0.749149 0.386040 -0.078477
C118  C     C_R   0.377313 0.251637 0.611445 -0.064984
C119  C     C_R   0.873263 0.249003 0.613763 -0.078202
C120  C     C_R   0.122420 0.751788 0.388732 -0.064837
C121  C     C_R   0.126739 0.249004 0.386235 -0.078205
C122  C     C_R   0.877580 0.751787 0.611267 -0.064838
C123  C     C_R   0.347425 0.763830 0.578016 0.038221
C124  C     C_R   0.297602 0.750101 0.094686 -0.027236
C125  C     C_R   0.652817 0.236265 0.421945 0.038076
C126  C     C_R   0.652575 0.763831 0.421985 0.038220
C127  C     C_R   0.347183 0.236265 0.578055 0.038075
C128  C     C_R   0.847469 0.263784 0.578046 0.037949
C129  C     C_R   0.152777 0.736336 0.421872 0.037897
C130  C     C_R   0.152531 0.263784 0.421954 0.037950
C131  C     C_R   0.847223 0.736335 0.578126 0.037896
C132  C     C_R   0.371520 0.784884 0.578630 -0.092209
C133  C     C_R   0.633467 0.214201 0.419019 -0.103259
C134  C     C_R   0.628482 0.784885 0.421372 -0.092210
C135  C     C_R   0.702744 0.250078 0.905373 -0.027174
C136  C     C_R   0.366532 0.214200 0.580983 -0.103260
C137  C     C_R   0.871344 0.284900 0.578844 -0.092438
C138  C     C_R   0.133572 0.714242 0.418712 -0.103480
C139  C     C_R   0.128654 0.284900 0.421158 -0.092436
C140  C     C_R   0.866427 0.714240 0.581285 -0.103479
C141  C     C_R   0.420519 0.791174 0.614879 -0.111621
C142  C     C_R   0.584893 0.207551 0.382744 -0.113131
C143  C     C_R   0.579482 0.791176 0.385123 -0.111622
C144  C     C_R   0.415106 0.207551 0.617259 -0.113129
C145  C     C_R   0.920432 0.291153 0.615050 -0.112055
C146  C     C_R   0.702398 0.750101 0.905314 -0.027236
C147  C     C_R   0.084908 0.707644 0.382462 -0.113395
C148  C     C_R   0.079566 0.291154 0.384953 -0.112052
C149  C     C_R   0.915091 0.707642 0.617534 -0.113397
C150  C     C_R   0.445590 0.776524 0.650670 -0.091986
C151  C     C_R   0.555484 0.222867 0.349270 -0.093915
C152  C     C_R   0.554410 0.776526 0.349332 -0.091986
C153  C     C_R   0.444514 0.222867 0.650732 -0.093916
C154  C     C_R   0.945830 0.276398 0.650601 -0.091688
C155  C     C_R   0.055242 0.723047 0.349260 -0.093860
C156  C     C_R   0.054170 0.276399 0.349400 -0.091689
C157  C     C_R   0.297255 0.250078 0.094626 -0.027174
C158  C     C_R   0.944758 0.723044 0.650737 -0.093860
C159  C     C_R   0.560623 0.750010 0.621311 0.512360
C160  C     C_R   0.439352 0.250002 0.378692 0.512164
C161  C     C_R   0.439377 0.750010 0.378689 0.512359
C162  C     C_R   0.560648 0.250002 0.621308 0.512165
C163  C     C_R   0.060595 0.250019 0.621305 0.512190
C164  C     C_R   0.939377 0.749993 0.378693 0.511975
C165  C     C_R   0.939404 0.250019 0.378695 0.512191
C166  C     C_R   0.060623 0.749993 0.621307 0.511974
C167  C     C_R   0.243058 0.757125 0.539203 -0.017765
C168  C     C_R   0.798042 0.250202 0.094812 -0.027200
C169  C     C_R   0.756973 0.243174 0.460657 -0.020036
C170  C     C_R   0.756942 0.757125 0.460797 -0.017765
C171  C     C_R   0.243027 0.243174 0.539342 -0.020036
C172  C     C_R   0.743087 0.257104 0.539236 -0.017730
C173  C     C_R   0.256960 0.743194 0.460633 -0.019974
C174  C     C_R   0.256913 0.257104 0.460765 -0.017730
C175  C     C_R   0.743040 0.743193 0.539367 -0.019974
C176  C     C_R   0.196469 0.750347 0.500532 0.029323
C177  C     C_R   0.803576 0.249819 0.499417 0.025112
C178  C     C_R   0.803530 0.750347 0.499468 0.029323
C179  C     C_R   0.202334 0.749980 0.905299 -0.027230
C180  C     C_R   0.196424 0.249819 0.500583 0.025112
C181  C     C_R   0.696484 0.250342 0.500555 0.029303
C182  C     C_R   0.303568 0.749823 0.499407 0.025113
C183  C     C_R   0.303516 0.250342 0.499445 0.029303
C184  C     C_R   0.696432 0.749823 0.500593 0.025114
C185  C     C_R   0.202936 0.743604 0.461403 -0.030006
C186  C     C_R   0.797142 0.256615 0.538514 -0.029345
C187  C     C_R   0.797064 0.743604 0.538597 -0.030006
C188  C     C_R   0.202858 0.256615 0.461486 -0.029344
C189  C     C_R   0.702953 0.243580 0.461437 -0.029984
C190  C     C_R   0.201959 0.250203 0.905188 -0.027201
C191  C     C_R   0.297121 0.756632 0.538494 -0.029281
C192  C     C_R   0.297047 0.243580 0.538563 -0.029984
C193  C     C_R   0.702879 0.756633 0.461506 -0.029281
C194  C     C_R   0.496490 0.917330 0.462476 0.397663
C195  C     C_R   0.499224 0.082699 0.536263 0.397976
C196  C     C_R   0.503510 0.917329 0.537524 0.397663
C197  C     C_R   0.500775 0.082699 0.463737 0.397975
C198  C     C_R   0.996472 0.417330 0.462471 0.397651
C199  C     C_R   0.999240 0.582699 0.536268 0.397969
C200  C     C_R   0.003528 0.417330 0.537529 0.397650
C201  C     C_R   0.797666 0.749980 0.094701 -0.027229
C202  C     C_R   0.000759 0.582699 0.463732 0.397969
C203  C     C_R   0.548032 0.870401 0.527722 -0.061028
C204  C     C_R   0.452986 0.129595 0.470714 -0.060828
C205  C     C_R   0.451968 0.870401 0.472278 -0.061028
C206  C     C_R   0.547014 0.129595 0.529285 -0.060828
C207  C     C_R   0.048035 0.370401 0.527717 -0.061087
C208  C     C_R   0.952984 0.629595 0.470718 -0.060861
C209  C     C_R   0.951965 0.370401 0.472283 -0.061087
C210  C     C_R   0.047016 0.629595 0.529282 -0.060862
C211  C     C_R   0.548072 0.847125 0.527771 -0.142780
C212  C     C_R   0.290263 0.731665 0.118571 0.023855
C213  C     C_R   0.452919 0.152872 0.470702 -0.141678
C214  C     C_R   0.451928 0.847125 0.472229 -0.142780
C215  C     C_R   0.547081 0.152872 0.529298 -0.141677
C216  C     C_R   0.048075 0.347125 0.527766 -0.142874
C217  C     C_R   0.952917 0.652872 0.470705 -0.141725
C218  C     C_R   0.951925 0.347124 0.472234 -0.142873
C219  C     C_R   0.047083 0.652872 0.529295 -0.141725
C220  C     C_R   0.500000 0.882143 0.500000 0.238767
C221  C     C_R   0.500000 0.117865 0.500000 0.239566
C222  C     C_R   0.000000 0.382143 0.500000 0.238800
C223  C     C_R   1.000000 0.310663 0.500000 0.509144
C224  C     C_R   0.711264 0.268265 0.881471 0.023981
C225  C     C_R   1.000000 0.617865 0.500000 0.239587
C226  C     C_R   0.500000 0.952676 0.500000 -0.027149
C227  C     C_R   0.500000 0.047352 0.500000 -0.027108
C228  C     C_R   0.000000 0.452676 0.500000 -0.027150
C229  C     C_R   1.000000 0.547352 0.500000 -0.027106
C230  C     C_R   0.496324 0.940766 0.461763 0.024411
C231  C     C_R   0.499346 0.059262 0.536973 0.024317
C232  C     C_R   0.503676 0.940766 0.538237 0.024411
C233  C     C_R   0.500654 0.059262 0.463027 0.024317
C234  C     C_R   0.996304 0.440767 0.461758 0.024419
C235  C     C_R   0.709735 0.731665 0.881428 0.023856
C236  C     C_R   0.999363 0.559262 0.536978 0.024323
C237  C     C_R   0.003696 0.440766 0.538242 0.024419
C238  C     C_R   0.000637 0.559262 0.463021 0.024323
C239  C     C_R   0.492424 0.952430 0.423648 -0.111846
C240  C     C_R   0.498400 0.047599 0.573667 -0.111814
C241  C     C_R   0.507576 0.952430 0.576351 -0.111846
C242  C     C_R   0.501599 0.047599 0.426333 -0.111814
C243  C     C_R   0.992385 0.452430 0.423638 -0.111866
C244  C     C_R   0.998434 0.547599 0.573678 -0.111827
C245  C     C_R   0.007615 0.452430 0.576362 -0.111866
C246  C     C_R   0.288725 0.268263 0.118529 0.023980
C247  C     C_R   0.001566 0.547599 0.426322 -0.111827
C248  C     C_R   0.314131 0.732037 0.165453 0.397940
C249  C     C_R   0.687488 0.267874 0.834589 0.397936
C250  C     C_R   0.685867 0.732037 0.834547 0.397940
C251  C     C_R   0.312501 0.267872 0.165411 0.397938
C252  C     C_R   0.810915 0.232945 0.165591 0.398083
C253  C     C_R   0.189859 0.767142 0.834529 0.398071
C254  C     C_R   0.189107 0.232950 0.834408 0.398084
C255  C     C_R   0.810143 0.767143 0.165471 0.398072
C256  C     C_R   0.500000 0.835261 0.500000 0.022098
C257  C     C_R   0.786992 0.232581 0.118714 0.023604
C258  C     C_R   0.500000 0.164736 0.500000 0.022434
C259  C     C_R   0.000000 0.335261 0.500000 0.022137
C260  C     C_R   1.000000 0.664736 0.500000 0.022483
C261  C     C_R   0.999401 0.511879 0.461954 0.017964
C262  C     C_R   0.002505 0.488150 0.538603 0.017956
C263  C     C_R   0.000599 0.511879 0.538046 0.017964
C264  C     C_R   0.997495 0.488150 0.461396 0.017956
C265  C     C_R   0.499419 0.011879 0.461959 0.017964
C266  C     C_R   0.502486 0.988150 0.538598 0.017955
C267  C     C_R   0.500581 0.011879 0.538041 0.017964
C268  C     C_R   0.213676 0.767533 0.881410 0.023811
C269  C     C_R   0.497514 0.988150 0.461402 0.017955
C270  C     C_R   1.000000 0.523602 0.500000 0.034085
C271  C     C_R   0.000000 0.476428 0.500000 0.034016
C272  C     C_R   0.500000 0.023602 0.500000 0.034086
C273  C     C_R   0.500000 0.976428 0.500000 0.034019
C274  C     C_R   0.001086 0.524431 0.425740 -0.139769
C275  C     C_R   0.007189 0.475598 0.576680 -0.139759
C276  C     C_R   0.998913 0.524431 0.574259 -0.139769
C277  C     C_R   0.992811 0.475598 0.423320 -0.139759
C278  C     C_R   0.501121 0.024431 0.425751 -0.139764
C279  C     C_R   0.213031 0.232587 0.881286 0.023603
C280  C     C_R   0.507150 0.975598 0.576669 -0.139752
C281  C     C_R   0.498879 0.024431 0.574248 -0.139763
C282  C     C_R   0.492850 0.975598 0.423330 -0.139752
C283  C     C_R   0.352165 0.768256 0.165334 0.396268
C284  C     C_R   0.646910 0.232180 0.834718 0.396103
C285  C     C_R   0.647838 0.768256 0.834665 0.396267
C286  C     C_R   0.353099 0.232181 0.165282 0.396104
C287  C     C_R   0.856237 0.267562 0.165470 0.396433
C288  C     C_R   0.143775 0.732708 0.834653 0.396229
C289  C     C_R   0.143742 0.267557 0.834530 0.396435
C290  C     C_R   0.786326 0.767533 0.118590 0.023811
C291  C     C_R   0.856222 0.732708 0.165347 0.396229
C292  C     C_R   0.348139 0.764983 0.259173 -0.063753
C293  C     C_R   0.649860 0.234304 0.740819 -0.063401
C294  C     C_R   0.651862 0.764983 0.740827 -0.063754
C295  C     C_R   0.350144 0.234302 0.259181 -0.063402
C296  C     C_R   0.849839 0.265612 0.259201 -0.064238
C297  C     C_R   0.148301 0.733784 0.740820 -0.063749
C298  C     C_R   0.150153 0.265615 0.740799 -0.064241
C299  C     C_R   0.851698 0.733784 0.259180 -0.063750
C300  C     C_R   0.371172 0.764928 0.305737 -0.150131
C301  C     C_R   0.259487 0.713256 0.095301 -0.111921
C302  C     C_R   0.626710 0.234303 0.694256 -0.147861
C303  C     C_R   0.628828 0.764928 0.694263 -0.150131
C304  C     C_R   0.373294 0.234301 0.305744 -0.147862
C305  C     C_R   0.872717 0.265510 0.305762 -0.150463
C306  C     C_R   0.125299 0.733826 0.694254 -0.148059
C307  C     C_R   0.127276 0.265513 0.694238 -0.150463
C308  C     C_R   0.874700 0.733826 0.305746 -0.148060
C309  C     C_R   0.435019 0.735247 0.305820 -0.150880
C310  C     C_R   0.567571 0.265737 0.694156 -0.152903
C311  C     C_R   0.564980 0.735247 0.694180 -0.150881
C312  C     C_R   0.743175 0.286444 0.904716 -0.111989
C313  C     C_R   0.432425 0.265738 0.305843 -0.152904
C314  C     C_R   0.933942 0.234812 0.305849 -0.150876
C315  C     C_R   0.068550 0.766073 0.694151 -0.153011
C316  C     C_R   0.066064 0.234810 0.694151 -0.150876
C317  C     C_R   0.931450 0.766073 0.305849 -0.153010
C318  C     C_3   0.234478 0.766311 0.579722 -0.274651
C319  C     C_3   0.214652 0.790529 0.572189 -0.425627
C320  C     C_3   0.765363 0.234333 0.419811 -0.255759
C321  C     C_3   0.758904 0.252676 0.385593 -0.408820
C322  C     C_3   0.765522 0.766312 0.420279 -0.274652
C323  C     C_R   0.740508 0.713255 0.904699 -0.111921
C324  C     C_3   0.785348 0.790530 0.427813 -0.425627
C325  C     C_3   0.234637 0.234333 0.580189 -0.255761
C326  C     C_3   0.241096 0.252676 0.614406 -0.408818
C327  C     C_3   0.734556 0.266235 0.579811 -0.274716
C328  C     C_3   0.714708 0.290452 0.572390 -0.425573
C329  C     C_3   0.265322 0.734405 0.419742 -0.255539
C330  C     C_3   0.258696 0.752781 0.385556 -0.409258
C331  C     C_3   0.265444 0.266236 0.420190 -0.274716
C332  C     C_3   0.285292 0.290453 0.427612 -0.425573
C333  C     C_3   0.734678 0.734404 0.580257 -0.255540
C334  C     C_R   1.000000 0.689336 0.500000 0.510732
C335  C     C_R   0.256804 0.286440 0.095284 -0.111988
C336  C     C_3   0.741304 0.752780 0.614444 -0.409261
C337  C     C_R   0.752116 0.215074 0.095473 -0.112089
C338  C     C_R   0.248809 0.784982 0.904678 -0.112011
C339  C     C_R   0.247930 0.215086 0.904527 -0.112088
C340  C     C_R   0.751196 0.784983 0.095322 -0.112012
C341  C     C_R   0.328905 0.768566 0.118444 0.024740
C342  C     C_R   0.670251 0.231858 0.881607 0.024955
C343  C     C_R   0.671097 0.768567 0.881556 0.024740
C344  C     C_R   0.329758 0.231860 0.118392 0.024954
C345  C     C_R   0.833056 0.267857 0.118580 0.024551
C346  C     C_R   0.411980 0.735353 0.259271 -0.068523
C347  C     C_R   0.167047 0.732392 0.881544 0.024842
C348  C     C_R   0.166923 0.267852 0.881420 0.024550
C349  C     C_R   0.832950 0.732391 0.118456 0.024842
C350  C     C_R   0.414877 0.750058 0.329500 0.021298
C351  C     C_R   0.585274 0.250011 0.670490 0.021313
C352  C     C_R   0.585123 0.750058 0.670500 0.021298
C353  C     C_R   0.414726 0.250011 0.329510 0.021312
C354  C     C_R   0.915027 0.250107 0.329520 0.021044
C355  C     C_R   0.085138 0.749965 0.670488 0.021155
C356  C     C_R   0.084973 0.250107 0.670480 0.021043
C357  C     C_R   0.590618 0.265659 0.740703 -0.068125
C358  C     C_R   0.914862 0.749965 0.329512 0.021155
C359  C     C_R   0.215431 0.731866 0.976333 0.018047
C360  C     C_R   0.785112 0.268284 0.023767 0.018140
C361  C     C_R   0.784566 0.731865 0.023667 0.018046
C362  C     C_R   0.214870 0.268280 0.976233 0.018139
C363  C     C_R   0.716844 0.231732 0.976421 0.018141
C364  C     C_R   0.282764 0.768600 0.023653 0.018059
C365  C     C_R   0.283170 0.231735 0.023579 0.018140
C366  C     C_R   0.717239 0.768600 0.976347 0.018059
C367  C     C_R   0.260605 0.768191 0.976191 0.018090
C368  C     C_R   0.588019 0.735353 0.740729 -0.068523
C369  C     C_R   0.739578 0.232024 0.023912 0.018192
C370  C     C_R   0.739397 0.768191 0.023808 0.018090
C371  C     C_R   0.260442 0.232029 0.976088 0.018190
C372  C     C_R   0.760053 0.268517 0.976277 0.018193
C373  C     C_R   0.241033 0.731515 0.023792 0.018113
C374  C     C_R   0.239933 0.268514 0.023723 0.018192
C375  C     C_R   0.758964 0.731515 0.976208 0.018113
C376  C     C_R   0.226222 0.750013 0.952809 0.034099
C377  C     C_R   0.774141 0.250170 0.047289 0.034025
C378  C     C_R   0.773778 0.750013 0.047190 0.034099
C379  C     C_R   0.409377 0.265660 0.259297 -0.068124
C380  C     C_R   0.225860 0.250170 0.952711 0.034026
C381  C     C_R   0.726651 0.250109 0.952899 0.033971
C382  C     C_R   0.273699 0.750072 0.047175 0.034098
C383  C     C_R   0.273349 0.250109 0.047101 0.033972
C384  C     C_R   0.726301 0.750072 0.952825 0.034098
C385  C     C_R   0.500000 0.689336 0.500000 0.507974
C386  C     C_R   0.500000 0.310662 0.500000 0.505514
C387  C     C_R   1.000000 0.189335 0.500000 0.507936
C388  C     C_R   1.000000 0.810662 0.500000 0.505493
C389  C     C_R   0.178873 0.714699 0.951311 -0.139682
C390  C     C_R   0.910940 0.234924 0.259303 -0.068507
C391  C     C_R   0.821232 0.285560 0.048846 -0.139401
C392  C     C_R   0.821122 0.714697 0.048689 -0.139683
C393  C     C_R   0.178726 0.285550 0.951154 -0.139403
C394  C     C_R   0.684625 0.213574 0.951340 -0.139452
C395  C     C_R   0.313586 0.787032 0.048681 -0.139634
C396  C     C_R   0.315395 0.213579 0.048659 -0.139454
C397  C     C_R   0.686419 0.787033 0.951319 -0.139634
C398  C     C_R   0.155362 0.714981 0.904955 -0.111904
C399  C     C_R   0.844499 0.285328 0.095194 -0.111999
C400  C     C_R   0.844633 0.714980 0.095045 -0.111905
H1    H     H_    0.468581 0.723584 0.323232 0.135207
H2    H     H_    0.463719 0.379354 0.549033 0.133150
H3    H     H_    0.502797 0.056358 0.397684 0.166982
H4    H     H_    0.988842 0.443672 0.393601 0.166881
H5    H     H_    0.997249 0.556357 0.602331 0.166959
H6    H     H_    0.011158 0.443672 0.606399 0.166881
H7    H     H_    0.002750 0.556357 0.397669 0.166959
H8    H     H_    0.002941 0.516932 0.396411 0.111850
H9    H     H_    0.011484 0.483096 0.607809 0.111885
H10   H     H_    0.997058 0.516932 0.603589 0.111850
H11   H     H_    0.988516 0.483096 0.392191 0.111885
H12   H     H_    0.502989 0.016932 0.396426 0.111858
H13   H     H_    0.468643 0.620648 0.552025 0.135000
H14   H     H_    0.511428 0.983096 0.607795 0.111898
H15   H     H_    0.497011 0.016932 0.603573 0.111857
H16   H     H_    0.488572 0.983096 0.392205 0.111898
H17   H     H_    0.253803 0.698744 0.112871 0.166859
H18   H     H_    0.749928 0.300743 0.887130 0.166871
H19   H     H_    0.746191 0.698742 0.887129 0.166859
H20   H     H_    0.250044 0.300737 0.112870 0.166870
H21   H     H_    0.742507 0.201422 0.113064 0.166876
H22   H     H_    0.258785 0.798547 0.887105 0.166874
H23   H     H_    0.257559 0.201439 0.886936 0.166876
H24   H     H_    0.536280 0.379354 0.450967 0.133150
H25   H     H_    0.741221 0.798549 0.112895 0.166874
H26   H     H_    0.138834 0.721206 0.676901 0.137528
H27   H     H_    0.857333 0.277487 0.323110 0.134780
H28   H     H_    0.861165 0.721206 0.323099 0.137529
H29   H     H_    0.142654 0.277492 0.676890 0.134781
H30   H     H_    0.641191 0.221999 0.676910 0.137647
H31   H     H_    0.354752 0.776504 0.323082 0.134576
H32   H     H_    0.358817 0.221996 0.323090 0.137647
H33   H     H_    0.645249 0.776503 0.676917 0.134576
H34   H     H_    0.179329 0.721307 0.758771 0.134083
H35   H     H_    0.031351 0.120648 0.447971 0.134901
H36   H     H_    0.817158 0.277509 0.241230 0.131486
H37   H     H_    0.820669 0.721307 0.241229 0.134085
H38   H     H_    0.182829 0.277514 0.758769 0.131474
H39   H     H_    0.681922 0.222175 0.758748 0.135463
H40   H     H_    0.314332 0.776451 0.241230 0.133324
H41   H     H_    0.318085 0.222172 0.241252 0.135458
H42   H     H_    0.685670 0.776451 0.758770 0.133327
H43   H     H_    0.127768 0.701393 0.887494 0.166730
H44   H     H_    0.871747 0.299001 0.112673 0.166734
H45   H     H_    0.872225 0.701391 0.112506 0.166730
H46   H     H_    0.963721 0.879354 0.549034 0.133086
H47   H     H_    0.128191 0.298986 0.887328 0.166733
H48   H     H_    0.637385 0.199393 0.887518 0.166761
H49   H     H_    0.359525 0.801476 0.112503 0.166734
H50   H     H_    0.362639 0.199398 0.112480 0.166761
H51   H     H_    0.640482 0.801478 0.887497 0.166734
H52   H     H_    0.166571 0.700848 0.966411 0.112036
H53   H     H_    0.833207 0.299535 0.033864 0.111793
H54   H     H_    0.833422 0.700846 0.033589 0.112036
H55   H     H_    0.166731 0.299519 0.966138 0.111795
H56   H     H_    0.676537 0.198718 0.966315 0.111720
H57   H     H_    0.968649 0.120648 0.552029 0.134900
H58   H     H_    0.320422 0.802089 0.033587 0.111961
H59   H     H_    0.323487 0.198724 0.033682 0.111723
H60   H     H_    0.679585 0.802091 0.966412 0.111960
H61   H     H_    0.213517 0.698034 0.033963 0.112022
H62   H     H_    0.790034 0.301523 0.965921 0.111749
H63   H     H_    0.786476 0.698033 0.966036 0.112023
H64   H     H_    0.209937 0.301517 0.034078 0.111751
H65   H     H_    0.701800 0.200781 0.034272 0.111812
H66   H     H_    0.299321 0.799204 0.966009 0.112068
H67   H     H_    0.298269 0.200798 0.965729 0.111815
H68   H     H_    0.036279 0.879354 0.450966 0.133085
H69   H     H_    0.700686 0.799206 0.033991 0.112068
H70   H     H_    0.531691 0.661549 0.447840 0.139343
H71   H     H_    0.463451 0.338444 0.549211 0.137555
H72   H     H_    0.468309 0.661549 0.552160 0.139343
H73   H     H_    0.536549 0.338444 0.450788 0.137555
H74   H     H_    0.031685 0.161549 0.447836 0.139132
H75   H     H_    0.963452 0.838444 0.549212 0.137401
H76   H     H_    0.968315 0.161549 0.552164 0.139131
H77   H     H_    0.036547 0.838444 0.450788 0.137401
H78   H     H_    0.246261 0.801025 0.566015 0.160961
H79   H     H_    0.358316 0.556322 0.462887 0.167253
H80   H     H_    0.173501 0.791930 0.543277 0.162300
H81   H     H_    0.209548 0.796905 0.602308 0.147953
H82   H     H_    0.203853 0.756087 0.587549 0.169024
H83   H     H_    0.273559 0.765611 0.610529 0.153122
H84   H     H_    0.786225 0.267178 0.401257 0.185997
H85   H     H_    0.771006 0.246036 0.358876 0.144858
H86   H     H_    0.714651 0.258457 0.369949 0.142771
H87   H     H_    0.807529 0.226516 0.429575 0.142688
H88   H     H_    0.735157 0.220682 0.403502 0.151904
H89   H     H_    0.753740 0.801025 0.433987 0.160961
H90   H     H_    0.642001 0.443640 0.547412 0.167086
H91   H     H_    0.826499 0.791931 0.456725 0.162300
H92   H     H_    0.790453 0.796906 0.397694 0.147953
H93   H     H_    0.796147 0.756088 0.412451 0.169022
H94   H     H_    0.726441 0.765612 0.389472 0.153122
H95   H     H_    0.213775 0.267178 0.598743 0.185997
H96   H     H_    0.228994 0.246036 0.641124 0.144864
H97   H     H_    0.285349 0.258457 0.630051 0.142771
H98   H     H_    0.192471 0.226516 0.570425 0.142689
H99   H     H_    0.264842 0.220682 0.596498 0.151905
H100  H     H_    0.673529 0.291868 0.543511 0.162232
H101  H     H_    0.641684 0.556322 0.537113 0.167253
H102  H     H_    0.709650 0.296787 0.602554 0.147891
H103  H     H_    0.746280 0.300972 0.566221 0.160885
H104  H     H_    0.703965 0.255984 0.587626 0.168866
H105  H     H_    0.773673 0.265513 0.610592 0.153017
H106  H     H_    0.286123 0.767259 0.401208 0.185815
H107  H     H_    0.270568 0.746166 0.358700 0.143896
H108  H     H_    0.214448 0.758588 0.370102 0.143010
H109  H     H_    0.307520 0.726627 0.429435 0.142772
H110  H     H_    0.235169 0.720738 0.403435 0.151744
H111  H     H_    0.326470 0.291869 0.456491 0.162233
H112  H     H_    0.535937 0.278109 0.676729 0.132935
H113  H     H_    0.357999 0.443640 0.452588 0.167086
H114  H     H_    0.290351 0.296789 0.397448 0.147891
H115  H     H_    0.253720 0.300973 0.433781 0.160886
H116  H     H_    0.296036 0.255986 0.412374 0.168865
H117  H     H_    0.226327 0.265514 0.389409 0.153016
H118  H     H_    0.713876 0.767257 0.598793 0.185816
H119  H     H_    0.729434 0.746164 0.641301 0.143896
H120  H     H_    0.785552 0.758587 0.629897 0.143012
H121  H     H_    0.692479 0.726625 0.570564 0.142771
H122  H     H_    0.764830 0.720737 0.596563 0.151745
H123  H     H_    0.858317 0.056322 0.462893 0.167241
H124  H     H_    0.142001 0.943640 0.547404 0.167076
H125  H     H_    0.141683 0.056322 0.537107 0.167241
H126  H     H_    0.857999 0.943640 0.452596 0.167076
H127  H     H_    0.856188 0.983066 0.451887 0.112208
H128  H     H_    0.143483 0.016897 0.537444 0.112099
H129  H     H_    0.143812 0.983066 0.548113 0.112208
H130  H     H_    0.856517 0.016896 0.462556 0.112099
H131  H     H_    0.356188 0.483066 0.451879 0.112216
H132  H     H_    0.531418 0.723584 0.676768 0.135208
H133  H     H_    0.643483 0.516896 0.537450 0.112104
H134  H     H_    0.643812 0.483067 0.548121 0.112216
H135  H     H_    0.356516 0.516896 0.462550 0.112104
H136  H     H_    0.483597 0.781386 0.678659 0.134976
H137  H     H_    0.517880 0.217716 0.321213 0.135306
H138  H     H_    0.516403 0.781388 0.321344 0.134976
H139  H     H_    0.482118 0.217717 0.678790 0.135305
H140  H     H_    0.983922 0.281228 0.678542 0.135753
H141  H     H_    0.017548 0.717939 0.321237 0.135813
H142  H     H_    0.016078 0.281229 0.321459 0.135749
H143  H     H_    0.464056 0.278111 0.323271 0.132936
H144  H     H_    0.982452 0.717936 0.678759 0.135813
H145  H     H_    0.441150 0.744225 0.677966 0.108930
H146  H     H_    0.551795 0.256718 0.326214 0.108010
H147  H     H_    0.558848 0.744227 0.322035 0.108932
H148  H     H_    0.448204 0.256719 0.673786 0.108005
H149  H     H_    0.941903 0.243945 0.677502 0.110059
H150  H     H_    0.051157 0.757003 0.326673 0.109038
H151  H     H_    0.058100 0.243948 0.322494 0.110052
H152  H     H_    0.948845 0.757000 0.673327 0.109041
H153  H     H_    0.355112 0.732763 0.613680 0.110228
H154  H     H_    0.966448 0.222747 0.323265 0.135032
H155  H     H_    0.636397 0.268838 0.390912 0.108328
H156  H     H_    0.644886 0.732765 0.386319 0.110228
H157  H     H_    0.363604 0.268839 0.609086 0.108329
H158  H     H_    0.855632 0.232569 0.613327 0.110205
H159  H     H_    0.136028 0.769010 0.391273 0.108438
H160  H     H_    0.144371 0.232571 0.386669 0.110204
H161  H     H_    0.863974 0.769008 0.608728 0.108439
H162  H     H_    0.352634 0.796273 0.550894 0.110742
H163  H     H_    0.655813 0.202259 0.444918 0.114264
H164  H     H_    0.647368 0.796274 0.449109 0.110743
H165  H     H_    0.037866 0.778760 0.676716 0.132817
H166  H     H_    0.344185 0.202258 0.555085 0.114264
H167  H     H_    0.852231 0.296364 0.551276 0.110765
H168  H     H_    0.156090 0.702236 0.444420 0.114274
H169  H     H_    0.147765 0.296364 0.448729 0.110766
H170  H     H_    0.843908 0.702235 0.555576 0.114275
H171  H     H_    0.439164 0.807372 0.615155 0.121436
H172  H     H_    0.569997 0.190541 0.380622 0.124740
H173  H     H_    0.560838 0.807373 0.384848 0.121436
H174  H     H_    0.430000 0.190541 0.619382 0.124741
H175  H     H_    0.938908 0.307401 0.615468 0.121378
H176  H     H_    0.033564 0.222743 0.676736 0.135030
H177  H     H_    0.070126 0.690610 0.380161 0.124693
H178  H     H_    0.061088 0.307401 0.384537 0.121377
H179  H     H_    0.929872 0.690608 0.619834 0.124693
H180  H     H_    0.414264 0.838440 0.450527 0.137340
H181  H     H_    0.583948 0.161555 0.552230 0.138797
H182  H     H_    0.585736 0.838440 0.549473 0.137340
H183  H     H_    0.416052 0.161555 0.447770 0.138796
H184  H     H_    0.914259 0.338440 0.450536 0.137204
H185  H     H_    0.083951 0.661555 0.552225 0.138708
H186  H     H_    0.085741 0.338440 0.549464 0.137203
H187  H     H_    0.962135 0.778760 0.323284 0.132816
H188  H     H_    0.916048 0.661555 0.447775 0.138708
H189  H     H_    0.427989 0.723911 0.241416 0.131866
H190  H     H_    0.576391 0.277793 0.758528 0.133543
H191  H     H_    0.572010 0.723911 0.758583 0.131868
H192  H     H_    0.423602 0.277796 0.241471 0.133537
H193  H     H_    0.925861 0.223073 0.241423 0.130026
H194  H     H_    0.078330 0.778453 0.758545 0.132173
H195  H     H_    0.074152 0.223069 0.758578 0.130014
H196  H     H_    0.921671 0.778453 0.241455 0.132175
H197  H     H_    0.414597 0.879343 0.450864 0.134554
H198  H     H_    0.531357 0.620648 0.447974 0.135000
H199  H     H_    0.583574 0.120644 0.551936 0.133763
H200  H     H_    0.585403 0.879343 0.549136 0.134554
H201  H     H_    0.416425 0.120643 0.448064 0.133763
H202  H     H_    0.914592 0.379343 0.450874 0.134498
H203  H     H_    0.083578 0.620644 0.551930 0.133730
H204  H     H_    0.085408 0.379343 0.549126 0.134498
H205  H     H_    0.916421 0.620644 0.448070 0.133730
H206  H     H_    0.488897 0.943672 0.393614 0.166916
H207  H     H_    0.497203 0.056358 0.602316 0.166982
H208  H     H_    0.511104 0.943672 0.606385 0.166916
N1    N     N_R   0.344412 0.750162 0.187820 -0.396254
N2    N     N_R   0.500000 0.406091 0.500000 -0.396654
N3    N     N_R   0.000000 0.093881 0.500000 -0.396516
N4    N     N_R   0.000000 0.906091 0.500000 -0.396654
N5    N     N_R   0.500000 0.906111 0.500000 -0.396476
N6    N     N_R   0.500000 0.093907 0.500000 -0.396714
N7    N     N_R   0.000000 0.406111 0.500000 -0.396454
N8    N     N_R   1.000000 0.593907 0.500000 -0.396698
N9    N     N_R   0.655929 0.250009 0.812206 -0.395912
N10   N     N_R   0.655588 0.750162 0.812180 -0.396254
N11   N     N_R   0.344070 0.250009 0.187794 -0.395913
N12   N     N_R   0.844820 0.250270 0.187926 -0.396562
N13   N     N_R   0.155563 0.749907 0.812164 -0.396165
N14   N     N_R   0.155180 0.250271 0.812074 -0.396565
N15   N     N_R   0.844437 0.749907 0.187836 -0.396164
N16   N     N_R   0.500000 0.593881 0.500000 -0.396514
O1    O     O_3   0.500000 0.749990 0.500000 -0.433156
O2    O     O_2   0.099129 0.905797 0.533212 -0.498668
O3    O     O_2   0.099024 0.094155 0.526992 -0.498176
O4    O     O_2   0.900871 0.905797 0.466788 -0.498667
O5    O     O_2   0.493679 0.905837 0.426092 -0.499180
O6    O     O_2   0.497915 0.094203 0.571384 -0.498362
O7    O     O_2   0.506321 0.905837 0.573908 -0.499180
O8    O     O_2   0.502085 0.094203 0.428616 -0.498362
O9    O     O_2   0.993643 0.405837 0.426082 -0.499316
O10   O     O_2   0.997945 0.594203 0.571395 -0.498451
O11   O     O_2   0.006357 0.405837 0.573918 -0.499316
O12   O     O_3   0.500000 0.250010 0.500000 -0.432998
O13   O     O_2   0.002054 0.594203 0.428605 -0.498451
O14   O     O_R   0.456550 0.799940 0.473830 -0.545160
O15   O     O_R   0.543450 0.200060 0.526170 -0.543302
O16   O     O_R   0.543450 0.799940 0.526170 -0.545160
O17   O     O_R   0.456550 0.200060 0.473830 -0.543303
O18   O     O_R   0.956550 0.299940 0.473830 -0.545237
O19   O     O_R   0.043450 0.700060 0.526170 -0.543375
O20   O     O_R   0.043450 0.299940 0.526170 -0.545238
O21   O     O_R   0.956550 0.700060 0.473830 -0.543376
O22   O     O_R   0.517270 0.700050 0.473810 -0.546476
O23   O     O_3   0.000000 0.249990 0.500000 -0.433019
O24   O     O_R   0.482730 0.299950 0.526190 -0.548653
O25   O     O_R   0.482730 0.700050 0.526190 -0.546476
O26   O     O_R   0.517270 0.299950 0.473810 -0.548653
O27   O     O_R   0.017270 0.200050 0.473810 -0.546593
O28   O     O_R   0.982730 0.799950 0.526190 -0.548742
O29   O     O_R   0.982730 0.200050 0.526190 -0.546595
O30   O     O_R   0.017270 0.799950 0.473810 -0.548742
O31   O     O_R   0.628900 0.763090 0.526200 -0.553206
O32   O     O_R   0.371100 0.236910 0.473800 -0.551121
O33   O     O_R   0.371100 0.763090 0.473800 -0.553207
O34   O     O_3   1.000000 0.750010 0.500000 -0.432921
O35   O     O_R   0.628900 0.236910 0.526200 -0.551122
O36   O     O_R   0.128900 0.263090 0.526200 -0.553051
O37   O     O_R   0.871100 0.736910 0.473800 -0.550900
O38   O     O_R   0.871100 0.263090 0.473800 -0.553050
O39   O     O_R   0.128900 0.736910 0.526200 -0.550899
O40   O     O_R   0.397280 0.736900 0.526180 -0.535183
O41   O     O_R   0.602720 0.263100 0.473820 -0.540601
O42   O     O_R   0.602720 0.736900 0.473820 -0.535183
O43   O     O_R   0.397280 0.263100 0.526180 -0.540602
O44   O     O_R   0.897280 0.236900 0.526180 -0.535327
O45   O     O_2   0.400975 0.594155 0.473004 -0.498115
O46   O     O_R   0.102720 0.763100 0.473820 -0.540810
O47   O     O_R   0.102720 0.236900 0.473820 -0.535326
O48   O     O_R   0.897280 0.763100 0.526180 -0.540810
O49   O     O_R   0.580290 0.763090 0.599890 -0.551126
O50   O     O_R   0.419710 0.236910 0.400110 -0.549518
O51   O     O_R   0.419710 0.763090 0.400110 -0.551126
O52   O     O_R   0.580290 0.236910 0.599890 -0.549518
O53   O     O_R   0.080290 0.263090 0.599890 -0.551156
O54   O     O_R   0.919710 0.736910 0.400110 -0.549329
O55   O     O_R   0.919710 0.263090 0.400110 -0.551158
O56   O     O_2   0.599129 0.405797 0.533217 -0.498612
O57   O     O_R   0.080290 0.736910 0.599890 -0.549328
O58   O     O_R   0.519560 0.736900 0.599880 -0.538481
O59   O     O_R   0.480440 0.263100 0.400120 -0.540335
O60   O     O_R   0.480440 0.736900 0.400120 -0.538481
O61   O     O_R   0.519560 0.263100 0.599880 -0.540335
O62   O     O_R   0.019560 0.236900 0.599880 -0.538736
O63   O     O_R   0.980440 0.763100 0.400120 -0.540572
O64   O     O_R   0.980440 0.236900 0.400120 -0.538734
O65   O     O_R   0.019560 0.763100 0.599880 -0.540572
O66   O     O_2   0.306722 0.714510 0.188521 -0.497788
O67   O     O_2   0.599024 0.594155 0.526996 -0.498115
O68   O     O_2   0.696271 0.285123 0.811543 -0.498594
O69   O     O_2   0.693274 0.714509 0.811479 -0.497789
O70   O     O_2   0.303709 0.285118 0.188457 -0.498592
O71   O     O_2   0.800076 0.216203 0.188695 -0.497050
O72   O     O_2   0.201225 0.783767 0.811460 -0.497932
O73   O     O_2   0.199966 0.216214 0.811304 -0.497045
O74   O     O_2   0.798779 0.783768 0.188540 -0.497933
O75   O     O_2   0.109306 0.716051 0.811701 -0.504800
O76   O     O_2   0.890219 0.284334 0.188457 -0.503480
O77   O     O_2   0.890689 0.716050 0.188298 -0.504801
O78   O     O_2   0.400871 0.405797 0.466783 -0.498612
O79   O     O_2   0.109740 0.284324 0.811543 -0.503477
O80   O     O_2   0.615033 0.214900 0.811795 -0.505047
O81   O     O_2   0.382694 0.785811 0.188288 -0.503767
O82   O     O_2   0.384984 0.214904 0.188205 -0.505046
O83   O     O_2   0.617311 0.785812 0.811711 -0.503767
O84   O     O_2   0.900976 0.094155 0.473008 -0.498175
Zn1   Zn    Zn3+2 0.524680 0.731290 0.462590 0.940788
Zn2   Zn    Zn3+2 0.437910 0.231300 0.462580 0.933630
Zn3   Zn    Zn3+2 0.437910 0.768700 0.462580 0.925532
Zn4   Zn    Zn3+2 0.562090 0.231300 0.537420 0.933629
Zn5   Zn    Zn3+2 0.062090 0.268700 0.537420 0.925535
Zn6   Zn    Zn3+2 0.937910 0.731300 0.462580 0.933745
Zn7   Zn    Zn3+2 0.937910 0.268700 0.462580 0.925536
Zn8   Zn    Zn3+2 0.062090 0.731300 0.537420 0.933744
Zn9   Zn    Zn3+2 0.475320 0.268710 0.537410 0.933833
Zn10  Zn    Zn3+2 0.475320 0.731290 0.537410 0.940788
Zn11  Zn    Zn3+2 0.524680 0.268710 0.462590 0.933833
Zn12  Zn    Zn3+2 0.024680 0.231290 0.462590 0.940439
Zn13  Zn    Zn3+2 0.975320 0.768710 0.537410 0.933476
Zn14  Zn    Zn3+2 0.975320 0.231290 0.537410 0.940437
Zn15  Zn    Zn3+2 0.024680 0.768710 0.462590 0.933477
Zn16  Zn    Zn3+2 0.562090 0.768700 0.537420 0.925533

loop_
_geom_bond_atom_site_label_1
_geom_bond_atom_site_label_2
_ccdc_geom_bond_type
O22   Zn1   S    
C322  C324  S    
C334  O19   A    
C205  C220  A    
C255  N15   A    
C98   H129  S    
C129  C185  S    
C311  C368  A    
C138  H168  S    
C32   C45   A    
C194  C230  A    
C30   C45   A    
C146  C343  A    
C336  H120  S    
C397  H60   S    
C140  H170  S    
C313  H143  S    
C205  H197  S    
C278  H12   S    
C19   N16   A    
C149  H179  S    
C194  N5    A    
C308  C358  A    
O20   Zn5   S    
C276  H10   S    
C170  C178  A    
C365  C396  A    
C218  C259  A    
C327  H104  S    
C328  H103  S    
C244  H5    S    
C159  O58   A    
O58   Zn10  S    
C255  C290  A    
C249  N9    A    
C52   C61   A    
C326  H97   S    
C21   N3    A    
C240  H207  S    
O23   Zn12  S    
C288  C347  A    
C54   C63   A    
C215  H181  S    
C206  C221  A    
C257  C337  A    
C184  C193  A    
C87   C94   A    
C7    C397  A    
C291  N15   A    
C124  C382  A    
O54   Zn6   S    
C136  H166  S    
C89   C94   A    
C170  C322  S    
C79   C390  A    
O53   Zn5   S    
C200  C237  A    
C112  O15   A    
C131  C140  A    
C134  C143  A    
C5    H49   S    
C263  C270  A    
C386  O24   A    
C302  C351  A    
C359  C376  A    
C238  C247  A    
C222  N7    S    
C106  C151  A    
C25   C60   A    
C147  C155  A    
C157  C246  A    
O39   Zn8   S    
C201  C349  A    
C246  C251  A    
C119  C128  A    
C190  C380  A    
C57   N10   S    
C88   C95   A    
C165  O55   A    
O15   Zn4   S    
C209  C222  A    
C108  H148  S    
C17   C52   A    
C314  H154  S    
C12   C337  A    
C251  O70   S    
C227  C233  A    
C387  O27   A    
C87   C91   A    
O44   Zn14  S    
C232  C241  A    
C35   C346  A    
C71   C183  S    
C297  H34   S    
C255  O74   S    
C127  C136  A    
C65   C99   A    
C76   C177  S    
C36   C80   A    
C25   O4    S    
C305  H27   S    
C325  H99   S    
O23   Zn7   S    
C360  C377  A    
C216  H186  S    
C4    C394  A    
C298  H38   S    
C47   N4    S    
C120  C129  A    
C321  H84   S    
C142  C151  A    
C168  C257  A    
C105  C150  A    
C108  C118  A    
C51   C92   A    
C21   C56   A    
C142  H172  S    
C267  C272  A    
C4    H48   S    
C154  H140  S    
C38   H71   S    
C309  H1    S    
O1    Zn3   S    
C237  C245  A    
C306  H26   S    
C10   C323  A    
C158  H144  S    
C86   C99   A    
C294  C303  A    
C144  H174  S    
C361  C392  A    
C251  N11   A    
C165  C354  S    
C173  C182  A    
C264  C271  A    
C106  H146  S    
C29   C44   A    
C198  C234  A    
C33   C47   A    
C242  C278  A    
C17   N16   A    
C284  C342  A    
C215  C258  A    
C26   H13   S    
C320  H88   S    
C333  C336  S    
C208  C217  A    
C248  O66   S    
C28   C43   A    
C250  N10   A    
C69   H126  S    
C319  H80   S    
C7    C343  A    
C31   H68   S    
C305  C354  A    
C195  N6    A    
O43   Zn9   S    
C22   C58   A    
C170  C193  A    
C88   C102  A    
C199  N8    A    
C269  C273  A    
C167  C191  A    
C37   C78   A    
O50   Zn2   S    
C199  O10   S    
C266  C280  A    
O64   Zn12  S    
C229  C236  A    
C164  O54   A    
C24   H196  S    
C303  H33   S    
C226  C230  A    
C223  C259  S    
C126  C193  S    
C75   O37   A    
C49   C53   A    
C104  H135  S    
C207  C216  A    
C76   O44   A    
C171  C192  A    
C84   C93   A    
C157  C383  A    
C285  N10   A    
C288  N13   A    
C163  C356  S    
C295  H41   S    
C48   C52   A    
O23   Zn14  S    
C88   C89   A    
C126  C134  A    
C166  O57   A    
C291  O77   S    
C309  C346  A    
C337  H21   S    
C367  C376  A    
C15   C339  A    
C35   N1    S    
C135  C381  A    
C72   O33   A    
C194  O5    S    
C394  H56   S    
C75   O48   A    
C227  C231  A    
C10   H63   S    
C61   H79   S    
C245  H6    S    
C360  C391  A    
C3    H47   S    
C213  C258  A    
C315  C355  A    
C169  C189  A    
C121  C130  A    
C212  C248  A    
C243  C277  A    
C304  C353  A    
O34   Zn15  S    
O47   Zn12  S    
O23   Zn5   S    
C333  H122  S    
C165  O64   A    
C23   C59   A    
O48   Zn13  S    
C173  C185  A    
C133  C142  A    
C74   O47   A    
C73   O35   A    
C33   C42   A    
C200  N7    A    
C265  C272  A    
C247  H7    S    
C168  C345  A    
C280  H14   S    
C265  C278  A    
C400  H45   S    
C14   C338  A    
C266  C273  A    
C82   C388  S    
C318  H83   S    
C386  O26   A    
C312  H18   S    
C25   N4    A    
C2    C90   A    
O65   Zn13  S    
C307  H29   S    
C30   H57   S    
C363  C369  A    
C265  C269  A    
C110  C155  A    
C324  H92   S    
C59   C67   A    
C31   C40   A    
C360  C372  A    
C172  C181  A    
C196  C232  A    
C132  H162  S    
C29   C38   A    
C8    C373  A    
C32   C41   A    
C302  H30   S    
C292  H40   S    
C68   N11   S    
C149  C158  A    
C392  H54   S    
O17   Zn2   S    
C288  O75   S    
C1    C256  S    
C298  C307  A    
C289  O79   S    
C347  C398  A    
C179  C268  A    
C262  C271  A    
C71   O43   A    
O27   Zn12  S    
C362  C374  A    
C319  H78   S    
C203  C211  A    
C230  C239  A    
C181  C189  A    
O30   Zn15  S    
C63   C102  A    
C169  C177  A    
C85   C92   A    
C141  C150  A    
C162  O52   A    
O25   Zn10  S    
C291  C349  A    
C119  H158  S    
C6    C396  A    
C16   H69   S    
C332  H115  S    
C105  H145  S    
C139  C148  A    
C33   H46   S    
C135  C342  A    
C22   N4    A    
C108  C153  A    
C214  C256  A    
C159  C352  S    
C121  H160  S    
C40   C82   A    
C385  O25   A    
C340  H25   S    
C396  H59   S    
C315  H165  S    
O42   Zn1   S    
C197  C233  A    
C261  C274  A    
C103  H134  S    
C146  C384  A    
C101  N14   S    
C345  C399  A    
C50   C56   A    
C210  C219  A    
C231  C240  A    
C252  N12   A    
C221  N6    S    
C260  C334  S    
C24   C317  A    
C86   C93   A    
C286  N11   A    
C313  C379  A    
C287  N12   A    
C22   O2    S    
C313  C353  A    
C83   C86   A    
C254  N14   A    
C264  C277  A    
C20   N2    A    
O60   Zn1   S    
C171  C325  S    
C166  O65   A    
C317  H187  S    
C253  O72   S    
C110  H150  S    
C219  H185  S    
C145  C154  A    
C224  C249  A    
C19   C54   A    
C70   C184  S    
C46   C293  A    
C78   C385  S    
C379  H192  S    
C77   C176  S    
C116  C125  A    
C195  O6    S    
C2    H194  S    
C57   C368  A    
C326  H95   S    
O59   Zn11  S    
C212  C301  A    
C19   O67   S    
C122  C131  A    
C113  N15   S    
O34   Zn13  S    
C87   C100  A    
C117  C126  A    
C132  C141  A    
C8    C301  A    
C133  H163  S    
C15   H67   S    
C364  C395  A    
C134  H164  S    
C208  H205  S    
O62   Zn14  S    
C310  H112  S    
C39   H76   S    
C105  C115  A    
C111  H151  S    
C287  O76   S    
C202  C238  A    
C320  H87   S    
O26   Zn11  S    
C32   H35   S    
C262  C263  A    
C283  O81   S    
C320  C321  S    
C148  C156  A    
C364  C367  A    
C240  C281  A    
C66   C98   A    
C363  C394  A    
C317  C358  A    
C359  C389  A    
O34   Zn6   S    
O57   Zn8   S    
C3    C348  A    
C28   C37   A    
C83   C96   A    
C152  H138  S    
C30   C39   A    
C223  O20   A    
C80   C386  S    
C365  C371  A    
C100  H131  S    
C91   C95   A    
C329  H110  S    
C225  N8    S    
C227  C272  A    
C173  C329  S    
C118  C127  A    
C362  C380  A    
C244  C276  A    
C2    C315  A    
C219  C260  A    
C235  C250  A    
C364  C382  A    
C13   C101  A    
C248  N1    A    
C327  H105  S    
O18   Zn7   S    
C131  C187  S    
C71   O32   A    
C206  C215  A    
C23   N3    A    
C331  H117  S    
C201  C290  A    
C137  H167  S    
C42   H75   S    
O12   Zn9   S    
C310  C357  A    
C300  H31   S    
C16   C340  A    
C204  H201  S    
C183  C192  A    
C77   O39   A    
C330  H107  S    
O35   Zn4   S    
C176  C185  A    
C319  H81   S    
C314  C390  A    
C228  C237  A    
C262  C275  A    
C11   C335  A    
C203  C220  A    
C128  C186  S    
C84   C97   A    
C137  C145  A    
O33   Zn3   S    
O24   Zn9   S    
C123  C132  A    
C325  H98   S    
C296  C305  A    
C293  H39   S    
C68   C295  A    
O12   Zn2   S    
C253  N13   A    
C64   H113  S    
O1    Zn16  S    
C164  O63   A    
C12   C369  A    
C399  H44   S    
C333  H121  S    
C332  H111  S    
C301  H17   S    
C114  C158  A    
C57   C294  A    
C180  C188  A    
C18   C53   A    
C330  H106  S    
O41   Zn11  S    
C9    C372  A    
C44   N2    S    
O49   Zn16  S    
C365  C383  A    
C393  H55   S    
C314  C354  A    
C36   H73   S    
C281  H15   S    
C282  H16   S    
O55   Zn7   S    
C346  H189  S    
C17   O45   S    
C373  C382  A    
C284  N9    A    
C50   C59   A    
C375  C384  A    
C391  C399  A    
C113  C299  A    
C31   C47   A    
C322  H94   S    
C166  C355  S    
C241  C280  A    
C207  H204  S    
C359  C373  A    
C336  H119  S    
C109  H149  S    
O38   Zn7   S    
C274  H8    S    
C130  C139  A    
O28   Zn13  S    
C253  C268  A    
C8    H61   S    
C239  C282  A    
C125  C189  S    
C190  C279  A    
C67   H125  S    
C14   C367  A    
C115  C123  A    
C1    O14   A    
C363  C381  A    
C172  C327  S    
C164  C358  S    
C289  C348  A    
C9    C312  A    
C18   O56   S    
C362  C393  A    
C289  N14   A    
C145  H175  S    
C179  C347  A    
C294  H42   S    
C339  H23   S    
C395  H58   S    
C250  O69   S    
C106  C116  A    
C190  C348  A    
C206  H199  S    
C223  O18   A    
C331  C332  S    
C114  H152  S    
C62   H90   S    
C79   C296  A    
C261  C264  A    
C229  C270  A    
C146  C235  A    
C76   O38   A    
C41   C81   A    
C61   C104  A    
C235  C323  A    
C41   H74   S    
C306  C355  A    
C79   N12   S    
C13   C316  A    
C70   O31   A    
C84   C85   A    
C211  H182  S    
O19   Zn8   S    
C198  O9    S    
C310  C351  A    
C3    C393  A    
C178  C187  A    
C321  H86   S    
C202  N8    A    
C143  C152  A    
C249  O68   S    
C372  C381  A    
C151  H137  S    
O12   Zn11  S    
C275  H9    S    
C269  C282  A    
C292  C300  A    
C43   N16   S    
C123  C191  S    
C203  H200  S    
C162  C351  S    
C109  C119  A    
C252  O71   S    
O40   Zn10  S    
O46   Zn15  S    
C13   H195  S    
C10   C375  A    
C70   O42   A    
C116  H155  S    
C214  H180  S    
C311  C352  A    
C316  C356  A    
C387  O29   A    
C174  C183  A    
C122  H161  S    
C335  H20   S    
C370  C378  A    
C27   C36   A    
C124  C212  A    
O12   Zn4   S    
C120  H159  S    
C321  H85   S    
C246  C335  A    
C101  C298  A    
C136  C144  A    
C199  C236  A    
O16   Zn16  S    
C332  H114  S    
C389  H52   S    
C68   C379  A    
C148  H178  S    
C361  C378  A    
C130  C188  S    
C196  O7    S    
C325  C326  S    
C285  C343  A    
C202  O13   S    
C300  C350  A    
C324  H89   S    
C67   C97   A    
C23   O3    S    
C64   C100  A    
C369  C377  A    
C331  H116  S    
C392  C400  A    
C11   H64   S    
O21   Zn6   S    
C73   O41   A    
C29   H2    S    
C167  C318  S    
O61   Zn9   S    
C252  C257  A    
C18   N2    A    
C90   N13   S    
C229  C238  A    
C163  O62   A    
C7    H51   S    
O29   Zn14  S    
C107  C117  A    
C254  O73   S    
C34   C78   A    
O52   Zn4   S    
C368  H191  S    
C366  C384  A    
C175  C184  A    
C304  H32   S    
C65   H123  S    
O14   Zn3   S    
C241  H208  S    
C48   C95   A    
C111  C121  A    
C329  C330  S    
C328  H100  S    
C42   C82   A    
C1    O16   A    
C91   C104  A    
C69   C96   A    
C308  H28   S    
C66   H124  S    
C162  O61   A    
C48   C54   A    
C135  C224  A    
C389  C398  A    
C217  C260  A    
C279  C339  A    
C141  H171  S    
C209  C218  A    
C60   C69   A    
C74   O36   A    
C163  O53   A    
C391  H53   S    
C124  C341  A    
C20   O78   S    
C15   C371  A    
C299  C308  A    
C153  H139  S    
C357  H190  S    
C267  C281  A    
C102  H133  S    
C328  H102  S    
C56   C65   A    
C46   N9    S    
C284  O80   S    
C37   H70   S    
C6    H50   S    
C73   C181  S    
C196  N5    A    
C283  C341  A    
C201  C378  A    
C254  C279  A    
C144  C153  A    
C75   C178  S    
C198  N7    A    
C283  N1    A    
C85   C98   A    
C169  C320  S    
C174  C188  A    
C161  O60   A    
C243  H4    S    
C58   C66   A    
C129  C138  A    
C172  C186  A    
C72   O40   A    
C16   C370  A    
C242  H3    S    
O34   Zn8   S    
C303  C352  A    
C159  O49   A    
C97   H128  S    
O63   Zn15  S    
C49   C94   A    
C388  O28   A    
C398  H43   S    
C111  C156  A    
C366  C370  A    
C228  C234  A    
C40   H77   S    
C115  H153  S    
C112  C258  S    
O51   Zn3   S    
C24   C113  A    
C177  C186  A    
C296  H36   S    
C388  O30   A    
C168  C377  A    
C286  O82   S    
C326  H96   S    
C220  N5    S    
C224  C312  A    
C20   C55   A    
C209  H202  S    
C27   C44   A    
C156  H142  S    
C161  O51   A    
C26   C34   A    
O36   Zn5   S    
C211  C256  A    
C277  H11   S    
C334  O21   A    
C150  H136  S    
C200  O11   S    
C210  H203  S    
C268  C338  A    
C385  O22   A    
C311  H132  S    
C217  H188  S    
C336  H118  S    
C160  C353  S    
C39   C81   A    
C45   N3    S    
C110  C120  A    
C51   C58   A    
C14   H66   S    
C157  C344  A    
C287  C345  A    
C318  H82   S    
C11   C374  A    
C175  C187  A    
C204  C213  A    
C299  H37   S    
C96   H127  S    
C239  H206  S    
C366  C397  A    
C128  C137  A    
C160  O59   A    
C318  C319  S    
C109  C154  A    
C324  H91   S    
C208  C225  A    
C160  O50   A    
C53   C62   A    
C233  C242  A    
C197  O8    S    
C35   C292  A    
C117  H156  S    
C138  C147  A    
C49   C55   A    
C55   C64   A    
C195  C231  A    
C390  H193  S    
C247  C274  A    
C261  C270  A    
C349  C400  A    
C139  H169  S    
C329  H109  S    
C107  C152  A    
C90   C297  A    
C26   C43   A    
C226  C273  A    
C12   H65   S    
C147  H177  S    
C9    H62   S    
C28   H198  S    
C112  O17   A    
C210  C225  A    
C171  C180  A    
C81   C387  S    
C4    C342  A    
C374  C383  A    
C286  C344  A    
C226  C232  A    
C297  C306  A    
C6    C344  A    
C62   C103  A    
C338  H22   S    
C125  C133  A    
C307  C356  A    
C174  C331  S    
C371  C380  A    
C309  C350  A    
C361  C375  A    
C218  H184  S    
C228  C271  A    
C205  C214  A    
C330  H108  S    
C50   C93   A    
O31   Zn16  S    
C51   C60   A    
C155  H141  S    
C234  C243  A    
C127  C192  S    
C216  C259  A    
C316  H176  S    
C27   H24   S    
C245  C275  A    
C5    C341  A    
O1    Zn10  S    
C236  C244  A    
C179  C376  A    
C72   C182  S    
C322  H93   S    
C197  N6    A    
C161  C350  S    
C327  C328  S    
O32   Zn2   S    
C213  H183  S    
C38   C80   A    
C140  C149  A    
C99   H130  S    
C107  H147  S    
C5    C395  A    
C21   O84   S    
C143  H173  S    
C63   H101  S    
C46   C357  A    
C266  C267  A    
C175  C333  S    
C114  C122  A    
C323  H19   S    
C74   C180  S    
C207  C222  A    
C83   C92   A    
C263  C276  A    
C182  C191  A    
O1    Zn1   S    
C295  C304  A    
C77   O46   A    
C34   H72   S    
C293  C302  A    
C285  O83   S    
O37   Zn6   S    
C290  C340  A    
C89   C103  A    
C118  H157  S    
C167  C176  A    
C204  C221  A    
