data_mof_unit_29270.cif
_audit_creation_date              2012-12-11T14:14:01-0500
_audit_creation_method            fapswitch 2.2
_symmetry_space_group_name_H-M    P1
_symmetry_Int_Tables_number       1
_space_group_crystal_system       triclinic
_cell_length_a                    17.012637
_cell_length_b                    7.24618
_cell_length_c                    17.015222
_cell_angle_alpha                 89.877514
_cell_angle_beta                  99.197635
_cell_angle_gamma                 90.102934
_cell_volume                      2070.60338417

loop_
_atom_site_label
_atom_site_type_symbol
_atom_type_description
_atom_site_fract_x
_atom_site_fract_y
_atom_site_fract_z
_atom_type_partial_charge
O1    O     O_R   0.414560 0.494370 0.416770 -0.546709
O2    O     O_R   0.585440 0.994370 0.583230 -0.546735
O3    O     O_R   0.578370 0.819590 0.429320 -0.541194
O4    O     O_R   0.421630 0.319590 0.570680 -0.541328
C1    C     C_R   0.604891 0.655252 0.414247 0.717118
C2    C     C_R   0.394549 0.154776 0.585025 0.720043
O5    O     O_R   0.414740 0.823790 0.407360 -0.521138
O6    O     O_R   0.585260 0.323790 0.592640 -0.520165
O7    O     O_R   0.420650 0.998510 0.561120 -0.531403
O8    O     O_R   0.579350 0.498510 0.438880 -0.532118
C3    C     C_R   0.385970 0.655981 0.387799 0.706233
C4    C     C_R   0.613904 0.155906 0.612391 0.703402
O9    O     O_3   0.502130 0.662240 0.550470 -0.374621
O10   O     O_3   0.497870 0.162240 0.449530 -0.375433
V1    V     V_3+5 0.499600 0.935390 0.490640 1.524178
V2    V     V_3+5 0.500400 0.435390 0.509360 1.525182
C5    C     C_2   0.784275 0.263265 0.786305 0.317621
C6    C     C_2   0.215527 0.762899 0.213966 0.305474
C7    C     C_2   0.808899 0.111047 0.830991 -0.175236
C8    C     C_2   0.190836 0.610573 0.169512 -0.176752
C9    C     C_2   0.705684 0.268774 0.731040 0.290291
C10   C     C_2   0.294056 0.768835 0.269281 0.291250
C11   C     C_2   0.689580 0.147292 0.670107 0.202927
C12   C     C_2   0.310051 0.647679 0.330511 0.202987
C13   C     C_R   0.328345 0.139848 0.631961 -0.189871
C14   C     C_R   0.670954 0.642718 0.367030 -0.189172
C15   C     C_R   0.166667 0.126181 0.861851 -0.203219
C16   C     C_R   0.832763 0.622862 0.137296 -0.196557
C17   C     C_R   0.296069 0.248659 0.839776 -0.025146
C18   C     C_R   0.696038 0.703362 0.152982 -0.021786
C19   C     C_R   0.239174 0.217232 0.890975 -0.073791
C20   C     C_R   0.754523 0.674658 0.103236 -0.091872
C21   C     C_R   0.151475 0.064444 0.781911 -0.060880
C22   C     C_R   0.851247 0.587577 0.220057 -0.063747
C23   C     C_R   0.211519 0.080887 0.732205 0.021734
C24   C     C_R   0.790046 0.593820 0.268773 0.019564
C25   C     C_R   0.281869 0.182999 0.760146 0.012255
C26   C     C_R   0.714067 0.665565 0.236067 0.011009
C27   C     C_R   0.337669 0.215929 0.708175 -0.213168
C28   C     C_R   0.657394 0.697391 0.287205 -0.212030
C29   C     C_R   0.260589 0.029994 0.605054 0.255688
C30   C     C_R   0.743714 0.555905 0.398279 0.254580
C31   C     C_R   0.204038 0.994466 0.656082 0.392621
C32   C     C_R   0.802179 0.526818 0.348716 0.399279
H1    H     H_    0.390724 0.297163 0.727069 0.177022
H2    H     H_    0.600718 0.761278 0.265454 0.183605
O11   O     O_R   0.920750 0.773600 0.061260 -0.536442
O12   O     O_R   0.079250 0.273600 0.938740 -0.529654
O13   O     O_R   0.085340 0.439850 0.092570 -0.564477
O14   O     O_R   0.914660 0.939850 0.907430 -0.565664
C33   C     C_R   0.114164 0.607704 0.112664 0.703912
C34   C     C_R   0.885791 0.107772 0.887434 0.695345
O15   O     O_R   0.921720 0.444130 0.070790 -0.542056
O16   O     O_R   0.078280 0.944130 0.929210 -0.545916
O17   O     O_R   0.914480 0.269530 0.916840 -0.495946
O18   O     O_R   0.085520 0.769530 0.083160 -0.495822
C35   C     C_R   0.896337 0.612502 0.086335 0.644086
C36   C     C_R   0.103402 0.113115 0.913298 0.650267
O19   O     O_3   0.997840 0.601520 0.949550 -0.369385
O20   O     O_3   0.002160 0.101520 0.050450 -0.370366
V3    V     V_3+5 0.000400 0.328340 0.009360 1.502001
V4    V     V_3+5 0.999600 0.828340 0.990640 1.491480
O21   O     O_3   0.832846 0.417506 0.791391 -0.630759
H3    H     H_    0.807321 0.511260 0.753085 0.296241
O22   O     O_3   0.167173 0.917203 0.208351 -0.631627
H4    H     H_    0.192692 0.011062 0.246525 0.295303
C37   C     C_2   0.069075 0.004140 0.749412 0.529092
H5    H     H_    0.038756 0.902853 0.780805 0.039292
O23   O     O_2   0.033180 0.074109 0.688789 -0.477525
C38   C     C_2   0.936606 0.563346 0.254827 0.540970
H6    H     H_    0.974677 0.474564 0.226077 0.021241
O24   O     O_2   0.966005 0.650721 0.313565 -0.477310
C39   C     C_2   0.757493 0.943792 0.831305 0.387065
H7    H     H_    0.784518 0.808492 0.840904 0.074615
O25   O     O_2   0.685112 0.955647 0.824315 -0.491756
C40   C     C_2   0.241687 0.442310 0.170022 0.443730
H8    H     H_    0.214210 0.308092 0.157699 0.055955
O26   O     O_2   0.314277 0.452047 0.180453 -0.488346
O27   O     O_3   0.650366 0.402517 0.741338 -0.629077
H9    H     H_    0.671531 0.474681 0.789584 0.324397
O28   O     O_3   0.349590 0.902285 0.258533 -0.632097
H10   H     H_    0.328487 0.974251 0.210124 0.312258
O29   O     O_3   0.746806 0.017533 0.659909 -0.649646
H11   H     H_    0.729150 0.949082 0.609828 0.296792
O30   O     O_3   0.252615 0.518362 0.341288 -0.652564
H12   H     H_    0.270397 0.449971 0.391454 0.295586
O31   O     O_3   0.247594 0.954783 0.529350 -0.640906
H13   H     H_    0.277237 0.026304 0.493986 0.288954
O32   O     O_3   0.760033 0.497587 0.476765 -0.640309
H14   H     H_    0.723843 0.558745 0.508654 0.287832
C41   C     C_2   0.372798 0.340061 0.871379 0.476329
H15   H     H_    0.373571 0.481390 0.892344 0.111019
O33   O     O_2   0.435506 0.256369 0.874965 -0.486215
C42   C     C_2   0.616415 0.774347 0.116899 0.503190
H16   H     H_    0.612159 0.893819 0.077871 0.085200
O34   O     O_2   0.555563 0.694187 0.126837 -0.485459
O35   O     O_3   0.143358 0.867895 0.634512 -0.615588
H17   H     H_    0.148138 0.808965 0.583112 0.357638
O36   O     O_3   0.869506 0.423180 0.375538 -0.612649
H18   H     H_    0.868884 0.377419 0.430240 0.360900
C43   C     C_2   0.255350 0.271816 0.976632 0.420237
H19   H     H_    0.230380 0.191152 0.020482 0.032037
O37   O     O_2   0.294074 0.409195 0.998949 -0.517307
C44   C     C_2   0.734663 0.694285 0.014757 0.397252
H20   H     H_    0.780405 0.730427 0.979949 0.033279
O38   O     O_2   0.667851 0.662620 0.979181 -0.488619

loop_
_geom_bond_atom_site_label_1
_geom_bond_atom_site_label_2
_ccdc_geom_bond_type
C26   C28   A    
O31   H13   S    
C43   H19   S    
C1    C14   S    
C39   O25   D    
C39   H7    S    
O1    C3    A    
O2    C4    A    
O11   V4    S    
C44   O38   D    
O28   H10   S    
C16   C35   S    
C15   C21   A    
C6    O22   S    
O5    C3    A    
C4    C11   S    
C21   C37   S    
C11   O29   S    
C19   C43   S    
C10   C12   D    
C23   C25   A    
C40   O26   D    
C8    C33   S    
C32   O36   S    
C2    C13   S    
C41   O33   D    
C3    C12   S    
C8    C40   S    
C33   O18   A    
O6    V2    S    
C21   C23   A    
O15   V3    S    
C7    C34   S    
O29   H11   S    
O13   C33   A    
O14   C34   A    
C20   C44   S    
C38   H6    S    
C23   C31   A    
C12   O30   S    
C22   C38   S    
C22   C24   A    
C34   O17   A    
C27   H1    S    
O5    V1    S    
C16   C22   A    
C43   O37   D    
C29   C31   A    
C30   C32   A    
C2    O7    A    
C44   H20   S    
O35   H17   S    
C29   O31   S    
O13   V3    S    
C15   C19   A    
C37   H5    S    
C10   O28   S    
C7    C39   S    
C40   H8    S    
O4    C2    A    
C13   C29   A    
C41   H15   S    
O15   C35   A    
O16   V4    S    
O30   H12   S    
C5    C9    S    
O21   H3    S    
O20   V3    S    
C37   O23   D    
O4    V2    S    
C28   H2    S    
O11   C35   A    
O36   H18   S    
C16   C20   A    
O6    C4    A    
C9    O27   S    
O1    V2    S    
C42   O34   D    
O2    V1    S    
C9    C11   D    
O14   V4    S    
O18   V4    S    
C24   C32   A    
C17   C41   S    
O3    V1    S    
C14   C30   A    
O16   C36   A    
O19   V4    S    
C6    C10   S    
C31   O35   S    
O3    C1    A    
C15   C36   S    
O12   C36   A    
C30   O32   S    
C24   C26   A    
O7    V1    S    
C1    O8    A    
C17   C19   A    
O8    V2    S    
C13   C27   A    
C18   C20   A    
C14   C28   A    
O12   V3    S    
O17   V3    S    
C5    C7    D    
C6    C8    D    
C42   H16   S    
O27   H9    S    
C25   C27   A    
C18   C42   S    
O22   H4    S    
O9    V2    S    
C17   C25   A    
O10   V1    S    
C38   O24   D    
C18   C26   A    
O32   H14   S    
C5    O21   S    
