data_mof_unit_15461.cif
_audit_creation_date              2012-12-11T14:03:28-0500
_audit_creation_method            fapswitch 2.2
_symmetry_space_group_name_H-M    P1
_symmetry_Int_Tables_number       1
_space_group_crystal_system       triclinic
_cell_length_a                    7.099068
_cell_length_b                    11.59337
_cell_length_c                    18.59175
_cell_angle_alpha                 90.234547
_cell_angle_beta                  92.626374
_cell_angle_gamma                 90.185934
_cell_volume                      1528.51135814

loop_
_atom_site_label
_atom_site_type_symbol
_atom_type_description
_atom_site_fract_x
_atom_site_fract_y
_atom_site_fract_z
_atom_type_partial_charge
O1    O     O_R   0.330540 0.606360 0.598870 -0.481027
O2    O     O_R   0.669460 0.106360 0.401130 -0.483991
O3    O     O_R   0.026770 0.620470 0.750430 -0.510850
O4    O     O_R   0.973230 0.120470 0.249570 -0.526468
O5    O     O_R   0.856460 0.393640 0.750930 -0.554427
O6    O     O_R   0.143540 0.893640 0.249070 -0.538560
C1    C     C_R   0.198459 0.640854 0.777771 0.645149
C2    C     C_R   0.802381 0.139697 0.221796 0.693709
O7    O     O_R   0.000920 0.620350 0.599420 -0.522765
O8    O     O_R   0.999080 0.120350 0.400580 -0.524497
O9    O     O_R   0.830430 0.393520 0.598850 -0.571061
O10   O     O_R   0.169570 0.893520 0.401150 -0.571158
C3    C     C_R   0.168707 0.649589 0.576132 0.851234
C4    C     C_R   0.831562 0.149831 0.423801 0.844347
O11   O     O_R   0.356570 0.606480 0.750960 -0.523068
O12   O     O_R   0.643430 0.106480 0.249040 -0.530695
O13   O     O_3   0.176990 0.425580 0.674890 -0.413985
O14   O     O_3   0.823010 0.925580 0.325110 -0.391211
V1    V     V_3+5 0.902170 0.513810 0.674910 1.651642
V2    V     V_3+5 0.097830 0.013810 0.325090 1.652983
O15   O     O_R   0.500800 0.379530 0.599380 -0.509786
O16   O     O_R   0.499200 0.879530 0.400620 -0.510217
C5    C     C_R   0.666037 0.358055 0.572268 0.669300
C6    C     C_R   0.333819 0.857981 0.427653 0.662134
O17   O     O_R   0.526650 0.379650 0.750390 -0.558840
O18   O     O_R   0.473350 0.879650 0.249610 -0.533546
C7    C     C_R   0.698099 0.352570 0.773370 0.724089
C8    C     C_R   0.301892 0.849820 0.227640 0.688032
V3    V     V_3+5 0.402160 0.486190 0.674900 1.655540
V4    V     V_3+5 0.597840 0.986190 0.325100 1.696318
O19   O     O_3   0.677210 0.574420 0.674910 -0.311019
O20   O     O_3   0.322790 0.074420 0.325090 -0.324709
C9    C     C_R   0.740311 0.063644 0.859823 0.461123
C10   C     C_R   0.286127 0.558417 0.138694 0.454098
H1    H     H_    0.766984 0.134555 0.753227 0.142400
H2    H     H_    0.264634 0.626679 0.246811 0.145958
C11   C     C_R   0.715299 0.265142 0.828739 -0.119309
C12   C     C_R   0.289204 0.760486 0.171820 -0.083039
C13   C     C_R   0.814059 0.332772 0.171302 0.114669
C14   C     C_R   0.239645 0.832855 0.828899 0.109441
C15   C     C_R   0.803858 0.411836 0.115571 -0.005668
C16   C     C_R   0.283653 0.909156 0.884566 -0.009152
C17   C     C_R   0.774352 0.373828 0.044951 0.032584
C18   C     C_R   0.313554 0.868351 0.954198 0.046381
C19   C     C_R   0.756035 0.253900 0.027640 0.236664
C20   C     C_R   0.283486 0.749785 0.971981 0.218832
C21   C     C_R   0.756079 0.174077 0.084814 -0.041399
C22   C     C_R   0.230298 0.673234 0.915291 0.004466
C23   C     C_R   0.728855 0.213669 0.954843 0.042441
C24   C     C_R   0.294979 0.708557 0.044743 0.010527
C25   C     C_R   0.738450 0.092811 0.936541 -0.211847
C26   C     C_R   0.274404 0.587571 0.061956 -0.165569
C27   C     C_R   0.743756 0.014352 0.996021 0.397098
C28   C     C_R   0.219887 0.511317 0.002626 0.383884
C29   C     C_R   0.724369 0.056917 0.067097 -0.145930
C30   C     C_R   0.180034 0.559418 0.933222 -0.185637
C31   C     C_R   0.692745 0.294043 0.899478 -0.062595
C32   C     C_R   0.313634 0.789522 0.101398 -0.036768
C33   C     C_R   0.752067 0.153097 0.809985 -0.233384
C34   C     C_R   0.271416 0.646598 0.189973 -0.257522
C35   C     C_R   0.787594 0.215110 0.157857 -0.033798
C36   C     C_R   0.217154 0.715735 0.842282 -0.008784
H3    H     H_    0.649239 0.381133 0.910043 0.157294
H4    H     H_    0.314537 0.880111 0.092046 0.103148
H5    H     H_    0.834540 0.364070 0.226060 0.137089
H6    H     H_    0.229461 0.864736 0.774240 0.155884
H7    H     H_    0.778448 0.440382 0.004892 0.121686
H8    H     H_    0.361345 0.933391 0.992092 0.064926
H9    H     H_    0.821750 0.502986 0.127008 0.106016
H10   H     H_    0.303352 0.999867 0.873263 0.105538
C37   C     C_2   0.823927 0.233144 0.484706 -0.453004
C38   C     C_2   0.176453 0.732664 0.515287 -0.454883
H11   H     H_    0.953447 0.242881 0.517634 0.149508
H12   H     H_    0.046357 0.742658 0.482862 0.150907
C39   C     C_2   0.665119 0.289497 0.504699 0.284437
C40   C     C_2   0.335250 0.789065 0.494943 0.284303
S1    S     S_3+6 0.453524 0.296017 0.449425 0.027891
O21   O     O_2   0.497394 0.303535 0.371225 -0.301769
O22   O     O_2   0.340864 0.188920 0.462473 -0.341445
O23   O     O_3   0.324796 0.412053 0.470354 -0.512529
H13   H     H_    0.203534 0.402330 0.442414 0.337034
S2    S     S_3+6 0.548731 0.794362 0.549339 0.032187
O24   O     O_2   0.507184 0.802719 0.627747 -0.298612
O25   O     O_2   0.657783 0.686330 0.535617 -0.338741
O26   O     O_3   0.680551 0.909285 0.528357 -0.513566
H14   H     H_    0.801307 0.899463 0.556493 0.337638
S3    S     S_3+6 0.822969 0.870100 0.991483 0.028307
O27   O     O_2   0.666126 0.784044 0.992597 -0.331868
O28   O     O_2   0.932464 0.849764 0.926587 -0.302018
O29   O     O_3   0.963127 0.846210 0.064040 -0.512926
H15   H     H_    0.931444 0.767118 0.079775 0.369127
S4    S     S_3+6 0.210941 0.356396 0.006833 -0.041052
O30   O     O_2   0.407461 0.317384 0.003597 -0.359876
O31   O     O_2   0.133271 0.309880 0.074095 -0.303003
O32   O     O_3   0.098136 0.289990 0.937058 -0.557042
H16   H     H_    0.141624 0.208853 0.938947 0.353788
S5    S     S_3+6 0.694124 0.932352 0.810355 0.046236
O33   O     O_2   0.635820 0.828554 0.851468 -0.251265
O34   O     O_2   0.539558 0.957667 0.754682 -0.363276
O35   O     O_3   0.885838 0.898157 0.765408 -0.496321
H17   H     H_    0.867003 0.932914 0.717041 0.343544
S6    S     S_3+6 0.358960 0.430474 0.185460 0.051591
O36   O     O_2   0.434528 0.335964 0.140879 -0.263941
O37   O     O_2   0.512433 0.464550 0.239997 -0.355696
O38   O     O_3   0.180794 0.377466 0.231525 -0.488553
H18   H     H_    0.182226 0.421815 0.277199 0.340212
C41   C     C_2   0.630181 0.984937 0.119331 0.429131
H19   H     H_    0.498866 0.016219 0.139486 0.036763
O39   O     O_2   0.700563 0.897045 0.143865 -0.494645
C42   C     C_2   0.045208 0.500503 0.883883 0.473301
H20   H     H_    0.093919 0.434484 0.847899 0.082004
O40   O     O_2   0.881467 0.532451 0.879914 -0.516221

loop_
_geom_bond_atom_site_label_1
_geom_bond_atom_site_label_2
_ccdc_geom_bond_type
V4    O20   S    
S3    O27   D    
C13   H5    S    
C4    C37   S    
O32   H16   S    
C38   C40   D    
V1    O19   S    
S5    O33   D    
C23   C31   A    
C13   C15   A    
S1    O21   D    
O9    V1    S    
C10   S6    S    
C15   H9    S    
O3    C1    A    
O12   V4    S    
C16   H10   S    
C14   C36   A    
S6    O38   S    
H1    C33   S    
C2    O12   A    
C19   C21   A    
C30   C42   S    
O7    C3    A    
C42   H20   S    
S4    O30   D    
O5    C7    A    
O7    V1    S    
O6    C8    A    
C18   C20   A    
C23   C25   A    
C24   C26   A    
C41   H19   S    
O3    V1    S    
O14   V4    S    
C19   C23   A    
C9    S5    S    
O4    C2    A    
C2    C35   S    
C14   C16   A    
C9    C33   A    
C12   C32   A    
C10   C34   A    
C15   C17   A    
C16   C18   A    
O1    V3    S    
S5    O34   D    
C26   C28   A    
O11   V3    S    
C20   C22   A    
C27   C29   A    
O17   V3    S    
C13   C35   A    
C28   C30   A    
C24   C32   A    
C38   H12   S    
O8    C4    A    
C40   S2    S    
C37   H11   S    
C6    C40   S    
C1    O11   A    
C32   H4    S    
O26   H14   S    
O15   V3    S    
S4    O32   S    
C9    C25   A    
C29   C41   S    
C25   C27   A    
C1    C36   S    
C28   S4    S    
C39   S1    S    
C22   C36   A    
C8    C12   S    
O10   V2    S    
S4    O31   D    
S1    O22   D    
C27   S3    S    
S6    O37   D    
C17   C19   A    
C11   C33   A    
C12   C34   A    
O18   V4    S    
S2    O25   D    
O15   C5    A    
O16   C6    A    
C18   H8    S    
O1    C3    A    
S5    O35   S    
C21   C29   A    
V2    O20   S    
S1    O23   S    
C22   C30   A    
O10   C6    A    
O16   V4    S    
O18   C8    A    
C31   H3    S    
C5    C39   S    
O23   H13   S    
H2    C34   S    
C21   C35   A    
O5    V1    S    
C3    C38   S    
O17   C7    A    
S2    O26   S    
O6    V2    S    
O38   H18   S    
C20   C24   A    
C10   C26   A    
O2    V4    S    
S3    O28   D    
V3    O19   S    
O13   V3    S    
C37   C39   D    
O29   H15   S    
C41   O39   D    
O8    V2    S    
C7    C11   S    
O9    C5    A    
O35   H17   S    
O13   V1    S    
O14   V2    S    
S6    O36   D    
O2    C4    A    
C42   O40   D    
O4    V2    S    
C17   H7    S    
S2    O24   D    
S3    O29   S    
C14   H6    S    
C11   C31   A    
