data_mof_unit_42963.cif
_audit_creation_date              2012-12-11T18:09:17-0500
_audit_creation_method            fapswitch 2.2
_symmetry_space_group_name_H-M    P1
_symmetry_Int_Tables_number       1
_space_group_crystal_system       triclinic
_cell_length_a                    8.209314
_cell_length_b                    12.701115
_cell_length_c                    19.091599
_cell_angle_alpha                 99.542457
_cell_angle_beta                  91.694314
_cell_angle_gamma                 98.565998
_cell_volume                      1938.18223901

loop_
_atom_site_label
_atom_site_type_symbol
_atom_type_description
_atom_site_fract_x
_atom_site_fract_y
_atom_site_fract_z
_atom_type_partial_charge
Ba1   Ba    Ba6+2 0.853180 0.547790 0.465300 1.660980
Ba2   Ba    Ba6+2 0.336650 0.452300 0.534710 1.659154
C1    C     C_3   0.518375 0.890007 0.254702 -0.342750
C2    C     C_R   0.017367 0.543801 0.726820 0.058930
C3    C     C_R   0.854267 0.407633 0.810114 -0.169519
C4    C     C_3   0.107484 0.751308 0.269910 0.377965
C5    C     C_R   0.782858 0.416891 0.744526 0.007177
C6    C     C_R   0.344090 0.578730 0.185640 -0.165338
C7    C     C_R   0.413952 0.571765 0.252005 0.017775
C8    C     C_R   0.137236 0.428448 0.197606 -0.125877
C9    C     C_R   0.173625 0.451774 0.272125 0.041398
C10   C     C_R   0.983655 0.488016 0.844663 0.004858
C11   C     C_R   0.874543 0.474788 0.700040 -0.251687
C12   C     C_3   0.598783 0.828336 0.304463 0.335587
C13   C     C_R   0.211345 0.499740 0.152432 0.004469
C14   C     C_R   0.319527 0.518110 0.297764 -0.261017
C15   C     C_R   0.757778 0.426780 0.957492 -0.090819
C16   C     C_3   0.074685 0.768512 0.193984 -0.307093
C17   C     C_R   0.652736 0.377619 0.002195 -0.053821
C18   C     C_R   0.702820 0.385932 0.072546 -0.045022
C19   C     C_R   0.860035 0.437923 0.096108 -0.085277
C20   C     C_R   0.983102 0.462888 0.048513 0.027580
C21   C     C_R   0.928908 0.459559 0.975473 0.039949
C22   C     C_R   0.153045 0.494518 0.073142 -0.006443
C23   C     C_3   0.454494 0.277688 0.315973 0.323675
C24   C     C_R   0.266142 0.524611 0.021046 0.040940
C25   C     C_R   0.211517 0.523493 0.948407 0.024374
C26   C     C_R   0.041711 0.491443 0.923705 -0.007826
C27   C     C_R   0.437903 0.553809 0.038468 -0.086923
C28   C     C_3   0.235689 0.789351 0.619671 0.296373
C29   C     C_R   0.544157 0.603121 0.994263 -0.057345
C30   C     C_R   0.493017 0.599125 0.924516 -0.049570
C31   C     C_R   0.333978 0.550725 0.901074 -0.079052
C32   C     C_R   0.766272 0.181497 0.524971 -0.283299
C33   C     C_R   0.423343 0.808811 0.473210 -0.285436
C34   C     C_3   0.512231 0.270778 0.240496 -0.002919
C35   C     C_R   0.398666 0.984256 0.445640 -0.111061
C36   C     C_R   0.332774 0.876460 0.443486 -0.012917
C37   C     C_R   0.574961 0.849282 0.510303 0.058927
C38   C     C_R   0.641183 0.960717 0.515947 -0.056680
C39   C     C_R   0.552213 0.028237 0.481927 -0.065102
C40   C     C_3   0.236616 0.910516 0.633083 -0.307178
C41   C     C_R   0.617810 0.138662 0.486523 0.028475
C42   C     C_R   0.857881 0.115901 0.555573 -0.013042
C43   C     C_R   0.794047 0.006793 0.553182 -0.093944
C44   C     C_3   0.950726 0.208733 0.377162 0.334225
C45   C     C_3   0.071178 0.226970 0.729336 0.357473
C46   C     C_3   0.879261 0.089787 0.352260 0.001382
C47   C     C_3   0.723032 0.702083 0.678769 0.320033
C48   C     C_3   0.723991 0.730883 0.759460 -0.034152
C49   C     C_3   0.099111 0.197179 0.802274 -0.328743
C50   C     C_3   0.560883 0.163530 0.693568 0.324551
C51   C     C_3   0.614304 0.087458 0.740412 -0.383560
C52   C     C_R   0.053789 0.563607 0.801349 -0.127754
H1    H     H_    0.680626 0.886143 0.345145 0.064680
H2    H     H_    0.626001 0.630808 0.661871 0.044983
H3    H     H_    0.438282 0.942471 0.284838 0.122699
H4    H     H_    0.743745 0.659821 0.783587 0.015103
H5    H     H_    0.603337 0.753965 0.775384 0.101571
H6    H     H_    0.499344 0.787822 0.333360 -0.072900
H7    H     H_    0.442847 0.832605 0.211764 0.105236
H8    H     H_    0.318491 0.270066 0.314402 0.037271
H9    H     H_    0.508687 0.359219 0.344802 0.001565
H10   H     H_    0.479987 0.340406 0.217759 0.000740
H11   H     H_    0.648181 0.273917 0.241056 0.114601
H12   H     H_    0.312687 0.947874 0.682217 0.127137
H13   H     H_    0.612427 0.941008 0.229638 0.183827
H14   H     H_    0.158980 0.839775 0.182774 0.158263
H15   H     H_    0.148282 0.306289 0.727880 0.083466
H16   H     H_    0.938876 0.233049 0.721529 -0.072594
H17   H     H_    0.071945 0.262344 0.844550 0.065002
H18   H     H_    0.016962 0.121073 0.806541 0.151858
H19   H     H_    0.229212 0.185774 0.810707 0.163759
H20   H     H_    0.671534 0.197008 0.667543 -0.066770
H21   H     H_    0.471782 0.116802 0.650739 0.073680
H22   H     H_    0.710025 0.132411 0.781145 0.119380
H23   H     H_    0.287872 0.946415 0.587885 0.063162
H24   H     H_    0.666014 0.021104 0.707423 0.115053
H25   H     H_    0.020818 0.679477 0.278477 0.096150
H26   H     H_    0.507701 0.052437 0.768056 0.145371
H27   H     H_    0.141096 0.634494 0.823691 0.089792
H28   H     H_    0.802538 0.339840 0.834129 0.071445
H29   H     H_    0.398076 0.644503 0.160373 0.073184
H30   H     H_    0.047364 0.358197 0.176719 0.094395
H31   H     H_    0.829922 0.470767 0.645624 0.064126
H32   H     H_    0.362685 0.524677 0.352637 0.068578
H33   H     H_    0.697084 0.444146 0.911244 0.079799
H34   H     H_    0.108924 0.927671 0.639866 0.154464
H35   H     H_    0.525334 0.346553 0.984768 0.090677
H36   H     H_    0.614941 0.361170 0.110001 0.092615
H37   H     H_    0.235585 0.736054 0.276164 -0.083525
H38   H     H_    0.879906 0.460198 0.152123 0.118882
H39   H     H_    0.497238 0.534234 0.084301 0.076867
H40   H     H_    0.672233 0.631889 0.011565 0.089640
H41   H     H_    0.580661 0.624985 0.887196 0.084859
H42   H     H_    0.312022 0.533079 0.845168 0.122730
H43   H     H_    0.326400 0.032647 0.419809 0.116043
H44   H     H_    0.865955 0.959636 0.579987 0.104999
H45   H     H_    0.855154 0.251671 0.403346 -0.042406
H46   H     H_    0.815279 0.266221 0.528188 0.065025
H47   H     H_    0.371681 0.724585 0.470200 0.066660
H48   H     H_    0.093936 0.696613 0.155601 0.052427
H49   H     H_    0.945267 0.781166 0.185777 0.178848
H50   H     H_    0.362281 0.772803 0.610761 -0.008221
H51   H     H_    0.153278 0.754254 0.571711 0.061252
H52   H     H_    0.057000 0.214929 0.415476 0.039841
H53   H     H_    0.743071 0.080765 0.346058 0.047584
H54   H     H_    0.911863 0.041012 0.392186 0.054642
H55   H     H_    0.843996 0.681236 0.663111 0.005738
I1    I     I_    0.962538 0.026370 0.250089 -0.354518
I2    I     I_    0.916061 0.861821 0.800006 -0.458206
I3    I     I_    0.398415 0.125883 0.172824 -0.397198
O1    O     O_2   0.875110 0.423180 0.326290 -0.472260
O2    O     O_2   0.194073 0.123720 0.546481 -0.479104
O3    O     O_3   0.115643 0.146548 0.677203 -0.590040
O4    O     O_3   0.123410 0.433040 0.414950 -0.497418
O5    O     O_3   0.577950 0.634370 0.536140 -0.495893
O6    O     O_2   0.341900 0.231310 0.465740 -0.463547
O7    O     O_3   0.502907 0.193123 0.346692 -0.636163
O8    O     O_2   0.456034 0.448417 0.757788 -0.514510
O9    O     O_3   0.482282 0.241648 0.735031 -0.582369
O10   O     O_3   0.661010 0.625070 0.369680 -0.462543
O11   O     O_2   0.749227 0.555763 0.242488 -0.522973
O12   O     O_3   0.691779 0.790898 0.648620 -0.631169
O13   O     O_3   0.002534 0.252459 0.317908 -0.600020
O14   O     O_3   0.694694 0.758170 0.265517 -0.575528
O15   O     O_2   0.847800 0.768730 0.534310 -0.471129
O16   O     O_3   0.082250 0.684470 0.405440 -0.498633
O17   O     O_2   0.993066 0.875331 0.448384 -0.478435
O18   O     O_3   0.084714 0.843596 0.318012 -0.563342
O19   O     O_2   0.314600 0.576860 0.673750 -0.478404
O20   O     O_3   0.066300 0.567050 0.585060 -0.500584
O21   O     O_3   0.528700 0.375020 0.630330 -0.458478
O22   O     O_3   0.181259 0.749108 0.680137 -0.601067
O23   O     O_3   0.611760 0.365720 0.463870 -0.478409
O24   O     O_3   0.107460 0.315620 0.594570 -0.486496
P1    P     P_3+3 0.042930 0.392230 0.337410 0.987470
P2    P     P_3+3 0.672230 0.754900 0.555730 0.970649
P3    P     P_3+3 0.123834 0.822240 0.404688 0.972832
P4    P     P_3+3 0.146790 0.607860 0.662600 0.989877
P5    P     P_3+3 0.067087 0.175363 0.593258 0.955976
P6    P     P_3+3 0.629351 0.626469 0.279904 0.952093
P7    P     P_3+3 0.521017 0.230116 0.439567 0.940516
P8    P     P_3+3 0.563789 0.370124 0.719224 0.950686

loop_
_geom_bond_atom_site_label_1
_geom_bond_atom_site_label_2
_ccdc_geom_bond_type
C46   I1    S    
C44   H45   S    
O3    P5    S    
C6    H29   S    
O7    P7    S    
C44   O13   S    
C41   P7    S    
C17   C18   A    
O8    P8    D    
Ba1   O16   S    
C23   H9    S    
C4    O18   S    
C50   H21   S    
C35   H43   S    
Ba2   O6    S    
C25   C31   A    
C45   O3    S    
C24   C25   A    
C15   C21   A    
Ba1   O1    S    
C10   C26   S    
C48   H5    S    
O12   P2    S    
C35   C36   A    
C22   C24   A    
C50   H20   S    
C8    C13   A    
O22   P4    S    
C46   H53   S    
C16   H14   S    
C4    H37   S    
Ba1   Ba2   S    
C16   H48   S    
C2    C11   A    
Ba1   O10   S    
C45   H15   S    
O19   P4    D    
Ba2   O4    S    
O5    P2    S    
C42   P5    S    
C28   O22   S    
C34   I3    S    
C32   H46   S    
C36   P3    S    
O15   P2    D    
C23   H8    S    
Ba1   O20   S    
O23   P7    S    
C12   H1    S    
C37   P2    S    
C19   C20   A    
C14   H32   S    
C39   C41   A    
O9    P8    S    
C49   H17   S    
O18   P3    S    
C23   O7    S    
C5    P8    S    
Ba2   O5    S    
C1    H7    S    
C38   C43   A    
C4    C16   S    
C44   C46   S    
Ba2   O21   S    
C32   C41   A    
C48   H4    S    
O2    P5    D    
Ba1   O15   S    
C51   H26   S    
C32   C42   A    
C3    C10   A    
O6    P7    D    
C37   C38   A    
C3    C5    A    
C34   H11   S    
C6    C7    A    
C45   C49   S    
O13   P1    S    
C47   O12   S    
C18   H36   S    
O14   P6    S    
Ba2   O24   S    
C33   C37   A    
C45   H16   S    
O24   P5    S    
C17   H35   S    
C2    P4    S    
C50   O9    S    
Ba2   O20   S    
C29   C30   A    
O17   P3    D    
C33   C36   A    
Ba2   O19   S    
Ba1   O5    S    
C21   C26   A    
C1    C12   S    
C40   H23   S    
C1    H3    S    
C38   C39   A    
Ba1   O4    S    
C6    C13   A    
C28   H51   S    
O1    P1    D    
C51   H22   S    
C40   H34   S    
C49   H18   S    
O10   P6    S    
C28   H50   S    
C47   H2    S    
C31   H42   S    
Ba1   P1    S    
C50   C51   S    
C47   H55   S    
O4    P1    S    
C13   C22   S    
O21   P8    S    
C2    C52   A    
C15   H33   S    
O16   P3    S    
C1    H13   S    
C42   C43   A    
C49   H19   S    
C33   H47   S    
C7    P6    S    
O20   P4    S    
C29   H40   S    
C12   H6    S    
Ba2   O23   S    
C12   O14   S    
C43   H44   S    
Ba2   P4    S    
C30   C31   A    
C51   H24   S    
C9    P1    S    
C27   C29   A    
C34   H10   S    
C27   H39   S    
C3    H28   S    
C4    H25   S    
C46   H54   S    
C44   H52   S    
O11   P6    D    
C8    H30   S    
C48   I2    S    
C15   C17   A    
C20   C22   A    
C16   H49   S    
C35   C39   A    
C9    C14   A    
C8    C9    A    
C23   C34   S    
C5    C11   A    
C30   H41   S    
C18   C19   A    
C24   C27   A    
C47   C48   S    
C11   H31   S    
C25   C26   A    
C40   H12   S    
C20   C21   A    
C28   C40   S    
Ba1   O23   S    
C52   H27   S    
C10   C52   A    
Ba1   P2    S    
C7    C14   A    
C19   H38   S    
