data_mof_unit_49732.cif
_audit_creation_date              2012-12-10T17:05:20-0500
_audit_creation_method            fapswitch 2.2
_symmetry_space_group_name_H-M    P1
_symmetry_Int_Tables_number       1
_space_group_crystal_system       triclinic
_cell_length_a                    10.1395
_cell_length_b                    10.482409
_cell_length_c                    15.434744
_cell_angle_alpha                 91.848157
_cell_angle_beta                  68.072449
_cell_angle_gamma                 94.140242
_cell_volume                      1517.82762164

loop_
_atom_site_label
_atom_site_type_symbol
_atom_type_description
_atom_site_fract_x
_atom_site_fract_y
_atom_site_fract_z
_atom_type_partial_charge
C1    C     C_R   0.502998 0.740100 0.501855 0.907366
C2    C     C_R   0.435837 0.443988 0.903608 0.113534
C3    C     C_R   0.302804 0.380894 0.955174 0.181730
C4    C     C_R   0.543423 0.458620 0.940736 -0.009192
C5    C     C_R   0.501411 0.452163 0.038382 0.060530
C6    C     C_R   0.366997 0.392351 0.091033 -0.197835
C7    C     C_R   0.271734 0.350506 0.048484 -0.224275
C8    C     C_R   0.690889 0.474411 0.884691 0.210575
C9    C     C_R   0.789427 0.502174 0.926670 -0.169822
C10   C     C_R   0.745129 0.515254 0.023679 -0.018512
C11   C     C_R   0.599122 0.496699 0.079608 0.034537
C12   C     C_R   0.410666 0.496362 0.675654 0.871263
C13   C     C_R   0.843956 0.541670 0.066713 0.232879
C14   C     C_R   0.800060 0.522998 0.163836 0.081691
C15   C     C_R   0.555207 0.534780 0.173809 0.068270
C16   C     C_2   0.545679 0.082615 0.580069 0.090742
C17   C     C_2   0.449361 0.139742 0.557720 -0.005604
C18   C     C_2   0.592565 0.960667 0.532345 0.151118
C19   C     C_2   0.489839 0.873701 0.528989 -0.351427
C20   C     C_2   0.095093 0.418539 0.452458 0.161176
C21   C     C_2   0.937845 0.407083 0.471071 0.002573
C22   C     C_R   0.488341 0.263055 0.512205 0.878528
C23   C     C_R   0.590798 0.506096 0.323399 0.864768
C24   C     C_R   0.358440 0.470735 0.775505 -0.072008
C25   C     C_R   0.650685 0.521101 0.219852 -0.206253
C26   C     C_R   0.203065 0.353202 0.912646 -0.139800
C27   C     C_R   0.232386 0.395876 0.821766 -0.116431
C28   C     C_R   0.454085 0.500039 0.819469 -0.181949
H1    H     H_    0.171657 0.300193 0.089511 0.139220
H2    H     H_    0.379789 0.898068 0.558461 0.194686
H3    H     H_    0.082445 0.513730 0.566495 0.202475
H4    H     H_    0.893838 0.319725 0.450383 0.144600
H5    H     H_    0.901383 0.507955 0.882691 0.215381
H6    H     H_    0.102741 0.300334 0.949765 0.150099
H7    H     H_    0.158342 0.369537 0.787668 0.191756
H8    H     H_    0.545605 0.565649 0.786258 0.184890
H9    H     H_    0.338931 0.370975 0.163794 0.153670
N1    N     N_2   0.148330 0.498670 0.499030 -0.217265
N2    N     N_2   0.852680 0.498640 0.499000 -0.074314
O1    O     O_R   0.386950 0.680940 0.500010 -0.599055
O2    O     O_R   0.613110 0.680900 0.499990 -0.617572
O3    O     O_R   0.322330 0.500030 0.632270 -0.589091
O4    O     O_R   0.548480 0.499990 0.632240 -0.604243
O5    O     O_R   0.386890 0.319100 0.500010 -0.587724
O6    O     O_R   0.613050 0.319060 0.499990 -0.631909
O7    O     O_R   0.451520 0.500010 0.367760 -0.635508
O8    O     O_R   0.677670 0.499970 0.367730 -0.593195
Zn1   Zn    Zn3+2 0.349000 0.500030 0.500020 0.949811
Zn2   Zn    Zn3+2 0.651000 0.499970 0.499980 0.931755
Br1   Br    Br    0.034187 0.612174 0.995113 -0.580287
C29   C     C_3   0.609621 0.145467 0.646761 -0.334174
C30   C     C_3   0.591096 0.056881 0.727524 -0.785911
H10   H     H_    0.476364 0.029085 0.765544 0.274954
H11   H     H_    0.649947 0.969473 0.701285 0.247447
H12   H     H_    0.633766 0.107104 0.776936 0.274055
H13   H     H_    0.724371 0.173016 0.609510 0.215421
H14   H     H_    0.556381 0.234624 0.676790 0.242740
Br2   Br    Br    0.253084 0.113675 0.640941 -0.536069
C31   C     C_3   0.749842 0.945593 0.482445 -0.379202
C32   C     C_3   0.791003 0.941062 0.376573 -0.879376
H15   H     H_    0.736014 0.857540 0.355486 0.257381
H16   H     H_    0.762102 0.029961 0.352546 0.259247
H17   H     H_    0.907823 0.933929 0.341649 0.252036
H18   H     H_    0.813746 0.027054 0.497892 0.200985
H19   H     H_    0.778796 0.860363 0.508531 0.226682
C33   C     C_3   0.193010 0.333490 0.377734 -0.324934
C34   C     C_3   0.122239 0.243207 0.325450 -1.011308
H20   H     H_    0.048118 0.170478 0.373509 0.275486
H21   H     H_    0.065081 0.297900 0.291476 0.261405
H22   H     H_    0.205258 0.191279 0.270134 0.267661
H23   H     H_    0.273484 0.394649 0.324644 0.215504
H24   H     H_    0.246925 0.272915 0.409676 0.257550
C35   C     C_3   0.888498 0.622717 0.533044 -0.128149
C36   C     C_3   0.994212 0.708738 0.456083 -0.936746
H25   H     H_    0.092280 0.662793 0.412879 0.263891
H26   H     H_    0.943256 0.737201 0.408600 0.264058
H27   H     H_    0.024973 0.796523 0.488098 0.257087
H28   H     H_    0.789287 0.672155 0.564053 0.209253
H29   H     H_    0.914444 0.616924 0.595843 0.167206
C37   C     C_3   0.429952 0.621036 0.214241 -0.377454
C38   C     C_3   0.440052 0.731349 0.148958 -0.828134
H30   H     H_    0.545785 0.784695 0.128861 0.265742
H31   H     H_    0.423343 0.695783 0.085107 0.275372
H32   H     H_    0.356119 0.798205 0.185257 0.244939
H33   H     H_    0.326123 0.566759 0.230076 0.199683
H34   H     H_    0.428691 0.668053 0.279890 0.228797
C39   C     C_3   0.914695 0.503304 0.202228 -0.349056
C40   C     C_3   0.961968 0.627601 0.239066 -0.768033
H35   H     H_    0.869395 0.670917 0.292298 0.262645
H36   H     H_    0.041009 0.607371 0.269932 0.235746
H37   H     H_    0.013035 0.697392 0.181781 0.281322
H38   H     H_    0.881490 0.426725 0.255303 0.205405
H39   H     H_    0.009550 0.466099 0.146805 0.217834
Br3   Br    Br    0.770993 0.425078 0.754903 -0.615343

loop_
_geom_bond_atom_site_label_1
_geom_bond_atom_site_label_2
_ccdc_geom_bond_type
C8    C9    A    
C39   C40   S    
C7    H1    S    
C35   C36   S    
C16   C29   S    
C4    C8    A    
C38   H30   S    
O8    Zn2   S    
C26   C27   A    
C36   H26   S    
C32   H17   S    
C20   C33   S    
C14   C39   S    
C5    C11   A    
C12   O4    A    
C3    C7    A    
C5    C6    A    
C15   C25   A    
C32   H16   S    
C18   C19   D    
C12   O3    A    
C1    O1    A    
C11   C15   A    
C26   H6    S    
C22   O5    A    
C15   C37   S    
C33   H24   S    
C16   C17   D    
C36   H27   S    
C37   H34   S    
C35   H28   S    
C24   C27   A    
C29   H14   S    
C9    C10   A    
N1    Zn1   S    
C30   H12   S    
C17   Br2   S    
C23   C25   S    
C33   C34   S    
C31   C32   S    
C23   O7    A    
C13   C14   A    
C9    H5    S    
O2    Zn2   S    
C38   H31   S    
C30   H11   S    
C21   H4    S    
O7    Zn1   S    
C1    C19   S    
C23   O8    A    
C36   H25   S    
C34   H20   S    
C8    Br3   S    
O4    Zn2   S    
C27   H7    S    
C29   C30   S    
C32   H15   S    
C34   H21   S    
C29   H13   S    
C2    C4    A    
C37   H33   S    
C20   N1    D    
C33   H23   S    
C21   N2    D    
C40   H37   S    
O6    Zn2   S    
C35   H29   S    
C6    H9    S    
O3    Zn1   S    
C40   H35   S    
C1    O2    A    
N2    Zn2   S    
C40   H36   S    
C38   H32   S    
C30   H10   S    
O1    Zn1   S    
C3    C26   A    
C24   C28   A    
C37   C38   S    
C10   C13   A    
C6    C7    A    
C12   C24   S    
C17   C22   S    
H3    N1    S    
C34   H22   S    
C2    C3    A    
C31   H19   S    
C39   H39   S    
N2    C35   S    
C14   C25   A    
C10   C11   A    
C13   Br1   S    
C31   H18   S    
C18   C31   S    
C4    C5    A    
C22   O6    A    
C20   C21   S    
C28   H8    S    
C16   C18   S    
C2    C28   A    
C39   H38   S    
C19   H2    S    
O5    Zn1   S    
