data_mof_unit_13787.cif
_audit_creation_date              2013-03-05T16:05:08-0500
_audit_creation_method            fapswitch 2.2
_symmetry_space_group_name_H-M    P1
_symmetry_Int_Tables_number       1
_space_group_crystal_system       triclinic
_cell_length_a                    10.967811
_cell_length_b                    9.72151
_cell_length_c                    11.380732
_cell_angle_alpha                 89.105013
_cell_angle_beta                  99.319897
_cell_angle_gamma                 89.242858
_cell_volume                      1197.13888856

loop_
_atom_site_label
_atom_site_type_symbol
_atom_site_description
_atom_site_fract_x
_atom_site_fract_y
_atom_site_fract_z
_atom_type_partial_charge
O1    O     O_R   0.319660 0.618740 0.499990 -0.507952
O2    O     O_R   0.319660 0.381260 0.499990 -0.553809
C1    C     C_R   0.262077 0.500083 0.501162 0.925180
O3    O     O_R   0.499990 0.618790 0.317690 -0.520064
O4    O     O_R   0.499990 0.381210 0.317690 -0.504446
C2    C     C_R   0.495477 0.501740 0.258375 0.945515
Cu1   Cu    Cu3+1 0.500020 0.640660 0.500000 1.136788
Cu2   Cu    Cu3+1 0.500020 0.359340 0.500000 1.144559
O5    O     O_R   0.680370 0.618830 0.500010 -0.555075
O6    O     O_R   0.680370 0.381170 0.500010 -0.587920
O7    O     O_R   0.500030 0.618780 0.682310 -0.532798
O8    O     O_R   0.500030 0.381220 0.682310 -0.508311
C3    C     C_R   0.736722 0.499546 0.500525 0.925330
C4    C     C_R   0.494282 0.499087 0.738323 0.935173
C5    C     C_3   0.415928 0.645524 0.047230 -0.045429
C6    C     C_3   0.420506 0.363297 0.060793 -0.096431
C7    C     C_3   0.430630 0.650615 0.907122 0.374295
C8    C     C_3   0.398397 0.372631 0.913636 0.353269
H1    H     H_    0.680166 0.549492 0.905547 0.244629
H2    H     H_    0.652019 0.379979 0.921785 0.271382
C9    C     C_3   0.631248 0.493954 0.085647 0.530898
C10   C     C_3   0.490134 0.503976 0.117067 -0.419080
C11   C     C_3   0.481899 0.499660 0.873177 -0.352403
C12   C     C_3   0.616742 0.481089 0.944419 -0.476917
C13   C     C_R   0.065038 0.373525 0.529675 0.318786
C14   C     C_R   0.055346 0.623728 0.486360 0.310134
C15   C     C_R   0.936642 0.377623 0.518759 -0.176205
C16   C     C_R   0.929169 0.621751 0.487209 -0.091822
H3    H     H_    0.887720 0.284212 0.527347 0.221166
H4    H     H_    0.876924 0.717714 0.473214 0.224337
C17   C     C_R   0.869548 0.499540 0.501511 -0.127280
C18   C     C_R   0.127564 0.499033 0.507317 -0.211531
C19   C     C_R   0.404757 0.073869 0.438375 0.078302
C20   C     C_R   0.415487 0.929208 0.423517 0.021337
N1    N     N_R   0.500030 0.852070 0.500030 -0.230092
N2    N     N_R   0.500030 0.147930 0.500030 -0.240023
C21   C     C_R   0.587177 0.924359 0.577804 0.030091
C22   C     C_R   0.594254 0.071901 0.566640 0.058053
N3    N     N_R   0.461499 0.780920 0.097326 0.188439
O9    O     O_R   0.415802 0.895044 0.045405 -0.123322
O10   O     O_R   0.553368 0.794632 0.182864 -0.239361
N4    N     N_R   0.495854 0.235858 0.106189 0.191312
O11   O     O_R   0.471772 0.165068 0.197541 -0.256829
O12   O     O_R   0.579351 0.180961 0.051827 -0.186094
C23   C     C_2   0.672387 0.857297 0.681544 0.962273
O13   O     O_2   0.706382 0.738218 0.681494 -0.568154
O14   O     O_R   0.714900 0.933828 0.782985 -0.659072
H5    H     H_    0.781720 0.884001 0.840763 0.391781
C24   C     C_2   0.707285 0.139286 0.627286 0.916347
O15   O     O_2   0.700839 0.237237 0.691671 -0.513260
O16   O     O_R   0.822459 0.078639 0.621793 -0.740534
H6    H     H_    0.890638 0.118910 0.681708 0.384240
C25   C     C_2   0.273502 0.652158 0.050416 0.906220
O17   O     O_2   0.203241 0.569545 0.998122 -0.531960
O18   O     O_R   0.217584 0.773146 0.080747 -0.633250
H7    H     H_    0.123821 0.770725 0.066689 0.381318
C26   C     C_2   0.297769 0.338680 0.106511 1.047502
O19   O     O_2   0.256604 0.419915 0.171674 -0.597973
O20   O     O_R   0.239075 0.211930 0.084931 -0.583174
H8    H     H_    0.158493 0.206394 0.117510 0.372211
N5    N     N_R   0.310582 0.696577 0.830850 0.164621
O21   O     O_R   0.253732 0.806038 0.860711 -0.191611
O22   O     O_R   0.293831 0.680084 0.717082 -0.265199
N6    N     N_R   0.267078 0.397682 0.858372 0.144845
O23   O     O_R   0.244773 0.446080 0.750943 -0.339567
O24   O     O_R   0.178086 0.324102 0.887473 -0.227998
N7    N     N_R   0.518664 0.760194 0.884021 0.164427
O25   O     O_R   0.625032 0.774475 0.950348 -0.276697
O26   O     O_R   0.479221 0.863531 0.812950 -0.210356
N8    N     N_R   0.427291 0.235155 0.867228 0.206681
O27   O     O_R   0.531759 0.203467 0.833837 -0.250178
O28   O     O_R   0.351795 0.134503 0.875594 -0.129346
N9    N     N_R   0.709907 0.610826 0.129126 0.202283
O29   O     O_R   0.802121 0.641192 0.074657 -0.258586
O30   O     O_R   0.729013 0.631904 0.243247 -0.311678
N10   N     N_R   0.705780 0.374372 0.141284 0.165566
O31   O     O_R   0.798277 0.330085 0.092555 -0.257855
O32   O     O_R   0.711576 0.346135 0.254005 -0.314233
N11   N     N_R   0.123980 0.240866 0.564898 0.149685
O33   O     O_R   0.229763 0.229653 0.634647 -0.232332
O34   O     O_R   0.058269 0.129986 0.551362 -0.262767
N12   N     N_R   0.103946 0.754216 0.458465 0.132097
O35   O     O_R   0.166829 0.824290 0.543233 -0.197529
O36   O     O_R   0.048271 0.821628 0.364806 -0.301053
C27   C     C_2   0.287785 0.139747 0.383379 0.946069
O37   O     O_2   0.289504 0.245429 0.327995 -0.554783
O38   O     O_R   0.176101 0.071531 0.379946 -0.662447
H9    H     H_    0.104180 0.122346 0.329539 0.368441
C28   C     C_2   0.337428 0.869273 0.318297 1.015929
O39   O     O_2   0.303392 0.942402 0.230743 -0.473437
O40   O     O_R   0.298617 0.734874 0.317659 -0.720376
H10   H     H_    0.213473 0.719137 0.272195 0.357086

loop_
_geom_bond_atom_site_label_1
_geom_bond_atom_site_label_2
_geom_bond_distance
_ccdc_geom_bond_type
C8    N8    1.493516 S    
O18   H7    1.015461 S    
C14   C18   1.434627 A    
C15   H3    1.071995 S    
N9    O29   1.303672 A    
O38   H9    1.014708 S    
Cu1   Cu2   2.734855 S    
N3    O10   1.292518 A    
C22   C24   1.483510 S    
C23   O13   1.211533 D    
Cu1   O7    2.082369 S    
C9    N10   1.484871 S    
C7    C11   1.638690 S    
C5    C25   1.568885 S    
N1    C21   1.397878 A    
N10   O32   1.298937 A    
O4    C2    1.339420 A    
O7    C4    1.325170 A    
C26   O20   1.404372 S    
C2    C10   1.599541 S    
C9    N9    1.478245 S    
C19   N2    1.378701 A    
Cu1   O5    1.986588 S    
C20   N1    1.371167 A    
Cu2   N2    2.055219 S    
C23   O14   1.401923 S    
N5    O22   1.290772 A    
O5    C3    1.306300 A    
C19   C27   1.467470 S    
C7    N5    1.512907 S    
C5    C10   1.707145 S    
H2    C12   1.101074 S    
C24   O16   1.397950 S    
C11   C12   1.573906 S    
N8    O27   1.299037 A    
C28   O40   1.379252 S    
C13   C18   1.446602 A    
C27   O38   1.395900 S    
O20   H8    1.014027 S    
C14   N12   1.433256 S    
O1    Cu1   1.992379 S    
C9    C10   1.645950 S    
N9    O30   1.301542 A    
N5    O21   1.303465 A    
N4    O12   1.298905 A    
O3    Cu1   2.088936 S    
C25   O18   1.393157 S    
C7    N7    1.495605 S    
C15   C17   1.381187 A    
C8    C11   1.650602 S    
N10   O31   1.303930 A    
O3    C2    1.329519 A    
O40   H10   1.006445 S    
N11   O34   1.301847 A    
C27   O37   1.198877 D    
N7    O25   1.293217 A    
O1    C1    1.323317 A    
N6    O24   1.299916 A    
C4    C11   1.562586 S    
C21   C22   1.442190 A    
O14   H5    1.014250 S    
Cu2   O8    2.088980 S    
C19   C20   1.424671 A    
C5    N3    1.501969 S    
Cu2   O6    1.992165 S    
O8    C4    1.325603 A    
N12   O35   1.299180 A    
N12   O36   1.302031 A    
N4    O11   1.302160 A    
C21   C23   1.514868 S    
C6    N4    1.516378 S    
N3    O9    1.303901 A    
C5    C7    1.628497 S    
C6    C10   1.661400 S    
C13   N11   1.455906 S    
Cu1   N1    2.055231 S    
C3    C17   1.455039 S    
C16   C17   1.383673 A    
O2    Cu2   1.986779 S    
O6    C3    1.313088 A    
O4    Cu2   2.082327 S    
C25   O17   1.214816 D    
C13   C15   1.393499 A    
C14   C16   1.385876 A    
N6    O23   1.287677 A    
N2    C22   1.377505 A    
O2    C1    1.310465 A    
C20   C28   1.486390 S    
O16   H6    1.014060 S    
C8    N6    1.490581 S    
C26   O19   1.222618 D    
C16   H4    1.084295 S    
H1    C12   1.106585 S    
C6    C26   1.540006 S    
C1    C18   1.488423 S    
N11   O33   1.297595 A    
C6    C8    1.653776 S    
C24   O15   1.218796 D    
C9    C12   1.596337 S    
N8    O28   1.302374 A    
N7    O26   1.303985 A    
C28   O39   1.219839 D    
