data_mof_unit_51587.cif
_audit_creation_date              2012-10-26T18:56:44-0400
_audit_creation_method            fapswitch 2.2
_symmetry_space_group_name_H-M    P1
_symmetry_Int_Tables_number       1
_space_group_crystal_system       triclinic
_cell_length_a                    23.557345
_cell_length_b                    15.88005
_cell_length_c                    14.626699
_cell_angle_alpha                 90.030614
_cell_angle_beta                  90.034267
_cell_angle_gamma                 90.289329
_cell_volume                      5471.65686517

loop_
_atom_site_label
_atom_site_type_symbol
_atom_type_description
_atom_site_fract_x
_atom_site_fract_y
_atom_site_fract_z
_atom_type_partial_charge
C1    C     C_R   0.500008 0.339469 0.499964 0.560306
C2    C     C_R   0.704540 0.542073 0.569876 0.164036
C3    C     C_R   0.235678 0.479677 0.574853 0.198258
C4    C     C_R   0.763940 0.527828 0.572163 0.195010
C5    C     C_R   0.208676 0.503639 0.492283 0.154182
C6    C     C_R   0.790999 0.494274 0.493712 0.155257
C7    C     C_3   0.523638 0.972196 0.578525 -0.113938
C8    C     C_3   0.475972 0.027786 0.421832 -0.120178
C9    C     C_3   0.552495 0.028313 0.506016 0.271558
C10   C     C_3   0.447116 0.971675 0.494342 0.271216
C11   C     C_1   0.499648 0.249913 0.499960 0.056488
C12   C     C_R   0.499728 0.660527 0.500026 0.570123
C13   C     C_1   0.499996 0.750085 0.500096 0.063751
C14   C     C_3   0.469586 0.027848 0.572519 -0.116131
C15   C     C_3   0.530025 0.972146 0.427840 -0.120446
C16   C     C_R   0.390621 0.496727 0.500096 0.572077
C17   C     C_R   0.609312 0.502700 0.499967 0.578635
C18   C     C_3   0.499351 0.082948 0.500106 -0.017765
C19   C     C_3   0.500259 0.917043 0.500245 -0.017787
C20   C     C_1   0.499380 0.174477 0.500021 0.042244
C21   C     C_1   0.500236 0.825517 0.500192 0.044265
C22   C     C_3   0.481893 0.574753 0.969091 -0.109353
C23   C     C_R   0.241287 0.522417 0.414142 0.252221
C24   C     C_3   0.518057 0.424300 0.031271 -0.145083
C25   C     C_3   0.447894 0.512929 0.029797 0.270129
C26   C     C_3   0.552170 0.486057 0.970670 0.203307
C27   C     C_3   0.534579 0.560871 0.031836 -0.147462
C28   C     C_3   0.465397 0.438152 0.968506 -0.104745
C29   C     C_3   0.499719 0.499333 0.091812 -0.048999
C30   C     C_3   0.500371 0.499736 0.908390 -0.032809
C31   C     C_1   0.499795 0.499678 0.194261 0.212300
C32   C     C_1   0.500252 0.499908 0.805795 0.261736
C33   C     C_R   0.879615 0.568788 0.475440 0.501845
C34   C     C_R   0.758396 0.466423 0.418618 0.255261
C35   C     C_R   0.120035 0.427636 0.484096 0.503029
C36   C     C_R   0.880649 0.419639 0.495009 0.486574
C37   C     C_R   0.119035 0.577878 0.483258 0.487155
C38   C     C_R   0.940674 0.417775 0.487169 0.029347
C39   C     C_R   0.058982 0.578833 0.475614 0.029884
C40   C     C_R   0.969793 0.496361 0.479881 -0.054159
C41   C     C_R   0.029855 0.500040 0.479348 -0.053988
C42   C     C_R   0.938913 0.571700 0.473805 0.015701
C43   C     C_R   0.060732 0.424580 0.483288 0.015478
C44   C     C_R   0.973037 0.341984 0.487529 0.174602
C45   C     C_R   0.300171 0.522028 0.420327 -0.142010
C46   C     C_R   0.026602 0.654074 0.465909 0.174565
C47   C     C_R   0.032256 0.347148 0.486090 -0.073646
C48   C     C_R   0.967379 0.648825 0.465771 -0.073624
C49   C     C_R   0.699491 0.467518 0.424486 -0.151541
C50   C     C_R   0.327791 0.494112 0.499476 -0.093980
C51   C     C_R   0.672000 0.504474 0.499091 -0.088293
C52   C     C_R   0.295111 0.465114 0.574918 0.165950
Cu1   Cu    Cu3+1 0.500010 0.500000 0.590220 1.201013
Cu2   Cu    Cu3+1 0.499990 0.500000 0.409780 1.070839
H1    H     H_    0.466332 0.636575 0.944431 0.174494
H2    H     H_    0.654322 0.454652 0.074151 0.352269
H3    H     H_    0.436269 0.388117 0.943267 0.189282
H4    H     H_    0.563635 0.610968 0.057136 0.166774
H5    H     H_    0.056660 0.289632 0.487821 0.218629
H6    H     H_    0.942971 0.706100 0.459861 0.218813
H7    H     H_    0.130451 0.521385 0.239452 0.386650
H8    H     H_    0.869652 0.446733 0.246495 0.389229
H9    H     H_    0.324768 0.542228 0.361675 0.213996
H10   H     H_    0.674724 0.440701 0.369129 0.191321
H11   H     H_    0.360442 0.308872 0.565256 0.337139
H12   H     H_    0.533535 0.362480 0.056078 0.173273
H13   H     H_    0.641380 0.697243 0.536310 0.338022
H14   H     H_    0.159684 0.597960 0.680355 0.371521
H15   H     H_    0.839923 0.423129 0.693347 0.374740
H16   H     H_    0.706482 0.010689 0.523273 0.403863
H17   H     H_    0.293097 0.989174 0.477599 0.403081
H18   H     H_    0.543831 0.948731 0.642131 0.181636
H19   H     H_    0.455782 0.051229 0.358216 0.173590
H20   H     H_    0.555393 0.948651 0.369290 0.172759
H21   H     H_    0.444217 0.051357 0.631063 0.180252
H22   H     H_    0.938503 0.231119 0.633378 0.354495
H23   H     H_    0.061622 0.781312 0.594993 0.354503
H24   H     H_    0.295826 0.548621 0.004244 0.406770
N1    N     N_R   0.851955 0.494022 0.487899 -0.358518
N2    N     N_R   0.147719 0.503246 0.486243 -0.357634
N3    N     N_1   0.499980 0.500000 0.274190 -0.171989
N4    N     N_1   0.500020 0.500000 0.725810 -0.139250
O1    O     O_R   0.500010 0.379080 0.576170 -0.460098
O2    O     O_2   0.150135 0.355488 0.483289 -0.417605
O3    O     O_2   0.850689 0.349152 0.512463 -0.360934
O4    O     O_2   0.149031 0.649831 0.490829 -0.362732
O5    O     O_2   0.901528 0.231175 0.408742 -0.117407
O6    O     O_2   0.988440 0.173156 0.473125 -0.215371
O7    O     O_3   0.909741 0.219518 0.585514 -0.403043
O8    O     O_2   0.097803 0.754616 0.371987 -0.118755
O9    O     O_2   0.011105 0.819807 0.428360 -0.214187
O10   O     O_3   0.090217 0.787107 0.545743 -0.404201
O11   O     O_2   0.358406 0.456663 0.125530 -0.224297
O12   O     O_R   0.499990 0.620920 0.423830 -0.497509
O13   O     O_2   0.375902 0.609281 0.125491 -0.228843
O14   O     O_3   0.334187 0.540907 0.977930 -0.445939
O15   O     O_2   0.623681 0.413611 0.851461 -0.184557
O16   O     O_2   0.652417 0.550093 0.915735 -0.174159
O17   O     O_3   0.658579 0.417896 0.019862 -0.429466
O18   O     O_2   0.196953 0.640902 0.306743 -0.174655
O19   O     O_2   0.250467 0.529160 0.231134 -0.194245
O20   O     O_3   0.149666 0.493237 0.291259 -0.497645
O21   O     O_2   0.802722 0.336510 0.328162 -0.170654
O22   O     O_2   0.749195 0.438691 0.237948 -0.233977
O23   O     O_R   0.500000 0.379080 0.423800 -0.501831
O24   O     O_3   0.850015 0.481266 0.293048 -0.494386
O25   O     O_2   0.351746 0.455032 0.734209 -0.189231
O26   O     O_2   0.284579 0.340710 0.702507 -0.155175
O27   O     O_3   0.379020 0.341611 0.614678 -0.503112
O28   O     O_2   0.645322 0.571048 0.723216 -0.146787
O29   O     O_2   0.714236 0.679910 0.680689 -0.152564
O30   O     O_3   0.621502 0.670150 0.588294 -0.517267
O31   O     O_2   0.169890 0.385483 0.685108 -0.148497
O32   O     O_2   0.230737 0.490105 0.760041 -0.169203
O33   O     O_3   0.141071 0.541985 0.676667 -0.492530
O34   O     O_R   0.500000 0.620920 0.576200 -0.464673
O35   O     O_2   0.829186 0.634448 0.669323 -0.150022
O36   O     O_2   0.768320 0.538902 0.757156 -0.140198
O37   O     O_3   0.858418 0.478351 0.682313 -0.490561
O38   O     O_2   0.636618 0.119523 0.431144 -0.230443
O39   O     O_2   0.629457 0.119699 0.598689 -0.224654
O40   O     O_3   0.668171 0.984989 0.518988 -0.471015
O41   O     O_2   0.370117 0.880396 0.401608 -0.226207
O42   O     O_2   0.363094 0.880243 0.569166 -0.232846
O43   O     O_3   0.331405 0.014909 0.481703 -0.474888
O44   O     O_R   0.417890 0.499980 0.576200 -0.432833
O45   O     O_R   0.582110 0.500020 0.423800 -0.516869
O46   O     O_R   0.417870 0.499970 0.423830 -0.498819
O47   O     O_R   0.582130 0.500030 0.576170 -0.427949
O48   O     O_2   0.849498 0.640289 0.465067 -0.419726
S1    S     S_3+6 0.943263 0.238638 0.486115 0.134245
S2    S     S_3+6 0.804643 0.547007 0.673115 0.140104
S3    S     S_3+6 0.623401 0.066936 0.513894 0.071184
S4    S     S_3+6 0.376220 0.933002 0.486509 0.068308
S5    S     S_3+6 0.056346 0.756389 0.450018 0.134262
S6    S     S_3+6 0.377356 0.530428 0.068718 0.082077
S7    S     S_3+6 0.623481 0.467644 0.935803 0.105779
S8    S     S_3+6 0.209966 0.548373 0.307649 0.105817
S9    S     S_3+6 0.789717 0.428426 0.316559 0.098634
S10   S     S_3+6 0.326951 0.400121 0.660441 0.119101
S11   S     S_3+6 0.672147 0.616825 0.644433 0.130325
S12   S     S_3+6 0.194683 0.472541 0.677307 0.130615

loop_
_geom_bond_atom_site_label_1
_geom_bond_atom_site_label_2
_ccdc_geom_bond_type
C33   O48   S    
O43   S4    S    
C38   C40   A    
H23   O10   S    
C23   C45   A    
C27   C29   S    
C34   S9    S    
C23   S8    S    
C1    C11   S    
O11   S6    D    
C17   C51   S    
O24   S9    S    
C39   C41   A    
C28   H3    S    
C44   S1    S    
C15   C19   S    
C26   C27   S    
O27   S10   S    
C33   C42   A    
O32   S12   D    
C19   C21   S    
C24   C26   S    
C35   N2    A    
O31   S12   D    
O38   S3    D    
O20   S8    S    
O5    S1    D    
O25   S10   D    
O35   S2    D    
C25   S6    S    
C14   C18   S    
C24   C29   S    
O13   S6    D    
C46   S5    S    
C7    C14   S    
H24   O14   S    
C49   C51   A    
C22   C25   S    
C50   C52   A    
C35   C43   A    
C44   C47   A    
C24   H12   S    
H22   O7    S    
C26   S7    S    
C40   C42   A    
O33   S12   S    
C49   H10   S    
C41   C43   A    
C12   O12   A    
C3    S12   S    
O15   S7    D    
C48   H6    S    
C25   C29   S    
H2    O17   S    
C37   N2    A    
C46   C48   A    
C11   C20   T    
O16   S7    D    
C17   O47   A    
C24   C28   S    
C37   O4    S    
C4    C6    A    
C10   C14   S    
C7    H18   S    
O26   S10   D    
C17   O45   A    
O41   S4    D    
Cu1   Cu2   S    
Cu2   O46   S    
H15   O37   S    
C8    C18   S    
C6    C34   A    
Cu1   N4    S    
C25   C28   S    
O30   S11   S    
O28   S11   D    
C2    C4    A    
O40   S3    S    
C38   C44   A    
O21   S9    D    
H16   O40   S    
C5    C23   A    
C10   C19   S    
C3    C52   A    
O37   S2    S    
C13   C21   T    
C42   C48   A    
C5    N2    S    
C16   O46   A    
H11   O27   S    
O18   S8    D    
C39   C46   A    
C8    C10   S    
C40   C41   A    
C26   C30   S    
C8    C15   S    
C7    C19   S    
C22   C27   S    
H17   O43   S    
O14   S6    S    
O10   S5    S    
Cu1   O47   S    
C7    C9    S    
C34   C49   A    
C22   C30   S    
Cu2   O23   S    
C33   N1    A    
C10   S4    S    
C16   C50   S    
C3    C5    A    
C36   N1    A    
C31   N3    T    
C35   O2    S    
Cu1   O34   S    
C9    C18   S    
C22   H1    S    
H8    O24   S    
C36   O3    S    
C1    O1    A    
C32   N4    T    
Cu2   O45   S    
C2    C51   A    
O7    S1    S    
O22   S9    D    
O42   S4    D    
Cu1   O1    S    
C14   H21   S    
C36   C38   A    
H7    O20   S    
C9    C15   S    
C29   C31   S    
O19   S8    D    
C30   C32   S    
O8    S5    D    
C4    S2    S    
C6    N1    S    
C16   O44   A    
C45   C50   A    
C27   H4    S    
C28   C30   S    
C8    H19   S    
C52   S10   S    
C45   H9    S    
C18   C20   S    
Cu2   O12   S    
O36   S2    D    
Cu1   O44   S    
O29   S11   D    
H14   O33   S    
C47   H5    S    
H13   O30   S    
C15   H20   S    
O9    S5    D    
C12   C13   S    
C37   C39   A    
C2    S11   S    
O17   S7    S    
O6    S1    D    
O39   S3    D    
C43   C47   A    
Cu2   N3    S    
C1    O23   A    
C12   O34   A    
C9    S3    S    
