data_mof_unit_36496.cif
_audit_creation_date              2012-12-10T19:47:22-0500
_audit_creation_method            fapswitch 2.2
_symmetry_space_group_name_H-M    P1
_symmetry_Int_Tables_number       1
_space_group_crystal_system       triclinic
_cell_length_a                    14.989785
_cell_length_b                    14.125012
_cell_length_c                    10.748019
_cell_angle_alpha                 90.001274
_cell_angle_beta                  90.489421
_cell_angle_gamma                 90.000807
_cell_volume                      2275.60463679

loop_
_atom_site_label
_atom_site_type_symbol
_atom_type_description
_atom_site_fract_x
_atom_site_fract_y
_atom_site_fract_z
_atom_type_partial_charge
C1    C     C_R   0.327642 0.500039 0.501920 0.884820
C2    C     C_R   0.952251 0.494997 0.498231 0.084276
C3    C     C_R   0.455353 0.105055 0.406257 -0.288088
C4    C     C_R   0.544656 0.105058 0.593732 -0.288094
C5    C     C_R   0.456030 0.204515 0.408178 0.018149
C6    C     C_R   0.543974 0.204518 0.591818 0.018097
C7    C     C_R   0.500005 0.053338 0.499993 0.144468
C8    C     C_R   0.574724 0.894986 0.542218 -0.307022
C9    C     C_R   0.425286 0.894985 0.457763 -0.306967
C10   C     C_R   0.572641 0.795548 0.543519 0.000057
C11   C     C_R   0.427365 0.795547 0.456468 0.000165
C12   C     C_R   0.672365 0.500042 0.498144 0.884682
C13   C     C_R   0.500005 0.946743 0.499992 0.152626
C14   C     C_R   0.508315 0.500362 0.260020 0.876647
C15   C     C_R   0.491687 0.500366 0.739981 0.876744
C16   C     C_R   0.549468 0.674491 0.110002 -0.209497
C17   C     C_R   0.450656 0.674532 0.890028 -0.209582
C18   C     C_R   0.529775 0.760696 0.051052 0.192249
C19   C     C_R   0.470399 0.760720 0.949002 0.192235
C20   C     C_R   0.483337 0.588374 0.939368 0.044894
C21   C     C_R   0.516734 0.588360 0.060644 0.044891
C22   C     C_R   0.516077 0.501694 0.126481 -0.101671
C23   C     C_R   0.231606 0.499622 0.504611 -0.078839
C24   C     C_R   0.483932 0.501707 0.873522 -0.101668
C25   C     C_R   0.506003 0.415792 0.063325 -0.215827
C26   C     C_R   0.493948 0.415797 0.936673 -0.215843
C27   C     C_R   0.091645 0.568598 0.564877 -0.223851
C28   C     C_R   0.908548 0.568874 0.436920 -0.223463
C29   C     C_R   0.184258 0.572044 0.565562 0.200835
C30   C     C_R   0.815933 0.572284 0.435680 0.200876
C31   C     C_3   0.552925 0.880343 0.209718 -0.790406
C32   C     C_3   0.447304 0.880410 0.790384 -0.790615
C33   C     C_3   0.213103 0.739778 0.592131 -0.784811
C34   C     C_R   0.768419 0.499640 0.495927 -0.079157
C35   C     C_3   0.787406 0.740126 0.409245 -0.785275
C36   C     C_R   0.186643 0.424747 0.445950 -0.242298
C37   C     C_R   0.813236 0.424637 0.554530 -0.242100
C38   C     C_R   0.094643 0.422414 0.445347 -0.180528
C39   C     C_R   0.905237 0.422341 0.555679 -0.180764
C40   C     C_R   0.047781 0.494896 0.503423 0.084327
H1    H     H_    0.634356 0.930803 0.574592 0.139468
H2    H     H_    0.370766 0.756702 0.420424 0.145569
H3    H     H_    0.593182 0.674675 0.190669 0.179224
H4    H     H_    0.406937 0.674754 0.809367 0.179407
H5    H     H_    0.577034 0.897539 0.021254 0.226283
H6    H     H_    0.592987 0.944691 0.230234 0.241415
H7    H     H_    0.569139 0.826462 0.281222 0.267472
H8    H     H_    0.481032 0.899043 0.212994 0.235786
H9    H     H_    0.423207 0.897580 0.978855 0.226294
H10   H     H_    0.407266 0.944777 0.769895 0.241457
H11   H     H_    0.431072 0.826547 0.718862 0.267455
H12   H     H_    0.365658 0.930801 0.425380 0.139452
H13   H     H_    0.519203 0.899080 0.787116 0.235797
H14   H     H_    0.053666 0.622701 0.612476 0.144335
H15   H     H_    0.946661 0.623083 0.389740 0.144384
H16   H     H_    0.222789 0.636667 0.728790 0.215793
H17   H     H_    0.144975 0.762770 0.618501 0.225018
H18   H     H_    0.220195 0.744855 0.489558 0.240176
H19   H     H_    0.262234 0.788183 0.636644 0.244429
H20   H     H_    0.777548 0.637072 0.272493 0.215813
H21   H     H_    0.855561 0.763032 0.382887 0.225075
H22   H     H_    0.780314 0.745166 0.511823 0.240184
H23   H     H_    0.222699 0.368889 0.398931 0.161474
H24   H     H_    0.738343 0.788627 0.364773 0.244403
H25   H     H_    0.059924 0.365336 0.398068 0.142496
H26   H     H_    0.939833 0.365106 0.602796 0.142484
H27   H     H_    0.421114 0.069146 0.330801 0.130601
H28   H     H_    0.578897 0.069151 0.669185 0.130617
H29   H     H_    0.777061 0.368623 0.601052 0.161607
H30   H     H_    0.421494 0.243488 0.335753 0.120812
H31   H     H_    0.578510 0.243493 0.664244 0.120812
H32   H     H_    0.507461 0.348411 0.111496 0.164845
H33   H     H_    0.492440 0.348417 0.888497 0.164854
H34   H     H_    0.629242 0.756703 0.579548 0.145874
N1    N     N_R   0.500000 0.252470 0.500000 -0.090874
N2    N     N_R   0.500000 0.747550 0.500000 -0.094859
N3    N     N_2   0.574744 0.845132 0.087957 -0.321902
N4    N     N_2   0.425469 0.845185 0.912131 -0.321906
N5    N     N_2   0.229698 0.643953 0.633893 -0.298691
N6    N     N_2   0.770672 0.644346 0.367396 -0.298488
O1    O     O_R   0.369060 0.579480 0.500010 -0.602046
O2    O     O_R   0.630940 0.579480 0.499990 -0.602017
O3    O     O_R   0.369050 0.420520 0.500010 -0.627356
O4    O     O_R   0.630950 0.420520 0.499990 -0.627389
O5    O     O_R   0.500000 0.579490 0.316770 -0.622743
O6    O     O_R   0.500000 0.579490 0.683230 -0.622702
O7    O     O_R   0.499990 0.420540 0.316770 -0.631214
O8    O     O_R   0.500010 0.420540 0.683230 -0.631229
Zn1   Zn    Zn3+2 0.500000 0.606140 0.500000 0.949171
Zn2   Zn    Zn3+2 0.500000 0.393860 0.500000 0.938405

loop_
_geom_bond_atom_site_label_1
_geom_bond_atom_site_label_2
_ccdc_geom_bond_type
C33   H18   S    
C37   H29   S    
C27   C29   A    
C34   C37   A    
C26   H33   S    
C27   H14   S    
C6    N1    A    
C16   C21   A    
H16   N5    S    
C23   C29   A    
C24   C26   A    
C14   O7    A    
C3    C7    A    
C11   N2    A    
C1    O1    A    
C35   N6    S    
C17   C20   A    
H9    N4    S    
C12   O4    A    
C11   H2    S    
C18   C19   A    
C9    C13   A    
N1    Zn2   S    
C10   N2    A    
C2    C39   A    
C20   C24   A    
C22   C25   A    
C35   H24   S    
C36   H23   S    
N2    Zn1   S    
O1    Zn1   S    
C33   H19   S    
C31   H7    S    
C21   C22   A    
C9    H12   S    
O4    Zn2   S    
C4    C7    A    
C28   H15   S    
C31   N3    S    
C6    H31   S    
C30   C34   A    
C8    H1    S    
C4    C6    A    
C4    H28   S    
O5    Zn1   S    
C33   N5    S    
C25   C26   A    
C31   H6    S    
C5    N1    A    
C19   N4    S    
C32   H11   S    
C5    H30   S    
C29   N5    S    
C38   H25   S    
C27   C40   A    
C12   O2    A    
C35   H21   S    
C25   H32   S    
C9    C11   A    
C16   H3    S    
C32   H10   S    
C15   O6    A    
C8    C10   A    
C15   C24   S    
O8    Zn2   S    
C1    C23   S    
C31   H8    S    
C39   H26   S    
C12   C34   S    
C32   H13   S    
O3    Zn2   S    
H20   N6    S    
C33   H17   S    
C3    H27   S    
C14   O5    A    
C3    C5    A    
O6    Zn1   S    
C2    C28   A    
C1    O3    A    
C14   C22   S    
C28   C30   A    
C17   H4    S    
C30   N6    S    
C37   C39   A    
C38   C40   A    
C10   H34   S    
O2    Zn1   S    
C18   N3    S    
C36   C38   A    
C17   C19   A    
C35   H22   S    
C32   N4    S    
C8    C13   A    
C2    C40   S    
C7    C13   S    
C20   C21   A    
C16   C18   A    
C23   C36   A    
O7    Zn2   S    
H5    N3    S    
C15   O8    A    
