data_mof_unit_42959.cif
_audit_creation_date              2012-12-10T17:35:43-0500
_audit_creation_method            fapswitch 2.2
_symmetry_space_group_name_H-M    P1
_symmetry_Int_Tables_number       1
_space_group_crystal_system       triclinic
_cell_length_a                    10.509027
_cell_length_b                    12.004608
_cell_length_c                    12.854049
_cell_angle_alpha                 93.952849
_cell_angle_beta                  90.128426
_cell_angle_gamma                 86.454512
_cell_volume                      1614.66767816

loop_
_atom_site_label
_atom_site_type_symbol
_atom_type_description
_atom_site_fract_x
_atom_site_fract_y
_atom_site_fract_z
_atom_type_partial_charge
C1    C     C_R   0.494745 0.522552 0.700047 0.928441
C2    C     C_R   0.610091 0.163327 0.585750 0.022705
C3    C     C_R   0.554304 0.858123 0.538886 -0.009095
C4    C     C_R   0.444843 0.141963 0.461914 -0.007260
C5    C     C_R   0.542409 0.976272 0.537049 -0.010510
C6    C     C_R   0.449854 0.024591 0.470084 -0.007698
C7    C     C_R   0.742447 0.500176 0.498475 0.957054
C8    C     C_R   0.257557 0.499816 0.501525 0.958555
C9    C     C_3   0.957986 0.461832 0.589194 -0.225259
C10   C     C_3   0.042029 0.538109 0.410809 -0.228937
C11   C     C_3   0.034457 0.566107 0.581112 0.005671
C12   C     C_R   0.505257 0.477451 0.299951 0.928808
C13   C     C_3   0.965560 0.433834 0.418895 0.003221
C14   C     C_3   0.122890 0.499518 0.502494 -0.065761
C15   C     C_3   0.877123 0.500434 0.497510 -0.060226
C16   C     C_3   0.048510 0.394345 0.509606 -0.170407
C17   C     C_3   0.951511 0.605597 0.490398 -0.190126
C18   C     C_R   0.506044 0.462580 0.188657 -0.109024
C19   C     C_R   0.493934 0.537437 0.811338 -0.116507
C20   C     C_R   0.598550 0.615051 0.962647 -0.134266
C21   C     C_R   0.401381 0.385012 0.037350 -0.138394
C22   C     C_R   0.573405 0.614961 0.857654 -0.192890
C23   C     C_R   0.431221 0.462682 0.869851 -0.077806
C24   C     C_R   0.426503 0.385114 0.142346 -0.206789
C25   C     C_2   0.069918 0.640984 0.673480 0.951823
C26   C     C_2   0.930110 0.358952 0.326531 0.970947
C27   C     C_2   0.659242 0.614322 0.181851 0.913723
C28   C     C_2   0.340917 0.385544 0.818119 0.915184
C29   C     C_2   0.261888 0.995711 0.345891 0.897450
C30   C     C_2   0.715263 0.006858 0.675181 0.908918
C31   C     C_R   0.568790 0.537312 0.130139 -0.073908
C32   C     C_R   0.457560 0.461488 0.976549 0.081868
C33   C     C_R   0.542406 0.538550 0.023449 0.078788
C34   C     C_R   0.368203 0.953569 0.411725 -0.122527
C35   C     C_R   0.621660 0.047584 0.597596 -0.124304
C36   C     C_R   0.385586 0.837180 0.418211 0.020280
H1    H     H_    0.919814 0.431400 0.661849 0.176154
H2    H     H_    0.626081 0.816838 0.585319 0.168788
H3    H     H_    0.669240 0.219178 0.631150 0.166581
H4    H     H_    0.324090 0.781595 0.374972 0.165569
H5    H     H_    0.209128 0.707917 0.761069 0.353422
H6    H     H_    0.790906 0.292063 0.238903 0.350362
H7    H     H_    0.701168 0.773373 0.221431 0.348800
H8    H     H_    0.299382 0.226408 0.778423 0.352814
H9    H     H_    0.157828 0.971257 0.215099 0.363609
H10   H     H_    0.886981 0.023378 0.743155 0.364908
H11   H     H_    0.080204 0.568537 0.338154 0.174090
H12   H     H_    0.091108 0.308294 0.517183 0.202113
H13   H     H_    0.908916 0.691645 0.482810 0.176734
H14   H     H_    0.377330 0.329038 0.188776 0.179859
H15   H     H_    0.622532 0.671077 0.811230 0.196529
H16   H     H_    0.665141 0.673490 0.994315 0.190854
H17   H     H_    0.334780 0.326586 0.005673 0.187362
H18   H     H_    0.380428 0.182371 0.408741 0.169120
N1    N     N_R   0.523490 0.207800 0.519350 -0.120644
N2    N     N_R   0.476510 0.792200 0.480650 -0.119677
O1    O     O_R   0.506270 0.421700 0.658830 -0.626136
O2    O     O_R   0.197901 0.656025 0.696529 -0.773195
O3    O     O_2   0.014221 0.311314 0.271495 -0.605289
O4    O     O_R   0.802132 0.343929 0.303463 -0.776066
O5    O     O_2   0.752706 0.576007 0.227200 -0.622799
O6    O     O_R   0.634270 0.730105 0.182026 -0.784900
O7    O     O_2   0.247378 0.423737 0.772782 -0.617940
O8    O     O_R   0.366136 0.269782 0.817900 -0.794209
O9    O     O_2   0.195696 0.079404 0.374880 -0.618514
O10   O     O_R   0.233359 0.935704 0.252503 -0.782000
O11   O     O_2   0.689172 0.933663 0.731763 -0.610897
O12   O     O_R   0.493730 0.578300 0.341170 -0.620928
O13   O     O_R   0.831672 0.056762 0.687032 -0.794811
O14   O     O_R   0.491200 0.609310 0.646410 -0.596945
O15   O     O_R   0.508800 0.390690 0.353590 -0.605718
O16   O     O_R   0.693580 0.406210 0.506230 -0.607752
O17   O     O_R   0.306420 0.593790 0.493770 -0.613079
O18   O     O_R   0.678510 0.593830 0.493810 -0.629896
O19   O     O_R   0.321490 0.406170 0.506190 -0.622222
O20   O     O_2   0.985812 0.688612 0.728529 -0.614721
Zn1   Zn    Zn3+2 0.510060 0.374730 0.508290 0.999375
Zn2   Zn    Zn3+2 0.489940 0.625270 0.491710 0.999553

loop_
_geom_bond_atom_site_label_1
_geom_bond_atom_site_label_2
_ccdc_geom_bond_type
C2    C35   A    
O14   Zn2   S    
C16   H12   S    
H8    O8    S    
C12   O12   A    
C30   C35   S    
C18   C24   A    
C9    C16   S    
H5    O2    S    
C2    N1    A    
C5    C6    A    
N1    Zn1   S    
C11   C14   S    
C11   C25   S    
C10   C17   S    
N2    Zn2   S    
H10   O13   S    
C27   O5    D    
C2    H3    S    
C3    H2    S    
O17   Zn2   S    
C31   C33   A    
C26   O3    D    
C30   O11   D    
C7    C15   S    
O12   Zn2   S    
C7    O18   A    
C24   H14   S    
C21   C32   A    
C1    C19   S    
C27   C31   S    
O1    Zn1   S    
C36   H4    S    
C19   C22   A    
C4    C6    A    
C10   C14   S    
H6    O4    S    
C7    O16   A    
C29   C34   S    
C8    O19   A    
C6    C34   A    
C19   C23   A    
O16   Zn1   S    
C36   N2    A    
C27   O6    S    
C1    O1    A    
C9    C11   S    
C3    N2    A    
C9    H1    S    
C23   C28   S    
O19   Zn1   S    
C29   O9    D    
C20   C33   A    
C28   O8    S    
C12   O15   A    
C20   C22   A    
C13   C15   S    
C4    N1    A    
C14   C16   S    
C13   C26   S    
C13   C16   S    
C25   O2    S    
C17   H13   S    
O15   Zn1   S    
C30   O13   S    
C15   C17   S    
C11   C17   S    
C8    C14   S    
C4    H18   S    
C3    C5    A    
C10   C13   S    
C1    O14   A    
C25   O20   D    
C23   C32   A    
C9    C15   S    
C20   H16   S    
C32   C33   A    
C21   H17   S    
C5    C35   A    
C8    O17   A    
C34   C36   A    
C29   O10   S    
C28   O7    D    
O18   Zn2   S    
C21   C24   A    
C12   C18   S    
H9    O10   S    
C18   C31   A    
C10   H11   S    
C26   O4    S    
H7    O6    S    
C22   H15   S    
