data_mof_unit_28734.cif
_audit_creation_date              2012-12-11T15:41:20-0500
_audit_creation_method            fapswitch 2.2
_symmetry_space_group_name_H-M    P1
_symmetry_Int_Tables_number       1
_space_group_crystal_system       triclinic
_cell_length_a                    19.038446
_cell_length_b                    10.949274
_cell_length_c                    18.821431
_cell_angle_alpha                 89.986627
_cell_angle_beta                  90.268902
_cell_angle_gamma                 89.989478
_cell_volume                      3923.41870351

loop_
_atom_site_label
_atom_site_type_symbol
_atom_type_description
_atom_site_fract_x
_atom_site_fract_y
_atom_site_fract_z
_atom_type_partial_charge
C1    C     C_R   0.724451 0.962225 0.856334 0.554856
C2    C     C_R   0.296222 0.490867 0.041638 0.065001
C3    C     C_R   0.762335 0.856392 0.355973 0.547419
C4    C     C_2   0.498081 0.169066 0.921219 -0.117805
C5    C     C_2   0.501900 0.169082 0.078770 -0.118253
C6    C     C_2   0.998081 0.669066 0.921219 -0.117805
C7    C     C_2   0.001901 0.669082 0.078770 -0.118253
C8    C     C_2   0.492711 0.069163 0.038337 -0.158875
C9    C     C_2   0.507286 0.069152 0.961680 -0.158680
C10   C     C_2   0.992711 0.569163 0.038337 -0.158875
C11   C     C_2   0.007286 0.569152 0.961680 -0.158680
C12   C     C_R   0.765463 0.443781 0.067790 0.003172
C13   C     C_R   0.203765 0.990876 0.958333 0.065137
C14   C     C_R   0.234540 0.443738 0.932200 0.003481
C15   C     C_R   0.265463 0.943782 0.067790 0.003172
C16   C     C_R   0.734539 0.943739 0.932200 0.003481
C17   C     C_3   0.547594 0.565202 0.879325 -0.094902
C18   C     C_3   0.452408 0.565176 0.120594 -0.095029
C19   C     C_3   0.047593 0.065201 0.879326 -0.094905
C20   C     C_3   0.952412 0.065174 0.120590 -0.095030
C21   C     C_R   0.796221 0.990868 0.041638 0.065005
C22   C     C_R   0.817387 0.394751 0.953945 -0.148780
C23   C     C_R   0.182605 0.394795 0.046055 -0.148951
C24   C     C_R   0.317387 0.894751 0.953944 -0.148779
C25   C     C_R   0.682604 0.894794 0.046055 -0.148952
C26   C     C_R   0.821956 0.399354 0.027473 -0.134993
C27   C     C_R   0.178046 0.399350 0.972526 -0.134908
C28   C     C_R   0.321956 0.899354 0.027473 -0.134994
C29   C     C_R   0.275553 0.962251 0.143657 0.555233
C30   C     C_R   0.678046 0.899349 0.972526 -0.134909
C31   C     C_3   0.632991 0.492115 0.042554 -0.221031
C32   C     C_3   0.367000 0.492054 0.957418 -0.220956
C33   C     C_3   0.132992 0.992117 0.042553 -0.221034
C34   C     C_3   0.866999 0.992057 0.957419 -0.220958
C35   C     C_3   0.625310 0.484309 0.962048 0.155252
C36   C     C_3   0.374678 0.484277 0.037926 0.155181
C37   C     C_3   0.125310 0.984311 0.962048 0.155251
C38   C     C_3   0.874677 0.984279 0.037927 0.155181
C39   C     C_R   0.754136 0.426264 0.919284 -0.013278
C40   C     C_R   0.224451 0.462225 0.856334 0.554856
C41   C     C_R   0.245853 0.426289 0.080707 -0.013577
C42   C     C_R   0.254137 0.926265 0.919284 -0.013278
C43   C     C_R   0.745852 0.926289 0.080707 -0.013577
C44   C     C_R   0.479957 0.169450 0.432571 0.017859
C45   C     C_R   0.490030 0.170957 0.579820 0.017668
C46   C     C_R   0.979957 0.669450 0.432571 0.017859
C47   C     C_R   0.990030 0.670957 0.579820 0.017668
C48   C     C_R   0.474533 0.278101 0.470224 0.044113
C49   C     C_R   0.478620 0.279917 0.542404 0.030802
C50   C     C_R   0.974532 0.778101 0.470224 0.044113
C51   C     C_R   0.775553 0.462251 0.143658 0.555234
C52   C     C_R   0.978620 0.779917 0.542404 0.030802
C53   C     C_R   0.480458 0.059305 0.544365 -0.167024
C54   C     C_R   0.476316 0.058472 0.470161 -0.161663
C55   C     C_R   0.980458 0.559305 0.544365 -0.167024
C56   C     C_R   0.976315 0.558473 0.470161 -0.161663
C57   C     C_R   0.529997 0.177651 0.850878 0.549213
C58   C     C_R   0.469995 0.177658 0.149117 0.549951
C59   C     C_R   0.029997 0.677651 0.850878 0.549213
C60   C     C_R   0.969995 0.677658 0.149117 0.549950
C61   C     C_3   0.513834 0.394470 0.460594 -0.280497
C62   C     C_R   0.710156 0.500276 0.031383 -0.005120
C63   C     C_3   0.518983 0.398273 0.540466 -0.269723
C64   C     C_3   0.013833 0.894470 0.460594 -0.280497
C65   C     C_3   0.018983 0.898273 0.540466 -0.269723
C66   C     C_R   0.762986 0.441362 0.430242 0.014944
C67   C     C_R   0.248886 0.402182 0.579969 0.014753
C68   C     C_R   0.262986 0.941362 0.430242 0.014944
C69   C     C_R   0.748886 0.902181 0.579969 0.014753
C70   C     C_R   0.818369 0.391783 0.469184 0.041550
C71   C     C_R   0.199975 0.332582 0.541534 0.030321
C72   C     C_R   0.318369 0.891784 0.469184 0.041550
C73   C     C_R   0.289835 0.500237 0.968587 -0.004909
C74   C     C_R   0.699975 0.832581 0.541534 0.030321
C75   C     C_R   0.815311 0.381563 0.541628 0.029127
C76   C     C_R   0.204401 0.323039 0.469117 0.039904
C77   C     C_R   0.315311 0.881563 0.541628 0.029127
C78   C     C_R   0.704401 0.823039 0.469117 0.039904
C79   C     C_R   0.705510 0.490806 0.542108 -0.164319
C80   C     C_R   0.313648 0.432516 0.470458 -0.159451
C81   C     C_R   0.205510 0.990806 0.542108 -0.164319
C82   C     C_R   0.813648 0.932516 0.470458 -0.159451
C83   C     C_R   0.708861 0.500653 0.467757 -0.160405
C84   C     C_R   0.210157 0.000278 0.031382 -0.005119
C85   C     C_R   0.309852 0.441295 0.544819 -0.166592
C86   C     C_R   0.208861 0.000653 0.467757 -0.160405
C87   C     C_R   0.809852 0.941295 0.544819 -0.166592
C88   C     C_3   0.855066 0.272721 0.459815 -0.280663
C89   C     C_3   0.121327 0.339173 0.537996 -0.269573
C90   C     C_3   0.355066 0.772721 0.459815 -0.280663
C91   C     C_3   0.621327 0.839173 0.537996 -0.269573
C92   C     C_3   0.851892 0.260345 0.539681 -0.270712
C93   C     C_3   0.126899 0.328167 0.458205 -0.281357
C94   C     C_3   0.351892 0.760345 0.539681 -0.270712
C95   C     C_R   0.789834 0.000239 0.968587 -0.004910
C96   C     C_3   0.626899 0.828167 0.458205 -0.281356
C97   C     C_R   0.755616 0.419876 0.578673 0.015898
C98   C     C_R   0.257386 0.381544 0.431552 0.015348
C99   C     C_R   0.255616 0.919876 0.578673 0.015898
C100  C     C_R   0.757386 0.881544 0.431552 0.015348
C101  C     C_R   0.738775 0.365713 0.852061 0.547107
C102  C     C_R   0.261222 0.365719 0.147938 0.547501
C103  C     C_R   0.238775 0.865713 0.852061 0.547107
C104  C     C_R   0.761222 0.865719 0.147938 0.547502
C105  C     C_R   0.728080 0.953635 0.648054 0.545757
C106  C     C_R   0.703765 0.490875 0.958333 0.065135
C107  C     C_R   0.274138 0.960719 0.354792 0.546994
C108  C     C_R   0.228080 0.453635 0.648054 0.545757
C109  C     C_R   0.774138 0.460719 0.354792 0.546994
C110  C     C_R   0.528071 0.176625 0.646043 0.548665
C111  C     C_R   0.466761 0.176274 0.357485 0.547294
C112  C     C_R   0.028071 0.676625 0.646043 0.548665
C113  C     C_R   0.966761 0.676274 0.357485 0.547294
C114  C     C_R   0.740025 0.363654 0.646919 0.546613
C115  C     C_R   0.262335 0.356392 0.355973 0.547419
C116  C     C_R   0.240025 0.863654 0.646919 0.546613
Cr1   Cr    Cr6+3 0.769260 0.163750 0.750730 1.003046
Cr2   Cr    Cr6+3 0.385810 0.322400 0.252290 0.988764
Cr3   Cr    Cr6+3 0.114190 0.822400 0.747710 0.985455
Cr4   Cr    Cr6+3 0.885810 0.822400 0.252290 0.988767
Cr5   Cr    Cr6+3 0.230740 0.163750 0.249270 1.006003
Cr6   Cr    Cr6+3 0.269260 0.663750 0.750730 1.003046
Cr7   Cr    Cr6+3 0.730740 0.663750 0.249270 1.006003
Cr8   Cr    Cr6+3 0.612640 0.009910 0.748780 1.009055
Cr9   Cr    Cr6+3 0.387360 0.009910 0.251220 1.012145
Cr10  Cr    Cr6+3 0.112640 0.509910 0.748780 1.009056
Cr11  Cr    Cr6+3 0.887360 0.509910 0.251220 1.012147
Cr12  Cr    Cr6+3 0.614190 0.322400 0.747710 0.985454
H1    H     H_    0.473405 0.984959 0.061489 0.148226
H2    H     H_    0.489320 0.475315 0.564419 0.123248
H3    H     H_    0.065342 0.880862 0.434091 0.135634
H4    H     H_    0.989320 0.975315 0.564419 0.123248
H5    H     H_    0.661371 0.530321 0.569871 0.120295
H6    H     H_    0.358972 0.469040 0.443474 0.131160
H7    H     H_    0.161371 0.030321 0.569871 0.120295
H8    H     H_    0.858972 0.969040 0.443475 0.131160
H9    H     H_    0.909403 0.283421 0.439533 0.132556
H10   H     H_    0.101263 0.429594 0.554734 0.167680
H11   H     H_    0.409403 0.783421 0.439533 0.132555
H12   H     H_    0.526606 0.984945 0.938553 0.148341
H13   H     H_    0.601263 0.929594 0.554734 0.167680
H14   H     H_    0.822371 0.204345 0.431117 0.137055
H15   H     H_    0.095771 0.259017 0.563314 0.126258
H16   H     H_    0.322371 0.704346 0.431117 0.137054
H17   H     H_    0.595770 0.759017 0.563314 0.126258
H18   H     H_    0.816967 0.185173 0.556703 0.167163
H19   H     H_    0.105064 0.241190 0.437283 0.132375
H20   H     H_    0.316967 0.685173 0.556703 0.167163
H21   H     H_    0.605064 0.741190 0.437283 0.132374
H22   H     H_    0.904395 0.263033 0.565746 0.125873
H23   H     H_    0.973405 0.484959 0.061489 0.148226
H24   H     H_    0.109805 0.411776 0.429342 0.136719
H25   H     H_    0.404395 0.763033 0.565747 0.125872
H26   H     H_    0.609805 0.911776 0.429342 0.136719
H27   H     H_    0.523947 0.251740 0.056100 0.089357
H28   H     H_    0.476022 0.251726 0.943866 0.089395
H29   H     H_    0.023947 0.751740 0.056100 0.089357
H30   H     H_    0.976022 0.751726 0.943866 0.089395
H31   H     H_    0.860479 0.352459 0.925696 0.149733
H32   H     H_    0.139512 0.352538 0.074317 0.149620
H33   H     H_    0.360479 0.852458 0.925696 0.149734
H34   H     H_    0.026606 0.484944 0.938553 0.148341
H35   H     H_    0.639512 0.852536 0.074317 0.149622
H36   H     H_    0.869220 0.364635 0.052463 0.169657
H37   H     H_    0.130790 0.364632 0.947545 0.169745
H38   H     H_    0.369220 0.864635 0.052463 0.169657
H39   H     H_    0.630790 0.864630 0.947545 0.169746
H40   H     H_    0.111619 0.077566 0.065972 0.165484
H41   H     H_    0.888360 0.077492 0.933967 0.165579
H42   H     H_    0.611618 0.577562 0.065973 0.165486
H43   H     H_    0.388361 0.577488 0.933965 0.165580
H44   H     H_    0.617663 0.406834 0.070518 0.076750
H45   H     H_    0.981006 0.968919 0.438073 0.133657
H46   H     H_    0.382339 0.406760 0.929487 0.076752
H47   H     H_    0.117663 0.906837 0.070518 0.076749
H48   H     H_    0.882339 0.906764 0.929487 0.076752
H49   H     H_    0.603183 0.395141 0.943854 0.117927
H50   H     H_    0.396815 0.395110 0.056157 0.117771
H51   H     H_    0.103183 0.895142 0.943854 0.117927
H52   H     H_    0.896813 0.895111 0.056157 0.117770
H53   H     H_    0.483354 0.973461 0.572772 0.122350
H54   H     H_    0.473070 0.972114 0.442480 0.131931
H55   H     H_    0.983354 0.473461 0.572772 0.122350
H56   H     H_    0.074001 0.888528 0.558885 0.170657
H57   H     H_    0.973070 0.472114 0.442480 0.131931
H58   H     H_    0.668336 0.550737 0.439775 0.130517
H59   H     H_    0.351447 0.487245 0.573640 0.120301
H60   H     H_    0.168336 0.050737 0.439776 0.130518
H61   H     H_    0.851447 0.987245 0.573640 0.120301
H62   H     H_    0.506851 0.498811 0.896418 0.115850
H63   H     H_    0.576314 0.530564 0.832263 0.159217
H64   H     H_    0.520247 0.650415 0.863323 0.120675
H65   H     H_    0.493156 0.498781 0.103503 0.115805
H66   H     H_    0.423713 0.530540 0.167677 0.159032
H67   H     H_    0.481006 0.468918 0.438073 0.133657
H68   H     H_    0.479744 0.650389 0.136558 0.120613
H69   H     H_    0.006850 0.998813 0.896421 0.115848
H70   H     H_    0.076311 0.030561 0.832264 0.159219
H71   H     H_    0.020246 0.150415 0.863324 0.120676
H72   H     H_    0.993158 0.998782 0.103495 0.115801
H73   H     H_    0.923722 0.030535 0.167676 0.159033
H74   H     H_    0.979749 0.150387 0.136554 0.120613
H75   H     H_    0.574001 0.388528 0.558885 0.170657
H76   H     H_    0.565342 0.380861 0.434091 0.135634
O1    O     O_R   0.784290 0.290360 0.830540 -0.523574
O2    O     O_R   0.456020 0.282110 0.333230 -0.521801
O3    O     O_R   0.043980 0.782110 0.666770 -0.527714
O4    O     O_R   0.956020 0.782110 0.333230 -0.521801
O5    O     O_R   0.679070 0.374030 0.674430 -0.510884
O6    O     O_R   0.320930 0.374030 0.325570 -0.509495
O7    O     O_R   0.179070 0.874030 0.674430 -0.510884
O8    O     O_R   0.820930 0.874030 0.325570 -0.509495
O9    O     O_3   0.665360 0.165350 0.749070 -0.241489
O10   O     O_3   0.334640 0.165350 0.250930 -0.246283
O11   O     O_3   0.165360 0.665350 0.749070 -0.241489
O12   O     O_R   0.215710 0.290360 0.169460 -0.523589
O13   O     O_3   0.834640 0.665350 0.250930 -0.246284
O14   O     O_R   0.762610 0.041070 0.825230 -0.499964
O15   O     O_R   0.237390 0.041070 0.174770 -0.499762
O16   O     O_R   0.262610 0.541070 0.825230 -0.499964
O17   O     O_R   0.737390 0.541070 0.174770 -0.499762
O18   O     O_R   0.667390 0.924160 0.829970 -0.519325
O19   O     O_R   0.332610 0.924160 0.170030 -0.519390
O20   O     O_R   0.167390 0.424160 0.829970 -0.519324
O21   O     O_R   0.832610 0.424160 0.170030 -0.519388
O22   O     O_R   0.553980 0.081420 0.821780 -0.495896
O23   O     O_R   0.284290 0.790360 0.830540 -0.523575
O24   O     O_R   0.446020 0.081420 0.178220 -0.495508
O25   O     O_R   0.053980 0.581420 0.821780 -0.495896
O26   O     O_R   0.946020 0.581420 0.178220 -0.495508
O27   O     O_R   0.543210 0.283170 0.826740 -0.546679
O28   O     O_R   0.456790 0.283170 0.173260 -0.546392
O29   O     O_R   0.043210 0.783170 0.826740 -0.546679
O30   O     O_R   0.956790 0.783170 0.173260 -0.546392
O31   O     O_R   0.678350 0.375000 0.822720 -0.511802
O32   O     O_R   0.321650 0.375000 0.177280 -0.511580
O33   O     O_R   0.178350 0.875000 0.822720 -0.511800
O34   O     O_R   0.715710 0.790360 0.169460 -0.523589
O35   O     O_R   0.821650 0.875000 0.177280 -0.511576
O36   O     O_R   0.785060 0.289300 0.670580 -0.522811
O37   O     O_R   0.214940 0.289300 0.329420 -0.518879
O38   O     O_R   0.285060 0.789300 0.670580 -0.522811
O39   O     O_R   0.714940 0.789300 0.329420 -0.518880
O40   O     O_R   0.763330 0.040090 0.676940 -0.509739
O41   O     O_R   0.236670 0.040090 0.323060 -0.508308
O42   O     O_R   0.263330 0.540090 0.676940 -0.509739
O43   O     O_R   0.736670 0.540090 0.323060 -0.508308
O44   O     O_R   0.668160 0.923110 0.670000 -0.520880
O45   O     O_R   0.554690 0.080440 0.673480 -0.510722
O46   O     O_R   0.331840 0.923110 0.330000 -0.517121
O47   O     O_R   0.168160 0.423110 0.670000 -0.520880
O48   O     O_R   0.831840 0.423110 0.330000 -0.517120
O49   O     O_3   0.594566 0.592641 0.935010 -0.565563
O50   O     O_3   0.405407 0.592612 0.064921 -0.565569
O51   O     O_3   0.094567 0.092642 0.935009 -0.565563
O52   O     O_3   0.905405 0.092612 0.064924 -0.565569
O53   O     O_R   0.445310 0.080440 0.326520 -0.508795
O54   O     O_R   0.054690 0.580440 0.673480 -0.510722
O55   O     O_R   0.945310 0.580440 0.326520 -0.508796
O56   O     O_R   0.543980 0.282110 0.666770 -0.527714

loop_
_geom_bond_atom_site_label_1
_geom_bond_atom_site_label_2
_ccdc_geom_bond_type
C35   H49   S    
C7    C10   D    
C38   O52   S    
C55   C56   A    
C109  O48   A    
C102  O32   A    
C49   C63   S    
C108  O42   A    
C18   H66   S    
C24   C42   A    
C24   H33   S    
C52   C65   S    
C75   C97   A    
C70   C88   S    
C42   C103  S    
C25   C43   A    
C80   C85   A    
Cr7   O39   S    
C90   H11   S    
C15   C28   A    
Cr6   O38   S    
C53   C54   A    
C17   H63   S    
Cr3   O11   S    
Cr7   O17   S    
C13   C84   A    
C17   O49   S    
Cr8   O45   S    
Cr6   O16   S    
C5    C58   S    
C40   O20   A    
C60   O26   A    
C50   C64   S    
Cr12  O56   S    
C114  O5    A    
C47   C55   A    
Cr9   O46   S    
Cr2   O2    S    
C51   O17   A    
C30   H39   S    
C116  O7    A    
Cr1   O1    S    
C61   H76   S    
C71   C76   A    
C57   O27   A    
C9    H12   S    
Cr10  O20   S    
C67   C108  S    
C67   C71   A    
C31   H44   S    
C96   H21   S    
C2    C41   A    
C103  O23   A    
C82   C87   A    
Cr9   O53   S    
C77   C94   S    
C3    O8    A    
C80   H6    S    
C41   C102  S    
Cr11  O48   S    
Cr9   O10   S    
C63   H2    S    
C61   C63   S    
C43   C104  S    
C20   H72   S    
C22   C26   A    
C112  O54   A    
C66   C83   A    
C21   C43   A    
C104  O35   A    
C3    C100  S    
Cr3   O29   S    
C96   H26   S    
C21   C38   S    
C88   C92   S    
Cr1   O36   S    
C78   C96   S    
C8    C9    S    
C37   O51   S    
C4    C57   S    
C101  O31   A    
C50   C52   A    
C85   H59   S    
C54   H54   S    
C83   H58   S    
C15   C29   S    
C1    O14   A    
C68   C107  S    
C23   C27   A    
C14   C27   A    
Cr9   O24   S    
C61   H67   S    
C105  O40   A    
C13   C37   S    
C81   C86   A    
C46   C113  S    
C44   C54   A    
C103  O33   A    
Cr12  O9    S    
Cr6   O42   S    
Cr7   O34   S    
Cr4   O30   S    
Cr12  O31   S    
Cr5   O41   S    
C91   C96   S    
C45   C53   A    
C17   H64   S    
C115  O37   A    
C40   O16   A    
C18   H65   S    
C89   C93   S    
C65   H4    S    
Cr5   O15   S    
C31   C62   S    
C59   O29   A    
Cr4   O8    S    
C79   H5    S    
C101  O1    A    
C88   H14   S    
C13   C42   A    
C6    H30   S    
C79   C97   A    
C90   C94   S    
Cr8   O9    S    
Cr9   O19   S    
C110  O45   A    
C94   H20   S    
C37   H51   S    
C116  O38   A    
C67   C85   A    
C19   H69   S    
Cr10  O54   S    
C108  O47   A    
C92   H18   S    
Cr4   O4    S    
C113  O4    A    
Cr1   O14   S    
Cr10  O25   S    
C38   H52   S    
C34   C95   S    
Cr10  O11   S    
Cr2   O28   S    
C99   C116  S    
C69   C105  S    
C45   C110  S    
Cr3   O33   S    
C10   H23   S    
C81   C99   A    
C22   C39   A    
C5    H27   S    
C18   H68   S    
C1    O18   A    
Cr11  O26   S    
C18   O50   S    
C115  O6    A    
C36   H50   S    
C12   C26   A    
Cr10  O47   S    
C74   C91   S    
Cr8   O44   S    
C78   C100  A    
Cr5   O37   S    
Cr5   O12   S    
C105  O44   A    
C110  O56   A    
C72   C77   A    
Cr6   O11   S    
C53   H53   S    
C76   C93   S    
C34   H48   S    
C12   C62   A    
C14   C73   A    
C64   H45   S    
Cr8   O22   S    
C71   C89   S    
C64   H3    S    
C45   C49   A    
C68   C72   A    
C39   C101  S    
C23   H32   S    
C39   C106  A    
C60   O30   A    
C69   C74   A    
Cr2   O10   S    
C1    C16   S    
C3    O39   A    
Cr1   O9    S    
C44   C48   A    
C34   H41   S    
C111  O2    A    
C15   C84   A    
C2    C73   A    
C63   H75   S    
C75   C92   S    
C27   H37   S    
C7    H29   S    
C68   C86   A    
C19   O51   S    
C48   C49   A    
C4    H28   S    
C32   H43   S    
Cr8   O18   S    
Cr12  O27   S    
C2    C36   S    
C6    C11   D    
C92   H22   S    
C44   C111  S    
Cr11  O55   S    
C33   H40   S    
Cr3   O3    S    
C57   O22   A    
C16   C30   A    
C59   O25   A    
C32   C36   S    
C7    C60   S    
C91   H17   S    
C12   C51   S    
C58   O24   A    
Cr11  O13   S    
C114  O36   A    
C72   C90   S    
C102  O12   A    
C25   C30   A    
C29   O19   A    
C19   H70   S    
C107  O46   A    
C80   C98   A    
C20   O52   S    
C34   C38   S    
C82   C100  A    
C6    C59   S    
C107  O41   A    
Cr12  O5    S    
C24   C28   A    
C112  O3    A    
C69   C87   A    
C20   H73   S    
C5    C8    D    
C104  O34   A    
C47   C52   A    
C62   C106  A    
C31   H42   S    
C28   H38   S    
C17   H62   S    
C21   C95   A    
C46   C50   A    
C33   H47   S    
C19   H71   S    
C23   C41   A    
C87   H61   S    
C51   O21   A    
Cr2   O6    S    
Cr5   O10   S    
C93   H19   S    
C4    C9    D    
C20   H74   S    
C35   C106  S    
C89   H15   S    
C22   H31   S    
C64   C65   S    
Cr7   O43   S    
C16   C95   A    
C98   C115  S    
C66   C70   A    
C81   H7    S    
C32   H46   S    
C25   H35   S    
C94   H25   S    
Cr6   O23   S    
C26   H36   S    
C111  O53   A    
C33   C37   S    
C77   C99   A    
C31   C35   S    
C11   H34   S    
C66   C109  S    
C82   H8    S    
Cr7   O13   S    
C33   C84   S    
C36   O50   S    
C88   H9    S    
C8    H1    S    
C58   O28   A    
C10   C11   S    
Cr4   O13   S    
Cr4   O35   S    
C14   C40   S    
C79   C83   A    
Cr1   O40   S    
Cr2   O32   S    
C29   O15   A    
C56   H57   S    
C109  O43   A    
C89   H10   S    
C74   C78   A    
C46   C56   A    
C70   C75   A    
C35   O49   S    
C48   C61   S    
C55   H55   S    
Cr3   O7    S    
C93   H24   S    
Cr11  O21   S    
C113  O55   A    
C97   C114  S    
C76   C98   A    
C32   C73   S    
C90   H16   S    
C86   H60   S    
C47   C112  S    
C91   H13   S    
C65   H56   S    
