data_mof_unit_32548.cif
_audit_creation_date              2012-12-10T18:11:43-0500
_audit_creation_method            fapswitch 2.2
_symmetry_space_group_name_H-M    P1
_symmetry_Int_Tables_number       1
_space_group_crystal_system       triclinic
_cell_length_a                    10.508537
_cell_length_b                    12.624989
_cell_length_c                    13.163945
_cell_angle_alpha                 81.895834
_cell_angle_beta                  90.921258
_cell_angle_gamma                 102.763293
_cell_volume                      1686.09400452

loop_
_atom_site_label
_atom_site_type_symbol
_atom_type_description
_atom_site_fract_x
_atom_site_fract_y
_atom_site_fract_z
_atom_type_partial_charge
C1    C     C_R   0.478634 0.438535 0.691055 0.869224
C2    C     C_3   0.063604 0.581743 0.427612 -0.248163
C3    C     C_3   0.987721 0.598935 0.521969 -0.191425
C4    C     C_3   0.877742 0.502713 0.500410 -0.085794
C5    C     C_R   0.448915 0.718109 0.052869 0.063380
C6    C     C_R   0.510060 0.598096 0.197729 -0.069224
C7    C     C_R   0.479256 0.295244 0.839668 -0.181364
C8    C     C_R   0.483253 0.264441 0.944918 -0.135902
C9    C     C_R   0.475233 0.339330 0.011385 -0.180349
C10   C     C_R   0.456723 0.445667 0.973058 0.108505
C11   C     C_R   0.430528 0.468793 0.868085 0.082585
C12   C     C_R   0.742226 0.501103 0.500049 0.923440
C13   C     C_R   0.465495 0.530605 0.034475 0.036550
C14   C     C_R   0.432692 0.631343 0.993702 0.135069
C15   C     C_R   0.384155 0.643327 0.894369 -0.181937
C16   C     C_R   0.381159 0.562455 0.833049 -0.142665
C17   C     C_R   0.510410 0.519005 0.134323 -0.293271
C18   C     C_R   0.488171 0.701378 0.155865 0.051746
C19   C     C_R   0.457148 0.398721 0.800532 -0.100600
C20   C     C_R   0.307153 0.085728 0.355521 -0.247862
C21   C     C_R   0.657474 0.800205 0.627684 0.720176
C22   C     C_R   0.690060 0.905263 0.656528 -0.029121
C23   C     C_R   0.514890 0.561570 0.308256 0.880785
C24   C     C_R   0.627975 0.985468 0.608891 -0.269520
C25   C     C_R   0.534075 0.961783 0.532542 -0.021299
C26   C     C_R   0.504156 0.853869 0.507071 0.040821
C27   C     C_R   0.469235 0.040734 0.480414 -0.050537
C28   C     C_R   0.371955 0.008959 0.407449 0.055263
C29   C     C_R   0.341885 0.901408 0.386168 0.516060
C30   C     C_R   0.410265 0.826369 0.433009 -0.236944
C31   C     C_R   0.497266 0.150877 0.497035 -0.012348
C32   C     C_R   0.339654 0.193026 0.375508 -0.025008
C33   C     C_R   0.257794 0.499083 0.499477 0.898569
C34   C     C_3   0.936902 0.418944 0.570789 -0.264312
C35   C     C_3   0.048430 0.514902 0.590968 0.684435
C36   C     C_3   0.122395 0.497829 0.498198 -0.121707
C37   C     C_3   0.012710 0.401357 0.476538 -0.261859
C38   C     C_3   0.952470 0.485743 0.408523 0.153426
H1    H     H_    0.544283 0.446911 0.165896 0.171342
H2    H     H_    0.496938 0.239305 0.788963 0.156719
H3    H     H_    0.481471 0.310855 0.092074 0.131537
H4    H     H_    0.498527 0.183924 0.975017 0.145326
H5    H     H_    0.340779 0.574814 0.757402 0.216610
H6    H     H_    0.290284 0.253468 0.336538 0.138346
H7    H     H_    0.232638 0.063427 0.299753 0.200316
H8    H     H_    0.569182 0.182928 0.550471 0.122624
H9    H     H_    0.882051 0.354278 0.629973 0.159278
H10   H     H_    0.654825 0.064947 0.633979 0.165383
H11   H     H_    0.389426 0.747560 0.408220 0.227728
H12   H     H_    0.025911 0.322010 0.456192 0.170410
H13   H     H_    0.118393 0.646013 0.368097 0.207463
H14   H     H_    0.974436 0.678432 0.541877 0.193934
H15   H     H_    0.350795 0.716158 0.862514 0.185207
N1    N     N_R   0.432930 0.222190 0.444670 -0.102701
N2    N     N_R   0.566370 0.776980 0.554790 -0.172640
O1    O     O_R   0.467970 0.366730 0.627150 -0.625027
O2    O     O_R   0.510820 0.544830 0.662520 -0.565149
O3    O     O_R   0.664630 0.410960 0.482340 -0.634776
O4    O     O_R   0.707470 0.589060 0.517710 -0.563931
O5    O     O_R   0.489180 0.455170 0.337480 -0.629454
O6    O     O_R   0.532030 0.633270 0.372850 -0.611080
O7    O     O_R   0.292530 0.410940 0.482290 -0.623870
O8    O     O_R   0.335370 0.589040 0.517660 -0.635347
Zn1   Zn    Zn3+2 0.471390 0.381080 0.476380 0.936567
Zn2   Zn    Zn3+2 0.528610 0.618920 0.523620 1.003076
F1    F     F_    0.102703 0.529430 0.685711 -0.685325
F2    F     F_    0.247790 0.869089 0.317959 -0.707833
F3    F     F_    0.716460 0.720516 0.672268 -0.660013
N3    N     N_3   0.784403 0.932253 0.734274 -0.440833
H16   H     H_    0.818844 0.863479 0.766069 0.244700
H17   H     H_    0.864440 0.989007 0.698570 0.189768
N4    N     N_3   0.895276 0.471158 0.308544 -0.446342
H18   H     H_    0.969116 0.461760 0.260609 0.189229
H19   H     H_    0.826015 0.396928 0.317480 0.193594
N5    N     N_3   0.505551 0.788244 0.217342 -0.446152
H20   H     H_    0.419523 0.816613 0.215917 0.225218
H21   H     H_    0.580252 0.852434 0.184415 0.186742
N6    N     N_3   0.423937 0.821999 0.008254 -0.474417
H22   H     H_    0.508046 0.883086 0.013309 0.190242
H23   H     H_    0.348330 0.838783 0.049536 0.204711

loop_
_geom_bond_atom_site_label_1
_geom_bond_atom_site_label_2
_ccdc_geom_bond_type
O8    Zn2   S    
C18   N5    S    
C34   C37   S    
C35   C36   S    
C26   N2    A    
C7    C8    A    
C11   C19   A    
C29   C30   A    
C15   H15   S    
C28   C29   A    
C1    O1    A    
C8    H4    S    
N6    H23   S    
C15   C16   A    
C33   C36   S    
C34   C35   S    
C17   H1    S    
N3    H17   S    
O7    Zn1   S    
C29   F2    S    
C12   O4    A    
C8    C9    A    
C31   H8    S    
C7    H2    S    
O1    Zn1   S    
C4    C12   S    
C9    C10   A    
C22   N3    S    
C20   H7    S    
C12   O3    A    
C21   C22   A    
C32   N1    A    
N2    Zn2   S    
C4    C34   S    
O3    Zn1   S    
C23   O5    A    
C6    C18   A    
C38   N4    S    
C1    C19   S    
C27   C31   A    
C24   H10   S    
C24   C25   A    
N4    H19   S    
C2    H13   S    
C21   N2    A    
N6    H22   S    
C33   O7    A    
C5    C18   A    
C20   C28   A    
C35   F1    S    
C25   C26   A    
N5    H20   S    
C37   C38   S    
C1    O2    A    
C11   C16   A    
C2    C38   S    
C3    C35   S    
C33   O8    A    
C32   H6    S    
N5    H21   S    
C16   H5    S    
C5    C14   A    
C30   H11   S    
C4    C38   S    
C26   C30   A    
C7    C19   A    
C21   F3    S    
C22   C24   A    
C3    C4    S    
C20   C32   A    
C2    C36   S    
C6    C17   A    
C36   C37   S    
O2    Zn2   S    
N4    H18   S    
C10   C13   A    
C3    H14   S    
C25   C27   A    
C9    H3    S    
C13   C17   A    
O5    Zn1   S    
C2    C3    S    
O4    Zn2   S    
C37   H12   S    
N1    Zn1   S    
C6    C23   S    
C31   N1    A    
N3    H16   S    
C10   C11   A    
O6    Zn2   S    
C23   O6    A    
C27   C28   A    
C14   C15   A    
C34   H9    S    
C5    N6    S    
C13   C14   A    
