data_mof_unit_66532.cif
_audit_creation_date              2012-12-10T20:52:12-0500
_audit_creation_method            fapswitch 2.2
_symmetry_space_group_name_H-M    P1
_symmetry_Int_Tables_number       1
_space_group_crystal_system       triclinic
_cell_length_a                    10.890524
_cell_length_b                    8.908127
_cell_length_c                    8.348442
_cell_angle_alpha                 90.92087
_cell_angle_beta                  92.774336
_cell_angle_gamma                 91.177752
_cell_volume                      808.678866032

loop_
_atom_site_label
_atom_site_type_symbol
_atom_type_description
_atom_site_fract_x
_atom_site_fract_y
_atom_site_fract_z
_atom_type_partial_charge
C1    C     C_R   0.499725 0.219028 0.499166 0.890094
C2    C     C_R   0.739340 0.487969 0.502702 0.876082
C3    C     C_R   0.219459 0.518799 0.001968 0.348958
C4    C     C_R   0.770307 0.283001 0.929030 0.360140
C5    C     C_R   0.143564 0.535483 0.127490 -0.138014
C6    C     C_R   0.851302 0.311895 0.811114 -0.192168
C7    C     C_R   0.100825 0.408943 0.204302 -0.004734
C8    C     C_R   0.900925 0.457369 0.797196 0.015149
C9    C     C_R   0.110593 0.265488 0.136323 -0.234474
C10   C     C_R   0.882371 0.568650 0.910706 -0.270868
C11   C     C_R   0.174060 0.247817 0.996486 0.505288
C12   C     C_R   0.500194 0.780972 0.500853 0.928280
C13   C     C_R   0.801451 0.540439 0.032279 0.511498
C14   C     C_R   0.238427 0.373294 0.939286 -0.329248
C15   C     C_R   0.746275 0.395584 0.038672 -0.265105
C16   C     C_R   0.927323 0.415320 0.372054 -0.193036
C17   C     C_R   0.068379 0.526784 0.632302 -0.269965
C18   C     C_3   0.159454 0.112608 0.757366 0.128071
C19   C     C_3   0.101097 0.965668 0.693103 -0.784107
C20   C     C_3   0.776624 0.794963 0.103312 0.177678
C21   C     C_3   0.891669 0.881562 0.166945 -0.854296
C22   C     C_R   0.871826 0.467726 0.506670 -0.077719
C23   C     C_R   0.125135 0.491988 0.491689 -0.107276
C24   C     C_R   0.945117 0.499198 0.644008 0.039228
C25   C     C_R   0.052660 0.431520 0.360720 0.044209
C26   C     C_1   0.499852 0.065459 0.498871 -0.127871
C27   C     C_1   0.500016 0.934560 0.501224 -0.140061
C28   C     C_R   0.259359 0.499662 0.496375 0.848543
Cl1   Cl    Cl    0.287399 0.685353 0.931987 -0.604266
Cl2   Cl    Cl    0.686642 0.112973 0.927387 -0.684575
H1    H     H_    0.303268 0.353024 0.849926 0.203537
H2    H     H_    0.096468 0.204101 0.719662 0.121416
H3    H     H_    0.015370 0.940388 0.755356 0.255920
H4    H     H_    0.078257 0.974618 0.562527 0.192699
H5    H     H_    0.165944 0.872619 0.711335 0.294339
H6    H     H_    0.696277 0.846468 0.158038 0.212403
H7    H     H_    0.761147 0.807985 0.971518 0.165980
H8    H     H_    0.974845 0.838297 0.112036 0.255481
H9    H     H_    0.883612 0.002267 0.138542 0.248248
H10   H     H_    0.902596 0.870566 0.299203 0.253411
H11   H     H_    0.685574 0.364881 0.130372 0.204722
H12   H     H_    0.130233 0.646486 0.178140 0.171872
H13   H     H_    0.864684 0.226765 0.719701 0.153552
H14   H     H_    0.071223 0.168464 0.193030 0.157339
H15   H     H_    0.926086 0.677543 0.897678 0.151698
H16   H     H_    0.873968 0.360990 0.277048 0.154163
H17   H     H_    0.119694 0.567168 0.735764 0.214630
H18   H     H_    0.248976 0.129957 0.701033 0.156076
N1    N     N_1   0.500020 0.500030 0.073640 -0.008229
N2    N     N_1   0.499980 0.499970 0.926360 0.003684
O1    O     O_R   0.499990 0.285340 0.636850 -0.599215
O2    O     O_3   0.781256 0.644399 0.153518 -0.608052
O3    O     O_R   0.500010 0.714660 0.363150 -0.596211
O4    O     O_R   0.500010 0.285350 0.363100 -0.622857
O5    O     O_R   0.499990 0.714650 0.636900 -0.565657
O6    O     O_R   0.316750 0.500000 0.636870 -0.621391
O7    O     O_R   0.683250 0.500000 0.363130 -0.594174
O8    O     O_R   0.316770 0.500020 0.363120 -0.608945
O9    O     O_R   0.683230 0.499980 0.636880 -0.623619
O10   O     O_3   0.178761 0.105656 0.926305 -0.571557
Zn1   Zn    Zn3+2 0.499990 0.499990 0.682780 1.028067
Zn2   Zn    Zn3+2 0.500010 0.500010 0.317220 1.025232

loop_
_geom_bond_atom_site_label_1
_geom_bond_atom_site_label_2
_ccdc_geom_bond_type
O8    Zn2   S    
C6    C8    A    
C1    O4    A    
C2    C22   S    
O6    Zn1   S    
C28   O8    A    
C13   O2    S    
C9    C11   A    
O3    Zn2   S    
C12   O3    A    
C7    C25   S    
O1    Zn1   S    
C14   H1    S    
C5    H12   S    
C10   H15   S    
C23   C25   A    
C28   O6    A    
C2    O7    A    
O7    Zn2   S    
C20   O2    S    
C19   H5    S    
C23   C28   S    
C20   H7    S    
C1    O1    A    
C26   C27   T    
C17   C23   A    
C3    C14   A    
C4    C15   A    
O5    Zn1   S    
C18   O10   S    
C8    C24   S    
N1    N2    T    
C21   H10   S    
C13   C15   A    
C1    C26   S    
C11   C14   A    
C22   C24   A    
O9    Zn1   S    
C17   C24   A    
C18   H2    S    
C12   C27   S    
C4    C6    A    
C11   O10   S    
C12   O5    A    
C7    C9    A    
C20   C21   S    
C15   H11   S    
C3    Cl1   S    
C18   C19   S    
C19   H3    S    
C16   H16   S    
C16   C25   A    
C5    C7    A    
N2    Zn1   S    
C6    H13   S    
C20   H6    S    
C16   C22   A    
N1    Zn2   S    
O4    Zn2   S    
C3    C5    A    
C2    O9    A    
C19   H4    S    
C8    C10   A    
C4    Cl2   S    
C21   H8    S    
C17   H17   S    
C18   H18   S    
C9    H14   S    
C10   C13   A    
C21   H9    S    
