data_mof_unit_60564.cif
_audit_creation_date              2012-12-10T16:46:06-0500
_audit_creation_method            fapswitch 2.2
_symmetry_space_group_name_H-M    P1
_symmetry_Int_Tables_number       1
_space_group_crystal_system       triclinic
_cell_length_a                    18.506516
_cell_length_b                    18.506439
_cell_length_c                    34.492807
_cell_angle_alpha                 89.999062
_cell_angle_beta                  90.000671
_cell_angle_gamma                 89.998777
_cell_volume                      11813.4314427

loop_
_atom_site_label
_atom_site_type_symbol
_atom_type_description
_atom_site_fract_x
_atom_site_fract_y
_atom_site_fract_z
_atom_type_partial_charge
C1    C     C_R   0.499998 1.000000 0.605883 0.816361
C2    C     C_R   0.001285 0.368629 0.229234 -0.306965
C3    C     C_R   0.499652 0.934480 0.668712 -0.237921
C4    C     C_R   0.434480 0.999408 0.168711 -0.237883
C5    C     C_R   0.000111 0.565510 0.168711 -0.238074
C6    C     C_R   0.565521 0.000600 0.168712 -0.237904
C7    C     C_R   0.999881 0.434489 0.168712 -0.237800
C8    C     C_R   0.000000 0.500000 0.648354 -0.054464
C9    C     C_R   0.499995 0.999999 0.648354 -0.054462
C10   C     C_R   0.500000 0.000003 0.148354 -0.054452
C11   C     C_R   0.999998 0.499999 0.148354 -0.054478
C12   C     C_R   0.065893 0.500257 0.709179 0.117928
C13   C     C_R   0.368598 0.000311 0.229233 -0.306925
C14   C     C_R   0.499834 0.934102 0.709179 0.117988
C15   C     C_R   0.934107 0.499747 0.709178 0.118018
C16   C     C_R   0.500152 0.065897 0.709178 0.117958
C17   C     C_R   0.565899 0.000423 0.209180 0.117990
C18   C     C_R   0.000067 0.434112 0.209179 0.117925
C19   C     C_R   0.434101 0.999587 0.209179 0.117963
C20   C     C_R   0.999922 0.565887 0.209178 0.118018
C21   C     C_R   1.000000 0.500003 0.729645 0.066622
C22   C     C_R   0.499994 1.000000 0.729645 0.066597
C23   C     C_R   0.500000 0.000005 0.229645 0.066586
C24   C     C_R   0.998698 0.631368 0.229232 -0.307062
C25   C     C_R   0.999994 0.499999 0.229644 0.066656
C26   C     C_2   0.705402 0.990447 0.287958 0.385439
C27   C     C_2   0.011102 0.294715 0.287957 0.385384
C28   C     C_2   0.294598 0.009566 0.287954 0.385220
C29   C     C_2   0.988862 0.705278 0.287953 0.385570
C30   C     C_2   0.205356 0.489935 0.787958 0.385300
C31   C     C_2   0.510371 0.794645 0.787957 0.385515
C32   C     C_2   0.794643 0.510072 0.787954 0.385483
C33   C     C_2   0.489616 0.205354 0.787954 0.385293
C34   C     C_R   0.633024 0.997102 0.269718 -0.007765
C35   C     C_R   0.003897 0.367027 0.269717 -0.007854
C36   C     C_R   0.366976 0.002910 0.269715 -0.007682
C37   C     C_R   0.996083 0.632970 0.269715 -0.007835
C38   C     C_R   0.133002 0.496770 0.769718 -0.007786
C39   C     C_R   0.503425 0.866994 0.769717 -0.007829
C40   C     C_R   0.866997 0.503236 0.769715 -0.007753
C41   C     C_R   0.000000 0.500000 0.605883 0.816352
C42   C     C_R   0.496564 0.133006 0.769715 -0.007746
C43   C     C_R   0.566870 0.999003 0.290730 0.087821
C44   C     C_R   0.001496 0.433152 0.290729 0.087905
C45   C     C_R   0.433129 0.001007 0.290729 0.087956
C46   C     C_R   0.998491 0.566847 0.290728 0.087909
C47   C     C_R   0.066860 0.498837 0.790730 0.087902
C48   C     C_R   0.501262 0.933137 0.790729 0.087824
C49   C     C_R   0.933139 0.501169 0.790729 0.087891
C50   C     C_R   0.498731 0.066864 0.790728 0.087963
C51   C     C_R   0.500000 0.000005 0.270405 0.006975
C52   C     C_R   0.999999 0.500000 0.105883 0.816363
C53   C     C_R   0.999994 0.500000 0.270404 0.006992
C54   C     C_R   1.000000 0.500003 0.770405 0.006980
C55   C     C_R   0.499995 0.000000 0.770404 0.006987
C56   C     C_R   0.565417 0.001893 0.331314 -0.192676
C57   C     C_R   0.998591 0.434583 0.331314 -0.192991
C58   C     C_R   0.434582 0.998114 0.331313 -0.193192
C59   C     C_R   0.001401 0.565417 0.331313 -0.192994
C60   C     C_R   0.065415 0.501733 0.831314 -0.192949
C61   C     C_R   0.498366 0.934579 0.831314 -0.192720
C62   C     C_R   0.934584 0.498273 0.831313 -0.192966
C63   C     C_R   0.500000 0.000001 0.105883 0.816353
C64   C     C_R   0.501631 0.065422 0.831313 -0.193237
C65   C     C_R   0.500000 0.000003 0.351540 -0.099658
C66   C     C_R   0.999998 0.500000 0.351540 -0.099758
C67   C     C_R   1.000000 0.500002 0.851541 -0.099710
C68   C     C_R   0.500000 0.000001 0.851540 -0.099691
C69   C     C_R   0.500000 0.000000 0.394082 0.824729
C70   C     C_R   1.000000 0.500000 0.394082 0.824876
C71   C     C_R   1.000000 0.500000 0.894082 0.824775
C72   C     C_R   0.500000 0.000000 0.894082 0.824801
C73   C     C_R   0.361339 0.138393 0.500157 0.857290
C74   C     C_R   0.131387 0.499372 0.729235 -0.306921
C75   C     C_R   0.861608 0.361338 0.500159 0.853449
C76   C     C_R   0.638337 0.861283 0.499914 0.856377
C77   C     C_R   0.138715 0.638340 0.499916 0.853324
C78   C     C_R   0.638339 0.138715 0.499916 0.853313
C79   C     C_R   0.138717 0.361663 0.499914 0.856355
C80   C     C_R   0.361338 0.861607 0.500159 0.853392
C81   C     C_R   0.861607 0.638661 0.500157 0.857403
C82   C     C_R   0.861339 0.638393 0.000157 0.857376
C83   C     C_R   0.361284 0.861661 0.999915 0.853320
C84   C     C_R   0.138337 0.361283 0.999914 0.856335
C85   C     C_R   0.500817 0.868605 0.729235 -0.306928
C86   C     C_R   0.638392 0.138662 0.000159 0.853397
C87   C     C_R   0.138663 0.638392 0.000159 0.853443
C88   C     C_R   0.638717 0.861662 0.999914 0.856391
C89   C     C_R   0.861661 0.361285 0.999916 0.853319
C90   C     C_R   0.361607 0.138661 0.000157 0.857310
C91   C     C_2   0.191933 0.751890 0.478027 -0.155607
C92   C     C_2   0.249414 0.193234 0.477047 -0.144659
C93   C     C_2   0.806800 0.249379 0.477075 -0.155508
C94   C     C_2   0.751863 0.808042 0.478004 -0.144903
C95   C     C_2   0.806768 0.750588 0.477048 -0.144852
C96   C     C_R   0.868613 0.500634 0.729232 -0.307005
C97   C     C_2   0.751892 0.191930 0.478030 -0.155845
C98   C     C_2   0.191960 0.248139 0.478002 -0.144614
C99   C     C_2   0.249382 0.806798 0.477073 -0.155270
C100  C     C_2   0.693202 0.250618 0.977072 -0.155272
C101  C     C_2   0.749412 0.693232 0.977049 -0.144873
C102  C     C_2   0.308071 0.748106 0.978031 -0.155851
C103  C     C_2   0.251861 0.308040 0.978002 -0.144635
C104  C     C_2   0.306766 0.250586 0.977047 -0.144651
C105  C     C_2   0.250616 0.693205 0.977071 -0.155501
C106  C     C_2   0.691958 0.748137 0.978004 -0.144891
C107  C     C_R   0.499169 0.131394 0.729232 -0.306950
C108  C     C_2   0.748110 0.308068 0.978027 -0.155592
C109  C     C_2   0.196116 0.691640 0.499516 -0.294189
C110  C     C_2   0.305445 0.193202 0.501706 -0.299231
C111  C     C_2   0.806800 0.305445 0.501711 -0.294113
C112  C     C_2   0.691632 0.803875 0.499509 -0.296693
C113  C     C_2   0.806800 0.694556 0.501707 -0.299176
C114  C     C_2   0.691639 0.196116 0.499516 -0.294071
C115  C     C_2   0.196125 0.308369 0.499508 -0.296801
C116  C     C_2   0.305447 0.806798 0.501710 -0.294182
C117  C     C_2   0.693200 0.194555 0.001711 -0.294181
C118  C     C_R   0.631402 0.999702 0.229235 -0.306902
C119  C     C_2   0.805445 0.693201 0.001707 -0.299182
C120  C     C_2   0.303877 0.808367 0.999510 -0.294083
C121  C     C_2   0.191631 0.303874 0.999508 -0.296816
C122  C     C_2   0.306799 0.194555 0.001706 -0.299227
C123  C     C_2   0.194563 0.693193 0.001716 -0.294127
C124  C     C_2   0.696125 0.808368 0.999509 -0.296686
C125  C     C_2   0.808362 0.303882 0.999515 -0.294198
C126  C     C_R   0.934485 0.499566 0.668711 -0.238052
C127  C     C_R   0.500334 0.065518 0.668711 -0.237901
C128  C     C_R   0.065515 0.500437 0.668712 -0.237779
H1    H     H_    0.144967 0.761521 0.459852 0.181294
H2    H     H_    0.744413 0.650894 0.955397 0.189233
H3    H     H_    0.355050 0.738462 0.959867 0.181133
H4    H     H_    0.261477 0.354994 0.959816 0.187297
H5    H     H_    0.349102 0.255584 0.955394 0.189370
H6    H     H_    0.255630 0.650853 0.955428 0.181160
H7    H     H_    0.645004 0.738520 0.959818 0.187107
H8    H     H_    0.738477 0.355038 0.959855 0.181324
H9    H     H_    0.242731 0.678960 0.517129 0.151098
H10   H     H_    0.311403 0.233097 0.524369 0.151284
H11   H     H_    0.766876 0.311432 0.524358 0.150776
H12   H     H_    0.244416 0.150897 0.455395 0.189369
H13   H     H_    0.678960 0.757264 0.517127 0.151530
H14   H     H_    0.766904 0.688598 0.524370 0.151329
H15   H     H_    0.678957 0.242735 0.517125 0.151192
H16   H     H_    0.242734 0.321040 0.517128 0.151439
H17   H     H_    0.311434 0.766874 0.524356 0.150728
H18   H     H_    0.733121 0.188570 0.024359 0.150725
H19   H     H_    0.811403 0.733097 0.024369 0.151326
H20   H     H_    0.257243 0.821061 0.017106 0.151198
H21   H     H_    0.178960 0.257264 0.017128 0.151438
H22   H     H_    0.266904 0.188598 0.024370 0.151285
H23   H     H_    0.849166 0.244351 0.455441 0.181128
H24   H     H_    0.188598 0.733097 0.024374 0.150787
H25   H     H_    0.742734 0.821039 0.017128 0.151528
H26   H     H_    0.821044 0.257263 0.017125 0.151102
H27   H     H_    0.883634 0.499392 0.653092 0.168169
H28   H     H_    0.500431 0.116373 0.653092 0.168219
H29   H     H_    0.116366 0.500610 0.653094 0.168268
H30   H     H_    0.499555 0.883625 0.653094 0.168213
H31   H     H_    0.383623 0.999105 0.153093 0.168208
H32   H     H_    0.000028 0.616356 0.153092 0.168182
H33   H     H_    0.616378 0.000903 0.153095 0.168201
H34   H     H_    0.761480 0.854997 0.459818 0.187109
H35   H     H_    0.999965 0.383642 0.153094 0.168281
H36   H     H_    0.614852 0.006391 0.347712 0.214737
H37   H     H_    0.994473 0.385126 0.347711 0.214694
H38   H     H_    0.385147 0.993615 0.347710 0.214553
H39   H     H_    0.005519 0.614875 0.347709 0.214757
H40   H     H_    0.114855 0.506104 0.847712 0.214649
H41   H     H_    0.494071 0.885130 0.847711 0.214776
H42   H     H_    0.885144 0.493901 0.847710 0.214717
H43   H     H_    0.505928 0.114872 0.847709 0.214590
H44   H     H_    0.181775 0.498488 0.713140 0.143084
H45   H     H_    0.849105 0.755586 0.455396 0.189233
H46   H     H_    0.501773 0.818214 0.713140 0.143052
H47   H     H_    0.818225 0.501518 0.713137 0.143045
H48   H     H_    0.498210 0.181784 0.713137 0.143062
H49   H     H_    0.681798 0.998944 0.213141 0.143035
H50   H     H_    0.002423 0.318251 0.213140 0.143110
H51   H     H_    0.318203 0.001069 0.213138 0.143044
H52   H     H_    0.997556 0.681746 0.213137 0.143072
H53   H     H_    0.751813 0.015442 0.274139 0.065992
H54   H     H_    0.986471 0.248122 0.274137 0.066132
H55   H     H_    0.248186 0.984576 0.274134 0.066077
H56   H     H_    0.761525 0.144961 0.459858 0.181147
H57   H     H_    0.013474 0.751874 0.274130 0.066188
H58   H     H_    0.251826 0.514805 0.774137 0.066062
H59   H     H_    0.485567 0.748135 0.774138 0.066059
H60   H     H_    0.748173 0.485201 0.774133 0.066108
H61   H     H_    0.514417 0.251866 0.774133 0.066145
H62   H     H_    0.145007 0.238522 0.459816 0.187289
H63   H     H_    0.244355 0.849164 0.455438 0.181302
H64   H     H_    0.650839 0.255644 0.955436 0.181283
O1    O     O_3   0.500000 1.000000 0.500000 -0.491355
O2    O     O_R   0.560130 0.000000 0.087440 -0.648428
O3    O     O_R   1.000000 0.560130 0.087440 -0.648730
O4    O     O_R   0.439870 0.000000 0.087440 -0.648431
O5    O     O_R   0.439940 0.000000 0.412560 -0.641592
O6    O     O_R   0.000000 0.439940 0.412560 -0.641323
O7    O     O_R   0.560060 0.000000 0.412560 -0.640946
O8    O     O_R   0.000000 0.560060 0.412560 -0.641371
O9    O     O_R   0.939940 0.500000 0.912560 -0.641319
O10   O     O_R   0.500000 0.939940 0.912560 -0.640989
O11   O     O_R   0.060060 0.500000 0.912560 -0.641272
O12   O     O_3   0.000000 0.500000 0.500000 -0.491335
O13   O     O_R   0.500000 0.060060 0.912560 -0.641636
O14   O     O_R   0.415450 0.144560 0.522930 -0.645358
O15   O     O_R   0.855440 0.415450 0.522930 -0.644850
O16   O     O_R   0.584550 0.855440 0.522930 -0.645153
O17   O     O_R   0.144560 0.584550 0.522930 -0.645216
O18   O     O_R   0.584550 0.144560 0.522930 -0.644887
O19   O     O_R   0.144560 0.415450 0.522930 -0.645486
O20   O     O_R   0.415450 0.855440 0.522930 -0.645188
O21   O     O_R   0.855440 0.584550 0.522930 -0.645002
O22   O     O_R   0.915450 0.644560 0.022930 -0.645022
O23   O     O_3   0.000000 0.500000 0.000000 -0.491349
O24   O     O_R   0.355440 0.915450 0.022930 -0.644895
O25   O     O_R   0.084550 0.355440 0.022930 -0.645506
O26   O     O_R   0.644560 0.084550 0.022930 -0.645196
O27   O     O_R   0.084550 0.644560 0.022930 -0.644835
O28   O     O_R   0.644560 0.915450 0.022930 -0.645139
O29   O     O_R   0.915450 0.355440 0.022930 -0.645205
O30   O     O_R   0.355440 0.084550 0.022930 -0.645344
O31   O     O_R   0.644640 0.915430 0.477080 -0.636115
O32   O     O_R   0.084570 0.644640 0.477080 -0.640733
O33   O     O_R   0.355360 0.084570 0.477080 -0.636149
O34   O     O_3   0.500000 0.000000 0.000000 -0.491344
O35   O     O_R   0.915430 0.355360 0.477080 -0.641064
O36   O     O_R   0.355360 0.915430 0.477080 -0.640733
O37   O     O_R   0.915430 0.644640 0.477080 -0.636468
O38   O     O_R   0.644640 0.084570 0.477080 -0.641002
O39   O     O_R   0.084570 0.355360 0.477080 -0.635845
O40   O     O_R   0.144640 0.415430 0.977080 -0.635829
O41   O     O_R   0.584570 0.144640 0.977080 -0.640744
O42   O     O_R   0.855360 0.584570 0.977080 -0.636453
O43   O     O_R   0.415430 0.855360 0.977080 -0.641010
O44   O     O_R   0.855360 0.415430 0.977080 -0.640717
O45   O     O_R   0.500000 0.939870 0.587440 -0.648432
O46   O     O_R   0.415430 0.144640 0.977080 -0.636160
O47   O     O_R   0.144640 0.584570 0.977080 -0.641047
O48   O     O_R   0.584570 0.855360 0.977080 -0.636127
O49   O     O_2   0.715127 0.953318 0.316735 -0.558208
O50   O     O_2   0.048293 0.285276 0.316736 -0.558264
O51   O     O_2   0.284874 0.046693 0.316732 -0.558661
O52   O     O_2   0.951675 0.714708 0.316733 -0.558729
O53   O     O_2   0.214986 0.452790 0.816737 -0.558240
O54   O     O_2   0.547536 0.785071 0.816735 -0.558230
O55   O     O_2   0.785013 0.547216 0.816732 -0.558690
O56   O     O_R   0.060130 0.500000 0.587440 -0.648143
O57   O     O_2   0.452453 0.214926 0.816732 -0.558685
O58   O     O_R   0.500000 0.060130 0.587440 -0.648434
O59   O     O_R   0.939870 0.500000 0.587440 -0.648727
O60   O     O_R   0.000000 0.439870 0.087440 -0.648146
Zn1   Zn    Zn3+2 0.414160 0.000000 0.467250 0.983847
Zn2   Zn    Zn3+2 0.914220 0.500000 0.532750 0.969750
Zn3   Zn    Zn3+2 0.500000 0.914220 0.532750 0.969622
Zn4   Zn    Zn3+2 0.085780 0.500000 0.532750 0.969537
Zn5   Zn    Zn3+2 1.000000 0.585780 0.032750 0.969737
Zn6   Zn    Zn3+2 0.414220 0.000000 0.032750 0.969642
Zn7   Zn    Zn3+2 1.000000 0.414220 0.032750 0.969524
Zn8   Zn    Zn3+2 0.585780 0.000000 0.032750 0.969630
Zn9   Zn    Zn3+2 0.000000 0.414160 0.467250 0.983969
Zn10  Zn    Zn3+2 0.585840 0.000000 0.467250 0.984084
Zn11  Zn    Zn3+2 0.000000 0.585840 0.467250 0.983854
Zn12  Zn    Zn3+2 0.914160 0.500000 0.967250 0.983888
Zn13  Zn    Zn3+2 0.500000 0.914160 0.967250 0.984055
Zn14  Zn    Zn3+2 0.085840 0.500000 0.967250 0.984005
Zn15  Zn    Zn3+2 0.500000 0.085840 0.967250 0.983819
Zn16  Zn    Zn3+2 0.500000 0.085780 0.532750 0.969633

loop_
_geom_bond_atom_site_label_1
_geom_bond_atom_site_label_2
_ccdc_geom_bond_type
C2    C35   A    
C34   C118  A    
C48   C55   A    
C87   C123  S    
C73   O14   A    
O38   Zn10  S    
O43   Zn13  S    
C30   O53   D    
C12   C74   A    
C46   C59   A    
C2    C18   A    
C50   C64   A    
C97   C114  D    
C39   C48   A    
C10   C63   S    
O9    Zn12  S    
O24   Zn6   S    
O19   Zn4   S    
C98   H62   S    
C43   C51   A    
O34   Zn6   S    
O7    Zn10  S    
C83   O24   A    
C98   C115  D    
C26   O49   D    
C92   C98   S    
C73   C110  S    
C5    C20   A    
C100  H64   S    
C7    C11   A    
C52   O3    A    
C105  C123  D    
C9    C127  A    
C62   C67   A    
C33   C42   S    
O1    Zn3   S    
C89   O44   A    
C33   H61   S    
O46   Zn15  S    
O28   Zn8   S    
C28   H55   S    
C25   C53   A    
C108  H8    S    
C79   C115  S    
O17   Zn4   S    
C89   O29   A    
C21   C54   A    
O12   Zn4   S    
C95   C113  D    
C4    H31   S    
C57   H37   S    
C20   C25   A    
C45   C51   A    
C119  H19   S    
C40   C49   A    
C88   O48   A    
C96   H47   S    
C113  H14   S    
C30   C38   S    
C102  C105  S    
C109  H9    S    
C86   O26   A    
O23   Zn7   S    
C11   C52   S    
C58   C65   A    
C16   C107  A    
C47   C60   A    
C82   O22   A    
C4    C19   A    
C75   O15   A    
C44   C53   A    
C26   C34   S    
C81   O21   A    
C20   C24   A    
C60   C67   A    
C121  H21   S    
C15   C126  A    
C71   O11   A    
C24   H52   S    
C3    H30   S    
C16   C22   A    
O22   Zn5   S    
O27   Zn5   S    
O16   Zn3   S    
C87   O27   A    
C108  C125  D    
C103  H4    S    
C78   O18   A    
C74   H44   S    
C115  H16   S    
C88   C124  S    
O34   Zn15  S    
C80   O20   A    
C126  H27   S    
C5    H32   S    
O42   Zn12  S    
O39   Zn9   S    
O5    Zn1   S    
C70   O6    A    
C49   C54   A    
C81   O37   A    
C124  H25   S    
C69   O5    A    
C90   C122  S    
C83   C120  S    
O21   Zn2   S    
C78   C114  S    
C18   C25   A    
C82   C119  S    
C40   C96   A    
C58   H38   S    
O48   Zn13  S    
O10   Zn13  S    
O12   Zn11  S    
C8    C128  A    
C128  H29   S    
C85   H46   S    
O32   Zn11  S    
O3    Zn5   S    
C76   O31   A    
C62   H42   S    
C69   O7    A    
C45   C58   A    
C100  C108  S    
C86   O41   A    
C87   O47   A    
C104  H5    S    
C32   H60   S    
C32   O55   D    
C111  H11   S    
C101  C119  D    
O13   Zn15  S    
C110  H10   S    
O29   Zn7   S    
C1    C9    S    
C8    C41   S    
C13   C36   A    
O34   Zn8   S    
C15   C96   A    
C13   C19   A    
C1    O58   A    
O59   Zn2   S    
C89   C125  S    
C91   C99   S    
C38   C74   A    
C27   C35   S    
C84   C121  S    
C13   H51   S    
C7    H35   S    
C12   C21   A    
C60   H40   S    
C29   O52   D    
C88   O28   A    
O47   Zn14  S    
O14   Zn16  S    
C68   C72   S    
O1    Zn1   S    
C112  H13   S    
O37   Zn11  S    
C19   C23   A    
C118  H49   S    
C3    C9    A    
O41   Zn15  S    
O12   Zn2   S    
C77   O32   A    
C23   C51   A    
C122  H22   S    
C6    H33   S    
C44   C57   A    
C76   C112  S    
C7    C18   A    
C41   O59   A    
C70   O8    A    
C24   C37   A    
C63   O2    A    
C36   C45   A    
C31   O54   D    
C17   C23   A    
C80   O36   A    
C77   C109  S    
C35   C44   A    
C52   O60   A    
C14   C22   A    
C79   O39   A    
C38   C47   A    
O30   Zn6   S    
C3    C14   A    
C17   C118  A    
C93   C111  D    
C47   C54   A    
C91   H1    S    
C102  H3    S    
C8    C126  A    
C106  H7    S    
C28   O51   D    
C42   C50   A    
C120  H20   S    
C82   O42   A    
C5    C11   A    
O23   Zn5   S    
C93   H23   S    
O44   Zn12  S    
C61   H41   S    
C39   C85   A    
O23   Zn14  S    
C29   C37   S    
C103  C121  D    
C27   O50   D    
C64   C68   A    
C99   C116  D    
C59   H39   S    
C125  H26   S    
O35   Zn9   S    
C97   H56   S    
C72   O10   A    
C42   C107  A    
C101  C106  S    
C71   O9    A    
C6    C17   A    
C116  H17   S    
C123  H24   S    
O18   Zn16  S    
C49   C62   A    
C1    O45   A    
O1    Zn16  S    
O23   Zn12  S    
O15   Zn2   S    
C80   C116  S    
C34   C43   A    
C50   C55   A    
C14   C85   A    
C83   O43   A    
O8    Zn11  S    
O11   Zn14  S    
C127  H28   S    
C6    C10   A    
O6    Zn9   S    
O12   Zn9   S    
O56   Zn4   S    
C90   O30   A    
C22   C55   A    
C12   C128  A    
C77   O17   A    
C78   O38   A    
C90   O46   A    
C56   H36   S    
C67   C71   S    
C75   C111  S    
O1    Zn10  S    
O25   Zn7   S    
C102  C120  D    
O26   Zn8   S    
C114  H15   S    
C91   C109  D    
C64   H43   S    
C75   O35   A    
C95   H45   S    
C27   H54   S    
O58   Zn16  S    
C41   O56   A    
C57   C66   A    
O45   Zn3   S    
C101  H2    S    
C99   H63   S    
C61   C68   A    
C92   C110  D    
C48   C61   A    
C66   C70   S    
O20   Zn3   S    
C31   C39   S    
C65   C69   S    
C33   O57   D    
C46   C53   A    
C94   C112  D    
C93   C97   S    
C29   H57   S    
C86   C117  S    
O2    Zn8   S    
C32   C40   S    
O4    Zn6   S    
C94   C95   S    
C84   O40   A    
C16   C127  A    
C73   O33   A    
O40   Zn14  S    
C84   O25   A    
O34   Zn13  S    
O36   Zn1   S    
C26   H53   S    
C76   O16   A    
C43   C56   A    
C15   C21   A    
C104  C122  D    
C28   C36   S    
O33   Zn1   S    
C107  H48   S    
C72   O13   A    
C81   C113  S    
C103  C104  S    
C30   H58   S    
C106  C124  D    
C63   O4    A    
C117  H18   S    
C100  C117  D    
C2    H50   S    
C31   H59   S    
C37   C46   A    
C79   O19   A    
C4    C10   A    
O31   Zn10  S    
C94   H34   S    
C56   C65   A    
O60   Zn7   S    
C59   C66   A    
C105  H6    S    
C92   H12   S    
