data_mof_unit_11603.cif
_audit_creation_date              2012-12-10T17:12:00-0500
_audit_creation_method            fapswitch 2.2
_symmetry_space_group_name_H-M    P1
_symmetry_Int_Tables_number       1
_space_group_crystal_system       triclinic
_cell_length_a                    11.653727
_cell_length_b                    13.003011
_cell_length_c                    15.855954
_cell_angle_alpha                 92.376921
_cell_angle_beta                  74.086657
_cell_angle_gamma                 100.433414
_cell_volume                      2272.34210564

loop_
_atom_site_label
_atom_site_type_symbol
_atom_type_description
_atom_site_fract_x
_atom_site_fract_y
_atom_site_fract_z
_atom_type_partial_charge
C1    C     C_R   0.521387 0.701148 0.501930 0.841084
C2    C     C_R   0.479408 0.298961 0.496760 0.831736
C3    C     C_R   0.349559 0.458329 0.087152 -0.229540
C4    C     C_R   0.640649 0.470221 0.912983 -0.220319
C5    C     C_R   0.266653 0.452727 0.038083 -0.232078
C6    C     C_R   0.723094 0.473062 0.962101 -0.230235
C7    C     C_R   0.468310 0.185210 0.491580 -0.149348
C8    C     C_R   0.534800 0.815170 0.504221 -0.148072
C9    C     C_R   0.632461 0.986398 0.538990 -0.282011
C10   C     C_R   0.370609 0.013970 0.456672 -0.286180
C11   C     C_R   0.630477 0.878369 0.531420 0.459357
C12   C     C_R   0.379101 0.122810 0.457314 0.469609
C13   C     C_R   0.449162 0.861063 0.479283 -0.317422
C14   C     C_R   0.551863 0.138972 0.518762 -0.315856
C15   C     C_R   0.455464 0.968659 0.482772 0.109993
C16   C     C_R   0.547166 0.031580 0.513366 0.109462
C17   C     C_R   0.940733 0.594888 0.583357 -0.349358
C18   C     C_R   0.059537 0.405818 0.416134 -0.349195
C19   C     C_R   0.822158 0.585642 0.575428 0.078301
C20   C     C_R   0.177868 0.414597 0.424437 0.114084
C21   C     C_R   0.859664 0.459660 0.463465 0.015955
C22   C     C_R   0.140520 0.540766 0.536218 0.015869
C23   C     C_R   0.426813 0.494380 0.668226 0.806646
C24   C     C_R   0.573016 0.504123 0.331797 0.777615
C25   C     C_R   0.979686 0.466059 0.469328 0.073078
C26   C     C_R   0.020575 0.534597 0.530200 0.070733
C27   C     C_R   0.383068 0.485532 0.764294 -0.052493
C28   C     C_R   0.615162 0.499915 0.235722 -0.051471
C29   C     C_R   0.221172 0.460420 0.898915 -0.197144
C30   C     C_R   0.771554 0.486860 0.101307 -0.199297
C31   C     C_R   0.259320 0.471130 0.807899 -0.191884
C32   C     C_R   0.736086 0.495351 0.192308 -0.195908
C33   C     C_R   0.467834 0.488526 0.812538 -0.244820
C34   C     C_R   0.530410 0.495677 0.187347 -0.253735
C35   C     C_R   0.431613 0.473794 0.903904 0.087243
C36   C     C_R   0.562524 0.482159 0.096095 0.083684
C37   C     C_R   0.306158 0.462253 0.947165 0.169247
C38   C     C_R   0.686046 0.480726 0.052965 0.162420
C39   C     C_R   0.516689 0.472753 0.953433 0.067265
C40   C     C_R   0.475823 0.471907 0.046618 0.071064
Cu1   Cu    Cu3+1 0.386820 0.492450 0.493500 0.949251
Cu2   Cu    Cu3+1 0.613180 0.507550 0.506500 0.937394
H1    H     H_    0.170777 0.442061 0.071785 0.137452
H2    H     H_    0.817018 0.470377 0.928476 0.140256
H3    H     H_    0.238877 0.368201 0.383078 0.138016
H4    H     H_    0.761128 0.632337 0.616617 0.159171
H5    H     H_    0.969527 0.648573 0.630705 0.140235
H6    H     H_    0.030896 0.352418 0.368548 0.132959
H7    H     H_    0.439717 0.504716 0.222395 0.153983
H8    H     H_    0.562314 0.504899 0.777380 0.152014
H9    H     H_    0.803008 0.498208 0.228539 0.149816
H10   H     H_    0.192241 0.468474 0.771835 0.153727
H11   H     H_    0.125069 0.450605 0.931674 0.126505
H12   H     H_    0.865853 0.484573 0.068665 0.127058
H13   H     H_    0.311068 0.448232 0.156915 0.139611
H14   H     H_    0.676689 0.462500 0.843261 0.144841
H15   H     H_    0.621321 0.186717 0.544060 0.177093
H16   H     H_    0.377322 0.812970 0.456670 0.173842
H17   H     H_    0.699380 0.035009 0.566037 0.139565
H18   H     H_    0.298253 0.964934 0.435386 0.137318
H19   H     H_    0.173138 0.593138 0.582794 0.121081
H20   H     H_    0.827068 0.407346 0.416843 0.118665
N1    N     N_R   0.216750 0.481110 0.483710 -0.181143
N2    N     N_R   0.783250 0.518890 0.516290 -0.188687
O1    O     O_R   0.419950 0.645670 0.495380 -0.595976
O2    O     O_R   0.580050 0.354330 0.504620 -0.597363
O3    O     O_R   0.611110 0.658410 0.506370 -0.552759
O4    O     O_R   0.388890 0.341590 0.493630 -0.535102
O5    O     O_R   0.350820 0.490050 0.621260 -0.587675
O6    O     O_R   0.649180 0.509950 0.378740 -0.593478
O7    O     O_R   0.541970 0.502800 0.632250 -0.588153
O8    O     O_R   0.458030 0.497200 0.367750 -0.601705
O9    O     O_3   0.296725 0.168410 0.429541 -0.602489
C41   C     C_3   0.309627 0.152004 0.338666 0.028940
H21   H     H_    0.229645 0.174412 0.323762 0.160504
H22   H     H_    0.307859 0.068433 0.320021 0.134932
C42   C     C_3   0.424506 0.220510 0.282450 -0.380376
H23   H     H_    0.425250 0.303203 0.302594 0.229735
H24   H     H_    0.506330 0.195973 0.292527 0.205186
C43   C     C_3   0.430318 0.212122 0.185164 -0.888319
H25   H     H_    0.427509 0.129512 0.163717 0.255480
H26   H     H_    0.516277 0.259418 0.146223 0.267257
H27   H     H_    0.353166 0.242010 0.172354 0.252942
O10   O     O_3   0.711126 0.832464 0.561137 -0.610206
C44   C     C_3   0.832765 0.868065 0.512374 0.049072
H28   H     H_    0.892181 0.847935 0.551000 0.166463
H29   H     H_    0.855618 0.954387 0.503217 0.129882
C45   C     C_3   0.863246 0.813490 0.423332 -0.333919
H30   H     H_    0.843004 0.727420 0.433246 0.248793
H31   H     H_    0.807119 0.834343 0.382377 0.203915
C46   C     C_3   0.996960 0.845418 0.374599 -0.932920
H32   H     H_    0.019772 0.931250 0.362702 0.254587
H33   H     H_    0.016137 0.805179 0.310414 0.258914
H34   H     H_    0.055014 0.822795 0.413270 0.255733

loop_
_geom_bond_atom_site_label_1
_geom_bond_atom_site_label_2
_ccdc_geom_bond_type
C8    C13   A    
C5    C37   A    
C1    C8    S    
C17   H5    S    
Cu1   Cu2   S    
C23   O5    A    
C10   H18   S    
C2    C7    S    
C31   H10   S    
C19   H4    S    
C24   O6    A    
C44   H28   S    
C27   C33   A    
C30   H12   S    
C41   H22   S    
C17   C26   A    
C35   C37   A    
C9    C16   A    
C2    O4    A    
C10   C15   A    
C44   C45   S    
C15   C16   A    
Cu2   O6    S    
C30   C38   A    
O9    C41   S    
C21   N2    A    
C33   C35   A    
C22   N1    A    
C3    H13   S    
C7    C14   A    
C41   C42   S    
C1    O1    A    
C6    C38   A    
C23   C27   S    
C34   C36   A    
C20   H3    S    
C44   H29   S    
C5    H1    S    
C28   C34   A    
C6    H2    S    
C12   O9    S    
C4    H14   S    
C18   C25   A    
C43   H27   S    
Cu1   O4    S    
C42   H24   S    
C7    C12   A    
C41   H21   S    
C27   C31   A    
C23   O7    A    
C28   C32   A    
O10   C44   S    
C43   H26   S    
C46   H32   S    
Cu1   O1    S    
C13   H16   S    
C2    O2    A    
C33   H8    S    
C42   H23   S    
C9    H17   S    
C35   C39   A    
C32   H9    S    
C46   H33   S    
C4    C39   A    
C36   C40   A    
C19   N2    A    
C9    C11   A    
C21   H20   S    
C10   C12   A    
Cu1   O8    S    
C4    C6    A    
C45   H31   S    
C3    C40   A    
C13   C15   A    
Cu2   O3    S    
C14   C16   A    
Cu1   N1    S    
Cu2   N2    S    
C39   C40   A    
C24   O8    A    
Cu1   O5    S    
C42   C43   S    
C14   H15   S    
C21   C25   A    
C34   H7    S    
C24   C28   S    
C43   H25   S    
C3    C5    A    
C18   H6    S    
C1    O3    A    
C11   O10   S    
C20   N1    A    
C36   C38   A    
C25   C26   A    
C29   C31   A    
C46   H34   S    
C30   C32   A    
C45   C46   S    
C29   H11   S    
C8    C11   A    
Cu2   O7    S    
C17   C19   A    
C18   C20   A    
C45   H30   S    
C22   C26   A    
C29   C37   A    
Cu2   O2    S    
C22   H19   S    
