data_mof_unit_59678.cif
_audit_creation_date              2012-12-10T20:36:40-0500
_audit_creation_method            fapswitch 2.2
_symmetry_space_group_name_H-M    P1
_symmetry_Int_Tables_number       1
_space_group_crystal_system       triclinic
_cell_length_a                    10.495345
_cell_length_b                    10.648564
_cell_length_c                    9.903355
_cell_angle_alpha                 90.008031
_cell_angle_beta                  89.538017
_cell_angle_gamma                 90.636456
_cell_volume                      1106.69818693

loop_
_atom_site_label
_atom_site_type_symbol
_atom_type_description
_atom_site_fract_x
_atom_site_fract_y
_atom_site_fract_z
_atom_type_partial_charge
C1    C     C_R   0.507420 0.260180 0.500078 0.877718
C2    C     C_R   0.545304 0.936077 0.619386 0.064054
C3    C     C_3   0.472794 0.929708 0.749662 -0.540778
C4    C     C_R   0.257348 0.499762 0.500575 0.867313
C5    C     C_3   0.485417 0.072184 0.754008 0.337124
C6    C     C_R   0.416290 0.425570 0.071682 0.293082
C7    C     C_R   0.590113 0.563928 0.072706 -0.099007
C8    C     C_R   0.590577 0.565715 0.928907 0.010649
C9    C     C_R   0.416078 0.425814 0.929506 0.317867
C10   C     C_3   0.274517 0.432922 0.925805 -0.555950
C11   C     C_3   0.274625 0.431343 0.078983 -0.515313
C12   C     C_3   0.961055 0.501008 0.370438 -0.125129
C13   C     C_R   0.504354 0.740140 0.499782 0.875819
C14   C     C_R   0.742542 0.500178 0.499327 0.860996
C15   C     C_3   0.038335 0.498807 0.628645 -0.117047
C16   C     C_3   0.955324 0.396085 0.562054 -0.157206
C17   C     C_3   0.877508 0.500071 0.497714 0.018353
C18   C     C_3   0.957871 0.602791 0.564032 -0.166841
C19   C     C_3   0.044225 0.603725 0.437051 -0.184092
C20   C     C_2   0.687995 0.645153 0.860472 0.438445
C21   C     C_3   0.041693 0.397030 0.435072 -0.191660
C22   C     C_3   0.122149 0.499756 0.501617 0.007791
C23   C     C_R   0.552476 0.064275 0.620233 0.113856
C24   C     C_R   0.535188 0.129561 0.499546 -0.187295
C25   C     C_R   0.545754 0.065632 0.376123 -0.176188
C26   C     C_R   0.542723 0.935857 0.375610 -0.201160
C27   C     C_R   0.528365 0.871689 0.498595 -0.111095
H1    H     H_    0.914239 0.311709 0.612739 0.166305
H2    H     H_    0.918887 0.686419 0.616320 0.157221
H3    H     H_    0.085248 0.688131 0.386405 0.144622
H4    H     H_    0.925498 0.501947 0.265143 0.166728
H5    H     H_    0.080687 0.313427 0.382764 0.141495
H6    H     H_    0.544937 0.114614 0.280428 0.225697
H7    H     H_    0.540962 0.887384 0.279433 0.190916
H8    H     H_    0.372853 0.896703 0.735696 0.169488
H9    H     H_    0.757699 0.055410 0.983812 0.382262
H10   H     H_    0.675380 0.678239 0.759095 0.123221
H11   H     H_    0.525384 0.878878 0.829323 0.247837
H12   H     H_    0.392993 0.122110 0.750364 0.064080
H13   H     H_    0.659631 0.618191 0.128806 0.186163
H14   H     H_    0.241668 0.523602 0.883738 0.215120
H15   H     H_    0.230551 0.347420 0.880659 0.213937
H16   H     H_    0.239907 0.520217 0.124527 0.222920
H17   H     H_    0.231869 0.344272 0.122631 0.214883
H18   H     H_    0.071493 0.497807 0.734467 0.155607
N1    N     N_R   0.499140 0.499140 0.142800 -0.143286
N2    N     N_R   0.499140 0.499180 0.857150 -0.153083
O1    O     O_R   0.500020 0.316790 0.614690 -0.587629
O2    O     O_2   0.516320 0.135707 0.014095 -0.358900
O3    O     O_3   0.710658 0.024455 0.903909 -0.547433
O4    O     O_2   0.785046 0.677313 0.918956 -0.592101
O5    O     O_R   0.500000 0.316760 0.385350 -0.607924
O6    O     O_R   0.313960 0.499990 0.614650 -0.632812
O7    O     O_R   0.313940 0.499950 0.385310 -0.622714
O8    O     O_R   0.500000 0.683240 0.614650 -0.651863
O9    O     O_R   0.499980 0.683210 0.385310 -0.625348
O10   O     O_R   0.686060 0.500050 0.614690 -0.625877
O11   O     O_R   0.686040 0.500010 0.385350 -0.625712
O12   O     O_2   0.645159 0.252538 0.847666 -0.295889
S1    S     S_3+6 0.590503 0.125973 0.884249 0.001569
Zn1   Zn    Zn3+2 0.500010 0.500020 0.653130 0.967905
Zn2   Zn    Zn3+2 0.499990 0.499980 0.346870 0.958283

loop_
_geom_bond_atom_site_label_1
_geom_bond_atom_site_label_2
_ccdc_geom_bond_type
C12   C17   S    
N2    Zn1   S    
C15   C18   S    
C23   C24   A    
C1    O1    A    
O10   Zn1   S    
C2    C27   A    
C4    O6    A    
C10   H15   S    
C4    C22   S    
C9    C10   S    
C16   H1    S    
C5    C23   S    
C3    H8    S    
C7    H13   S    
C13   O9    A    
O3    S1    S    
C6    C9    A    
C2    C3    S    
O1    Zn1   S    
C8    N2    A    
O12   S1    D    
C18   H2    S    
O5    Zn2   S    
C21   C22   S    
C10   H14   S    
C11   H16   S    
C20   H10   S    
C14   C17   S    
C26   C27   A    
C8    C20   S    
O2    S1    D    
O6    Zn1   S    
O11   Zn2   S    
N1    Zn2   S    
C6    C11   S    
O8    Zn1   S    
C12   C19   S    
C21   H5    S    
C9    N2    A    
C20   O4    D    
C5    H12   S    
C12   H4    S    
C6    N1    A    
C14   O11   A    
C1    O5    A    
O9    Zn2   S    
C7    C8    A    
C10   C11   S    
C15   H18   S    
C15   C16   S    
C7    N1    A    
C3    C5    S    
C11   H17   S    
C19   C22   S    
H9    O3    S    
C24   C25   A    
C1    C24   S    
C17   C18   S    
C18   C19   S    
C2    C23   A    
C14   O10   A    
C13   C27   S    
O7    Zn2   S    
C5    S1    S    
C4    O7    A    
C25   C26   A    
C19   H3    S    
C16   C21   S    
C12   C21   S    
C26   H7    S    
C15   C22   S    
C3    H11   S    
C25   H6    S    
C16   C17   S    
C13   O8    A    
