data_mof_unit_46745.cif
_audit_creation_date              2012-12-10T17:57:23-0500
_audit_creation_method            fapswitch 2.2
_symmetry_space_group_name_H-M    P1
_symmetry_Int_Tables_number       1
_space_group_crystal_system       triclinic
_cell_length_a                    9.519
_cell_length_b                    10.796073
_cell_length_c                    13.444108
_cell_angle_alpha                 90.105043
_cell_angle_beta                  72.472423
_cell_angle_gamma                 90.16826
_cell_volume                      1317.46954127

loop_
_atom_site_label
_atom_site_type_symbol
_atom_type_description
_atom_site_fract_x
_atom_site_fract_y
_atom_site_fract_z
_atom_type_partial_charge
C1    C     C_R   0.498894 0.737675 0.503176 0.809130
C2    C     C_R   0.435749 0.488975 0.979051 0.106230
C3    C     C_R   0.469580 0.456726 0.872238 0.087432
C4    C     C_R   0.544778 0.470502 0.030689 0.040058
C5    C     C_R   0.681093 0.412298 0.977440 0.046031
C6    C     C_R   0.700795 0.364980 0.877185 -0.235609
C7    C     C_R   0.596702 0.385967 0.826021 -0.188980
C8    C     C_R   0.521844 0.508228 0.134110 -0.248855
C9    C     C_R   0.759156 0.428993 0.133399 -0.197777
C10   C     C_R   0.373453 0.493762 0.815046 -0.106027
C11   C     C_R   0.622513 0.933148 0.441726 -0.204023
C12   C     C_R   0.421237 0.494871 0.700206 0.775598
C13   C     C_R   0.624439 0.061116 0.433615 0.424301
C14   C     C_R   0.501235 0.128463 0.494428 -0.221064
C15   C     C_R   0.377483 0.066896 0.558482 -0.203576
C16   C     C_R   0.375520 0.938921 0.566550 0.424487
C17   C     C_R   0.498733 0.871562 0.505738 -0.223031
C18   C     C_R   0.896650 0.571892 0.568824 -0.007729
C19   C     C_R   0.045438 0.571729 0.568898 -0.009126
C20   C     C_R   0.103318 0.428054 0.431196 -0.011208
C21   C     C_R   0.954491 0.428106 0.431207 -0.008476
C22   C     C_R   0.501071 0.262327 0.496922 0.797432
C23   C     C_R   0.578773 0.498008 0.299959 0.818300
C24   C     C_R   0.791129 0.397265 0.028385 0.403883
C25   C     C_R   0.623779 0.481993 0.186714 -0.137284
C26   C     C_R   0.234845 0.542895 0.867931 -0.178493
C27   C     C_R   0.194221 0.561329 0.974886 -0.089673
C28   C     C_R   0.293622 0.537298 0.029911 -0.173595
Cu1   Cu    Cu3+1 0.359340 0.499980 0.500000 0.952986
Cu2   Cu    Cu3+1 0.640660 0.500020 0.500000 0.948461
H1    H     H_    0.839754 0.410141 0.173670 0.171129
H2    H     H_    0.283922 0.118917 0.606059 0.185540
H3    H     H_    0.817466 0.629632 0.623909 0.134770
H4    H     H_    0.078336 0.629236 0.624046 0.133688
H5    H     H_    0.182474 0.370234 0.376165 0.133909
H6    H     H_    0.921546 0.370475 0.376153 0.137164
H7    H     H_    0.795395 0.309355 0.837400 0.164385
H8    H     H_    0.423637 0.556579 0.177130 0.160666
H9    H     H_    0.158636 0.569985 0.826186 0.145746
H10   H     H_    0.253972 0.555464 0.112406 0.126415
H11   H     H_    0.086318 0.598208 0.015092 0.150126
H12   H     H_    0.615876 0.342754 0.750550 0.176314
H13   H     H_    0.716093 0.881141 0.394164 0.185494
N1    N     N_R   0.147940 0.499970 0.499970 -0.165797
N2    N     N_R   0.852060 0.500060 0.499990 -0.167373
O1    O     O_R   0.381250 0.680340 0.500010 -0.564513
O2    O     O_R   0.618820 0.680370 0.500010 -0.576679
O3    O     O_R   0.323240 0.499950 0.650980 -0.589096
O4    O     O_R   0.560810 0.499980 0.650980 -0.587715
O5    O     O_R   0.381180 0.319630 0.499990 -0.577943
O6    O     O_R   0.618750 0.319660 0.499990 -0.572873
O7    O     O_R   0.439190 0.500020 0.349020 -0.582477
O8    O     O_R   0.676760 0.500050 0.349020 -0.593153
O9    O     O_3   0.745980 0.115328 0.363702 -0.720006
H14   H     H_    0.717747 0.196859 0.342241 0.319264
O10   O     O_3   0.253916 0.884716 0.636398 -0.724394
H15   H     H_    0.282027 0.803081 0.657735 0.317110
O11   O     O_3   0.928906 0.349022 0.980001 -0.724510
H16   H     H_    0.959217 0.373911 0.905763 0.315008

loop_
_geom_bond_atom_site_label_1
_geom_bond_atom_site_label_2
_ccdc_geom_bond_type
C2    C4    A    
Cu2   O6    S    
C16   O10   S    
C9    C24   A    
C11   H13   S    
C6    C7    A    
C13   O9    S    
C27   H11   S    
Cu2   N2    S    
C1    C17   S    
C12   O3    A    
Cu1   O1    S    
C22   O5    A    
C14   C22   S    
C12   O4    A    
C26   C27   A    
C6    H7    S    
C9    C25   A    
C15   H2    S    
C3    C10   A    
C13   C14   A    
C20   C21   A    
C2    C28   A    
C8    C25   A    
C11   C13   A    
C10   C26   A    
C23   O7    A    
Cu1   Cu2   S    
C5    C24   A    
C8    H8    S    
C10   C12   S    
C20   N1    A    
Cu2   O4    S    
C23   O8    A    
C3    C7    A    
C21   N2    A    
Cu1   O5    S    
C23   C25   S    
Cu1   N1    S    
C5    C6    A    
C26   H9    S    
C18   H3    S    
C1    O1    A    
C22   O6    A    
C16   C17   A    
C28   H10   S    
Cu1   O3    S    
C15   C16   A    
C18   N2    A    
C19   N1    A    
Cu2   O2    S    
C27   C28   A    
O10   H15   S    
C24   O11   S    
C18   C19   A    
C7    H12   S    
C4    C8    A    
C21   H6    S    
C9    H1    S    
O9    H14   S    
C1    O2    A    
C2    C3    A    
O11   H16   S    
C14   C15   A    
C20   H5    S    
C19   H4    S    
C11   C17   A    
C4    C5    A    
Cu2   O8    S    
Cu1   O7    S    
