data_mof_unit_12733.cif
_audit_creation_date              2012-10-26T20:31:23-0400
_audit_creation_method            fapswitch 2.2
_symmetry_space_group_name_H-M    P1
_symmetry_Int_Tables_number       1
_space_group_crystal_system       triclinic
_cell_length_a                    11.683105
_cell_length_b                    10.754004
_cell_length_c                    9.584816
_cell_angle_alpha                 90.373972
_cell_angle_beta                  89.570895
_cell_angle_gamma                 91.036833
_cell_volume                      1203.98225583

loop_
_atom_site_label
_atom_site_type_symbol
_atom_type_description
_atom_site_fract_x
_atom_site_fract_y
_atom_site_fract_z
_atom_type_partial_charge
C1    C     C_R   0.498186 0.262789 0.499375 0.552607
C2    C     C_R   0.425721 0.427169 0.076181 -0.014406
C3    C     C_R   0.425049 0.426176 0.927972 0.072682
C4    C     C_R   0.284097 0.499367 0.500376 0.546516
C5    C     C_R   0.583080 0.563267 0.926191 0.154673
C6    C     C_3   0.608541 0.699281 0.921912 -0.286072
C7    C     C_3   0.609126 0.699282 0.080149 -0.277545
C8    C     C_R   0.501627 0.737494 0.500148 0.541278
C9    C     C_R   0.715884 0.499383 0.499628 0.547322
C10   C     C_1   0.162376 0.497664 0.500893 -0.033708
C11   C     C_1   0.059834 0.496303 0.500519 -0.056052
C12   C     C_R   0.498870 0.129824 0.495644 0.019260
C13   C     C_1   0.940039 0.495957 0.499704 -0.046748
C14   C     C_1   0.837535 0.497225 0.499161 -0.023099
C15   C     C_R   0.598096 0.067844 0.529013 -0.002144
C16   C     C_R   0.798068 0.890727 0.624381 0.041915
C17   C     C_R   0.832235 0.842037 0.493899 -0.077321
C18   C     C_R   0.945284 0.805607 0.471932 -0.112082
C19   C     C_R   0.024698 0.815124 0.579876 -0.099657
C20   C     C_R   0.991180 0.860889 0.710261 -0.120806
C21   C     C_R   0.878604 0.898726 0.732419 -0.108137
C22   C     C_R   0.339077 0.343494 0.861749 0.072041
C23   C     C_R   0.405122 0.062149 0.442145 -0.156658
C24   C     C_R   0.226097 0.383360 0.845874 -0.079300
C25   C     C_R   0.142225 0.301951 0.792681 -0.116525
C26   C     C_R   0.169783 0.179407 0.758868 -0.117174
C27   C     C_R   0.280608 0.137327 0.781072 -0.122949
C28   C     C_R   0.364435 0.218385 0.834910 -0.074658
C29   C     C_R   0.406148 0.932129 0.443653 -0.161712
C30   C     C_R   0.501112 0.870989 0.497992 0.001117
C31   C     C_R   0.600126 0.940021 0.528786 -0.002641
C32   C     C_3   0.678656 0.938713 0.651949 -0.133234
C33   C     C_3   0.675149 0.080623 0.651445 -0.263798
C34   C     C_R   0.583066 0.563305 0.073144 0.160479
Cu1   Cu    Cu3+1 0.499990 0.499980 0.640670 0.944005
Cu2   Cu    Cu3+1 0.500010 0.500020 0.359330 0.933616
H1    H     H_    0.329922 0.109375 0.405847 0.116934
H2    H     H_    0.695039 0.719567 0.124839 0.120900
H3    H     H_    0.772699 0.833352 0.408311 0.107382
H4    H     H_    0.971263 0.769451 0.371135 0.107277
H5    H     H_    0.112113 0.786708 0.562582 0.107756
H6    H     H_    0.052716 0.868063 0.793924 0.103134
H7    H     H_    0.854279 0.935550 0.833622 0.098995
H8    H     H_    0.203489 0.477745 0.873145 0.105593
H9    H     H_    0.055819 0.333807 0.777977 0.115723
H10   H     H_    0.104904 0.116704 0.717239 0.118030
H11   H     H_    0.301388 0.041739 0.757468 0.111026
H12   H     H_    0.536420 0.752550 0.878780 0.145360
H13   H     H_    0.449268 0.184033 0.854764 0.100503
H14   H     H_    0.538185 0.753667 0.126546 0.157762
H15   H     H_    0.331701 0.879737 0.408103 0.113468
H16   H     H_    0.636768 0.898068 0.745418 0.115443
H17   H     H_    0.631411 0.120063 0.744624 0.124714
H18   H     H_    0.757462 0.127952 0.623062 0.140286
H19   H     H_    0.364611 0.370179 0.133807 0.122174
H20   H     H_    0.694161 0.719714 0.875309 0.129421
N1    N     N_R   0.500710 0.500930 0.147930 -0.239328
N2    N     N_R   0.500710 0.500890 0.852020 -0.235305
O1    O     O_R   0.500000 0.319640 0.618810 -0.499755
O2    O     O_R   0.500010 0.319680 0.381230 -0.501530
O3    O     O_R   0.337190 0.499990 0.618790 -0.489397
O4    O     O_R   0.337200 0.500030 0.381210 -0.502807
O5    O     O_R   0.499990 0.680320 0.618770 -0.505696
O6    O     O_R   0.500000 0.680360 0.381190 -0.504844
O7    O     O_R   0.662800 0.499970 0.618790 -0.491989
O8    O     O_R   0.662810 0.500010 0.381210 -0.492319

loop_
_geom_bond_atom_site_label_1
_geom_bond_atom_site_label_2
_ccdc_geom_bond_type
C34   N1    A    
C20   H6    S    
C9    C14   S    
C24   C25   A    
C15   C31   A    
C16   C21   A    
C23   H1    S    
C4    O4    A    
C16   C32   S    
C28   H13   S    
C31   C32   S    
C12   C15   A    
C30   C31   A    
C8    C30   S    
C5    C34   A    
Cu1   O5    S    
C2    C3    A    
C2    N1    A    
C19   H5    S    
Cu1   O3    S    
C22   C28   A    
C13   C14   T    
C32   C33   S    
C11   C13   S    
C12   C23   A    
C26   C27   A    
C29   C30   A    
C1    C12   S    
C6    H12   S    
C5    N2    A    
C8    O6    A    
Cu1   N2    S    
Cu2   O4    S    
C23   C29   A    
C22   C24   A    
C7    H2    S    
C17   C18   A    
C6    C7    S    
Cu2   O8    S    
C2    H19   S    
C1    O1    A    
C33   H17   S    
C5    C6    S    
C24   H8    S    
C7    C34   S    
C9    O7    A    
C10   C11   T    
Cu1   O7    S    
C8    O5    A    
C4    C10   S    
C3    N2    A    
C25   H9    S    
C33   H18   S    
C20   C21   A    
Cu1   O1    S    
Cu2   N1    S    
C29   H15   S    
C1    O2    A    
C27   H11   S    
C27   C28   A    
C17   H3    S    
C9    O8    A    
C18   C19   A    
C3    C22   S    
C18   H4    S    
C25   C26   A    
Cu2   O6    S    
C26   H10   S    
C4    O3    A    
C15   C33   S    
C21   H7    S    
C19   C20   A    
C7    H14   S    
C6    H20   S    
C16   C17   A    
Cu2   O2    S    
Cu1   Cu2   S    
C32   H16   S    
