data_mof_unit_59524.cif
_audit_creation_date              2012-10-26T19:44:28-0400
_audit_creation_method            fapswitch 2.2
_symmetry_space_group_name_H-M    P1
_symmetry_Int_Tables_number       1
_space_group_crystal_system       triclinic
_cell_length_a                    11.015361
_cell_length_b                    11.708314
_cell_length_c                    10.433174
_cell_angle_alpha                 89.385454
_cell_angle_beta                  89.542676
_cell_angle_gamma                 89.523586
_cell_volume                      1345.41424347

loop_
_atom_site_label
_atom_site_type_symbol
_atom_type_description
_atom_site_fract_x
_atom_site_fract_y
_atom_site_fract_z
_atom_type_partial_charge
C1    C     C_R   0.498659 0.283305 0.500652 0.606166
C2    C     C_R   0.498295 0.716723 0.499976 0.655274
C3    C     C_1   0.496117 0.162001 0.501856 0.049851
C4    C     C_3   0.070344 0.484541 0.636818 -0.131619
C5    C     C_3   0.074261 0.416978 0.403350 -0.126540
C6    C     C_3   0.930276 0.497989 0.635174 -0.141040
C7    C     C_3   0.932457 0.404818 0.413023 -0.120402
C8    C     C_1   0.494807 0.059796 0.501727 0.000101
C9    C     C_3   0.073109 0.637883 0.453379 0.311903
C10   C     C_3   0.926675 0.625606 0.420669 0.304206
C11   C     C_2   0.119004 0.377387 0.704991 0.639449
C12   C     C_3   0.122723 0.510996 0.498571 -0.128314
C13   C     C_2   0.143051 0.304007 0.389917 0.643061
C14   C     C_2   0.868032 0.419434 0.733325 0.630119
C15   C     C_2   0.881163 0.287333 0.446432 0.647782
C16   C     C_3   0.878860 0.507621 0.492462 -0.134343
C17   C     C_1   0.495712 0.838226 0.500138 0.131630
C18   C     C_1   0.494629 0.940431 0.500858 0.032882
C19   C     C_R   0.259698 0.506496 0.500115 0.628708
C20   C     C_R   0.740996 0.502673 0.498331 0.618225
C21   C     C_1   0.499976 0.499993 0.071961 0.170561
C22   C     C_1   0.499987 0.499993 0.928039 0.169233
Cu1   Cu    Cu3+1 0.500000 0.500000 0.625300 1.170937
Cu2   Cu    Cu3+1 0.500000 0.500000 0.374700 1.201769
H1    H     H_    0.102644 0.550859 0.702427 0.204261
H2    H     H_    0.243474 0.651711 0.135780 0.372700
H3    H     H_    0.849193 0.933438 0.476997 0.373864
H4    H     H_    0.968740 0.566430 0.061442 0.412587
H5    H     H_    0.093568 0.453729 0.308670 0.215535
H6    H     H_    0.910428 0.581837 0.676654 0.208864
H7    H     H_    0.899222 0.413293 0.313816 0.200051
H8    H     H_    0.222052 0.313638 0.848748 0.353631
H9    H     H_    0.167044 0.161346 0.285429 0.370466
H10   H     H_    0.801299 0.402732 0.913371 0.355781
H11   H     H_    0.741861 0.178878 0.426511 0.335894
H12   H     H_    0.157391 0.923096 0.590227 0.380423
N1    N     N_1   0.500000 0.499990 0.186410 -0.158303
N2    N     N_1   0.500000 0.499990 0.813590 -0.165126
O1    O     O_R   0.500000 0.337200 0.605810 -0.491645
O2    O     O_R   0.196156 0.389650 0.809853 -0.658174
O3    O     O_2   0.222215 0.274742 0.464942 -0.484212
O4    O     O_R   0.116264 0.233970 0.286279 -0.634948
O5    O     O_2   0.838911 0.322249 0.706630 -0.432082
O6    O     O_R   0.843129 0.461032 0.856049 -0.664386
O7    O     O_2   0.941324 0.213813 0.500950 -0.376446
O8    O     O_R   0.764359 0.260831 0.405815 -0.681929
O9    O     O_2   0.017708 0.751607 0.686886 -0.241119
O10   O     O_2   0.229547 0.713928 0.640644 -0.305958
O11   O     O_3   0.127359 0.876453 0.518628 -0.380216
O12   O     O_R   0.500000 0.337200 0.394190 -0.482535
O13   O     O_2   0.104313 0.804609 0.264918 -0.131073
O14   O     O_2   0.282421 0.735693 0.366758 -0.272790
O15   O     O_3   0.192985 0.607653 0.197442 -0.498681
O16   O     O_2   0.724201 0.757668 0.389679 -0.268062
O17   O     O_2   0.792760 0.741232 0.609045 -0.287470
O18   O     O_3   0.907209 0.873669 0.448328 -0.372672
O19   O     O_2   0.767391 0.593001 0.210623 -0.234935
O20   O     O_2   0.905294 0.745708 0.188197 -0.133305
O21   O     O_3   0.982193 0.540775 0.151033 -0.520308
O22   O     O_R   0.317690 0.499990 0.605810 -0.459133
O23   O     O_R   0.317690 0.499990 0.394190 -0.466652
O24   O     O_R   0.682310 0.499990 0.605810 -0.482511
O25   O     O_R   0.682310 0.499990 0.394190 -0.432632
O26   O     O_R   0.500000 0.662810 0.605810 -0.480833
O27   O     O_R   0.500000 0.662810 0.394190 -0.441933
O28   O     O_2   0.088234 0.282033 0.673682 -0.384534
S1    S     S_3+6 0.109826 0.744096 0.580654 0.084512
S2    S     S_3+6 0.162634 0.698101 0.317662 0.125200
S3    S     S_3+6 0.834762 0.749698 0.471955 0.100251
S4    S     S_3+6 0.894567 0.626521 0.241395 0.100983

loop_
_geom_bond_atom_site_label_1
_geom_bond_atom_site_label_2
_ccdc_geom_bond_type
Cu1   Cu2   S    
C9    S1    S    
Cu2   O23   S    
C19   O22   A    
C6    C14   S    
Cu1   N2    S    
C5    C7    S    
C9    C10   S    
C5    C13   S    
O14   S2    D    
C11   O28   D    
C16   C20   S    
C2    O27   A    
C4    C11   S    
H3    O18   S    
C20   O25   A    
C13   O3    D    
C17   C18   T    
C9    S2    S    
C21   N1    T    
C10   C16   S    
C21   C22   S    
C2    C17   S    
C20   O24   A    
O17   S3    D    
O16   S3    D    
Cu2   O27   S    
C19   O23   A    
Cu1   O1    S    
H9    O4    S    
C10   S4    S    
C12   C19   S    
C14   O6    S    
Cu1   O26   S    
C6    H6    S    
C2    O26   A    
C13   O4    S    
Cu2   N1    S    
Cu2   O25   S    
C5    H5    S    
O13   S2    D    
H8    O2    S    
O10   S1    D    
Cu2   O12   S    
Cu1   O22   S    
O19   S4    D    
C9    C12   S    
C8    C18   S    
C7    H7    S    
C15   O7    D    
O21   S4    S    
C6    C16   S    
C11   O2    S    
C22   N2    T    
H2    O15   S    
C4    H1    S    
H10   O6    S    
C5    C12   S    
C4    C6    S    
C3    C8    T    
C1    O12   A    
H4    O21   S    
O9    S1    D    
O18   S3    S    
O15   S2    S    
C1    O1    A    
C10   S3    S    
C7    C16   S    
C7    C15   S    
O11   S1    S    
C15   O8    S    
C4    C12   S    
H11   O8    S    
Cu1   O24   S    
O20   S4    D    
H12   O11   S    
C14   O5    D    
C1    C3    S    
