data_mof_unit_24105.cif
_audit_creation_date              2012-12-10T18:47:49-0500
_audit_creation_method            fapswitch 2.2
_symmetry_space_group_name_H-M    P1
_symmetry_Int_Tables_number       1
_space_group_crystal_system       triclinic
_cell_length_a                    9.838904
_cell_length_b                    10.714682
_cell_length_c                    15.560575
_cell_angle_alpha                 89.646074
_cell_angle_beta                  68.844461
_cell_angle_gamma                 89.939814
_cell_volume                      1529.82007499

loop_
_atom_site_label
_atom_site_type_symbol
_atom_type_description
_atom_site_fract_x
_atom_site_fract_y
_atom_site_fract_z
_atom_type_partial_charge
C1    C     C_R   0.500100 0.740143 0.499804 0.873537
C2    C     C_R   0.369848 0.936167 0.514081 -0.187812
C3    C     C_R   0.500657 0.127475 0.498505 0.028577
C4    C     C_R   0.500391 0.872612 0.499080 -0.012718
C5    C     C_R   0.946885 0.400026 0.467232 -0.053613
C6    C     C_R   0.052684 0.599593 0.533460 -0.078898
C7    C     C_R   0.090298 0.399775 0.467818 0.011404
C8    C     C_R   0.908790 0.599480 0.533577 -0.070988
C9    C     C_R   0.410852 0.487065 0.674607 0.902016
C10   C     C_R   0.589745 0.493012 0.324589 0.883108
C11   C     C_R   0.362608 0.443702 0.770485 -0.110498
C12   C     C_R   0.500361 0.259879 0.499276 0.930559
C13   C     C_R   0.643104 0.476152 0.224254 -0.123027
C14   C     C_R   0.176332 0.383162 0.915475 -0.206022
C15   C     C_R   0.817002 0.536407 0.077148 -0.219934
C16   C     C_R   0.214967 0.429706 0.825427 -0.218924
C17   C     C_R   0.777720 0.525933 0.171363 -0.230204
C18   C     C_R   0.468863 0.405910 0.806045 -0.115335
C19   C     C_R   0.554472 0.418539 0.181501 -0.031674
C20   C     C_R   0.428976 0.401296 0.901483 -0.016206
C21   C     C_R   0.591340 0.429972 0.084009 -0.016702
C22   C     C_R   0.284591 0.367393 0.954472 0.129173
C23   C     C_R   0.373137 0.311263 0.075314 -0.194706
C24   C     C_R   0.721247 0.499064 0.033206 0.128815
C25   C     C_R   0.528547 0.428449 0.945019 0.052157
C26   C     C_R   0.498314 0.388278 0.036408 0.014441
C27   C     C_3   0.115073 0.251556 0.097696 -0.405527
C28   C     C_3   0.096724 0.126906 0.056080 -0.849738
C29   C     C_3   0.873521 0.622293 0.886585 -0.438048
C30   C     C_3   0.838642 0.758149 0.915181 -0.841202
C31   C     C_2   0.422023 0.353334 0.242433 0.879234
C32   C     C_2   0.596172 0.328682 0.748692 0.948477
C33   C     C_R   0.649553 0.504613 0.900400 -0.158541
C34   C     C_R   0.258373 0.313441 0.041662 0.145342
C35   C     C_R   0.748874 0.536402 0.941107 0.148926
C36   C     C_R   0.631243 0.936137 0.483245 -0.193539
C37   C     C_R   0.369989 0.063963 0.513762 -0.180284
C38   C     C_R   0.631396 0.063963 0.482849 -0.182441
H1    H     H_    0.848855 0.565205 0.203575 0.174858
H2    H     H_    0.267854 0.887584 0.526712 0.148463
H3    H     H_    0.907887 0.320156 0.440711 0.116700
H4    H     H_    0.091445 0.679163 0.560442 0.122559
H5    H     H_    0.158974 0.319328 0.442467 0.124303
H6    H     H_    0.838941 0.678970 0.560660 0.127495
H7    H     H_    0.095457 0.139982 0.985579 0.265560
H8    H     H_    0.187230 0.062904 0.053043 0.262928
H9    H     H_    0.992076 0.083209 0.099726 0.255599
H10   H     H_    0.109518 0.233763 0.169387 0.220624
H11   H     H_    0.022457 0.314474 0.103576 0.212693
H12   H     H_    0.131273 0.447180 0.796983 0.168338
H13   H     H_    0.738925 0.788116 0.903011 0.262962
H14   H     H_    0.821410 0.770635 0.989131 0.264537
H15   H     H_    0.930785 0.818612 0.873592 0.251619
H16   H     H_    0.976934 0.594461 0.894024 0.201722
H17   H     H_    0.894689 0.615673 0.811528 0.211736
H18   H     H_    0.338286 0.202527 0.322208 0.324854
H19   H     H_    0.672819 0.202073 0.647178 0.335014
H20   H     H_    0.062754 0.363529 0.954088 0.158926
H21   H     H_    0.919461 0.582325 0.040857 0.159384
H22   H     H_    0.362160 0.246334 0.130210 0.166165
H23   H     H_    0.665121 0.543600 0.833036 0.156217
H24   H     H_    0.733127 0.887493 0.470852 0.152577
H25   H     H_    0.268077 0.112569 0.526164 0.147008
H26   H     H_    0.733348 0.112619 0.470205 0.140513
N1    N     N_R   0.142780 0.500030 0.500020 -0.078899
N2    N     N_R   0.857220 0.499970 0.499980 -0.079624
O1    O     O_R   0.385370 0.683250 0.500010 -0.628599
O2    O     O_R   0.435812 0.239263 0.282590 -0.823730
O3    O     O_2   0.708995 0.324740 0.764609 -0.654056
O4    O     O_R   0.581805 0.252702 0.679829 -0.798341
O5    O     O_R   0.614630 0.316750 0.499990 -0.617661
O6    O     O_R   0.614700 0.683220 0.500000 -0.632799
O7    O     O_R   0.385300 0.316780 0.500000 -0.638336
O8    O     O_R   0.319830 0.500020 0.632250 -0.619661
O9    O     O_R   0.680170 0.499980 0.367750 -0.616996
O10   O     O_R   0.549160 0.499990 0.632240 -0.607958
O11   O     O_R   0.450840 0.500010 0.367760 -0.581315
O12   O     O_2   0.302170 0.401231 0.259696 -0.638587
Zn1   Zn    Zn3+2 0.346870 0.500020 0.500000 0.978185
Zn2   Zn    Zn3+2 0.653130 0.499980 0.500000 0.965835

loop_
_geom_bond_atom_site_label_1
_geom_bond_atom_site_label_2
_ccdc_geom_bond_type
C27   H10   S    
C30   H13   S    
C4    C36   A    
C11   C18   A    
C8    N2    A    
N1    Zn1   S    
C21   C26   A    
C19   C31   S    
C28   H9    S    
C28   H8    S    
C19   C21   A    
C16   H12   S    
C29   H16   S    
C17   H1    S    
C23   C26   A    
C5    H3    S    
C3    C12   S    
C1    O1    A    
C6    N1    A    
C14   H20   S    
C9    O10   A    
C7    H5    S    
H19   O4    S    
O9    Zn2   S    
C12   O7    A    
C23   H22   S    
C36   H24   S    
O5    Zn2   S    
C37   H25   S    
C10   O11   A    
C38   H26   S    
O11   Zn1   S    
C27   C34   S    
C31   O2    S    
C22   C34   A    
C30   H15   S    
C28   H7    S    
C24   C35   A    
C13   C19   A    
C1    O6    A    
C8    H6    S    
O1    Zn1   S    
C3    C38   A    
C5    C7    A    
C32   O4    S    
C29   H17   S    
C25   C26   A    
H18   O2    S    
C2    C4    A    
C29   C30   S    
C7    N1    A    
C11   C16   A    
C23   C34   A    
O7    Zn1   S    
C9    C11   S    
C15   C24   A    
C12   O5    A    
C20   C22   A    
O8    Zn1   S    
C6    H4    S    
C14   C16   A    
C18   C32   S    
C9    O8    A    
C31   O12   D    
C15   C17   A    
C30   H14   S    
C15   H21   S    
O10   Zn2   S    
C5    N2    A    
C10   C13   S    
C6    C8    A    
C32   O3    D    
N2    Zn2   S    
C29   C35   S    
C13   C17   A    
C1    C4    S    
C14   C22   A    
C36   C38   A    
O6    Zn2   S    
C2    C37   A    
C33   C35   A    
C18   C20   A    
C2    H2    S    
C3    C37   A    
C33   H23   S    
C20   C25   A    
C21   C24   A    
C27   C28   S    
C27   H11   S    
C25   C33   A    
C10   O9    A    
