data_mof_unit_22938.cif
_audit_creation_date              2013-03-05T15:45:12-0500
_audit_creation_method            fapswitch 2.2
_symmetry_space_group_name_H-M    P1
_symmetry_Int_Tables_number       1
_space_group_crystal_system       triclinic
_cell_length_a                    11.596715
_cell_length_b                    11.60275
_cell_length_c                    19.534879
_cell_angle_alpha                 91.035695
_cell_angle_beta                  90.79474
_cell_angle_gamma                 59.959234
_cell_volume                      2274.99806576

loop_
_atom_site_label
_atom_site_type_symbol
_atom_site_description
_atom_site_fract_x
_atom_site_fract_y
_atom_site_fract_z
_atom_type_partial_charge
O1    O     O_R   0.267740 0.231990 0.575440 -0.492466
O2    O     O_R   0.527280 0.186680 0.570530 -0.488473
C1    C     C_R   0.640804 0.117276 0.599097 0.556004
O3    O     O_R   0.728090 0.003480 0.576380 -0.491512
O4    O     O_R   0.682970 0.789220 0.570490 -0.490809
C2    C     C_R   0.612709 0.746432 0.598594 0.551199
O5    O     O_R   0.499290 0.771920 0.575530 -0.494657
O6    O     O_R   0.285330 0.030900 0.569730 -0.486285
C3    C     C_R   0.241981 0.145220 0.598238 0.559883
O7    O     O_R   0.270980 0.227040 0.423900 -0.480176
O8    O     O_R   0.530280 0.182090 0.430050 -0.493803
C4    C     C_R   0.644546 0.110093 0.401192 0.566635
O9    O     O_R   0.731330 0.998530 0.424830 -0.449036
O10   O     O_R   0.685970 0.784630 0.430010 -0.466201
C5    C     C_R   0.614841 0.737786 0.402241 0.579415
O11   O     O_R   0.502530 0.766960 0.423990 -0.448896
O12   O     O_R   0.288330 0.026310 0.429250 -0.474254
C6    C     C_R   0.255000 0.135391 0.398663 0.575607
Cr1   Cr    Cr6+3 0.404720 0.198220 0.499960 1.098268
Cr2   Cr    Cr6+3 0.698290 0.897110 0.500380 1.127883
Cr3   Cr    Cr6+3 0.396970 0.904720 0.499610 1.121736
O13   O     O_3   0.499990 0.000020 0.499980 -0.319011
C7    C     C_1   0.669189 0.646229 0.860177 0.014319
C8    C     C_1   0.655191 0.684059 0.728481 -0.025157
C9    C     C_1   0.662724 0.666713 0.799774 -0.025883
C10   C     C_1   0.642233 0.704432 0.667996 0.014616
C11   C     C_1   0.125836 0.198562 0.859241 0.012788
C12   C     C_1   0.171817 0.170794 0.727619 -0.024865
C13   C     C_1   0.149711 0.182304 0.798879 -0.024724
C14   C     C_1   0.196087 0.161541 0.667347 0.013136
C15   C     C_1   0.677978 0.191373 0.860858 0.013164
C16   C     C_1   0.659005 0.167156 0.728980 -0.025633
C17   C     C_1   0.665381 0.180945 0.800314 -0.025665
C18   C     C_1   0.653808 0.149484 0.668513 0.013335
C19   C     C_R   0.532402 0.715247 0.287213 0.120139
C20   C     C_R   0.546934 0.744506 0.220064 -0.018002
C21   C     C_R   0.674411 0.675394 0.192772 -0.039436
C22   C     C_R   0.788726 0.623014 0.236778 0.170134
C23   C     C_R   0.770297 0.625465 0.307888 0.169496
C24   C     C_R   0.641677 0.679453 0.333234 -0.045362
C25   C     C_R   0.269315 0.208611 0.284676 -0.094492
H1    H     H_    0.336678 0.239840 0.304722 0.165987
C26   C     C_R   0.235958 0.227419 0.215991 -0.052829
H2    H     H_    0.272934 0.277552 0.184353 0.167654
C27   C     C_R   0.146336 0.190955 0.190330 0.029503
C28   C     C_R   0.103293 0.121417 0.231132 -0.104661
H3    H     H_    0.037294 0.088060 0.210693 0.168615
C29   C     C_R   0.142397 0.095983 0.298885 0.046631
C30   C     C_R   0.217033 0.149404 0.327233 0.018262
C31   C     C_R   0.755557 0.033612 0.286635 -0.017759
C32   C     C_R   0.741500 0.050761 0.215684 0.163899
C33   C     C_R   0.664367 0.179498 0.189451 -0.035882
C34   C     C_R   0.576893 0.284066 0.231840 -0.177147
H4    H     H_    0.515776 0.382450 0.210913 0.211684
C35   C     C_R   0.574387 0.265368 0.301858 -0.016664
C36   C     C_R   0.665112 0.140205 0.330632 -0.057967
O14   O     O_R   0.821500 0.119550 0.952820 -0.488698
O15   O     O_R   0.037130 0.162750 0.957360 -0.494857
C37   C     C_R   0.080899 0.231485 0.928535 0.543772
O16   O     O_R   0.056440 0.344950 0.951330 -0.503563
O17   O     O_R   0.797900 0.560570 0.957460 -0.489374
C38   C     C_R   0.683643 0.603941 0.929477 0.557265
O18   O     O_R   0.596140 0.579600 0.952720 -0.497431
O19   O     O_R   0.639070 0.321380 0.958660 -0.498506
C39   C     C_R   0.708059 0.206793 0.930275 0.551262
O20   O     O_R   0.821240 0.124490 0.104360 -0.452940
O21   O     O_R   0.036900 0.167320 0.097830 -0.521326
C40   C     C_R   0.084426 0.235135 0.124275 0.551384
O22   O     O_R   0.056190 0.349890 0.102870 -0.457933
O23   O     O_R   0.797670 0.565150 0.097930 -0.445308
C41   C     C_R   0.685466 0.612742 0.125576 0.595980
O24   O     O_R   0.595880 0.584540 0.104260 -0.483330
O25   O     O_R   0.638830 0.325960 0.099140 -0.508127
C42   C     C_R   0.705302 0.209356 0.124823 0.569700
Cr4   Cr    Cr6+3 0.926180 0.152240 0.028110 1.093312
Cr5   Cr    Cr6+3 0.921340 0.452070 0.027460 1.132376
Cr6   Cr    Cr6+3 0.626260 0.447120 0.028700 1.082905
O26   O     O_3   0.824590 0.350480 0.028090 -0.298949
N1    N     N_R   0.432908 0.677662 0.299584 0.130199
O27   O     O_R   0.395747 0.628177 0.249349 -0.267587
O28   O     O_R   0.398012 0.666810 0.360834 -0.290248
N2    N     N_R   0.812872 0.939716 0.169495 0.131466
O29   O     O_R   0.746814 0.913467 0.123459 -0.291970
O30   O     O_R   0.941440 0.885906 0.163265 -0.240133
C43   C     C_2   0.478102 0.380094 0.343670 0.646733
O31   O     O_2   0.514583 0.409513 0.396905 -0.439223
O32   O     O_R   0.344812 0.452659 0.322780 -0.638752
H5    H     H_    0.285939 0.522327 0.357771 0.375954
C44   C     C_2   0.431218 0.830443 0.174757 0.614560
O33   O     O_2   0.448540 0.883297 0.125346 -0.507545
O34   O     O_R   0.304133 0.851101 0.187246 -0.595266
H6    H     H_    0.239183 0.900411 0.148776 0.346510
N3    N     N_R   0.921146 0.572212 0.210001 0.118868
O35   O     O_R   0.941849 0.635880 0.161948 -0.204359
O36   O     O_R   0.023902 0.481909 0.242856 -0.302165
N4    N     N_R   0.880787 0.555365 0.353901 0.126444
O37   O     O_R   0.938307 0.615010 0.383228 -0.286471
O38   O     O_R   0.910881 0.437250 0.374069 -0.301641
C45   C     C_2   0.115797 0.003223 0.335882 0.618277
O39   O     O_2   0.066268 0.031685 0.392927 -0.438441
O40   O     O_R   0.154346 0.879294 0.305717 -0.587083
H7    H     H_    0.158376 0.812060 0.339311 0.389399
C46   C     C_2   0.870603 0.907154 0.312440 0.642811
O41   O     O_2   0.932842 0.908725 0.362766 -0.448433
O42   O     O_R   0.913766 0.787205 0.277654 -0.597845
H8    H     H_    0.005554 0.715791 0.293122 0.396042

loop_
_geom_bond_atom_site_label_1
_geom_bond_atom_site_label_2
_geom_bond_distance
_ccdc_geom_bond_type
C20   C44   1.495857 S    
C35   C36   1.419573 A    
N3    O35   1.301313 A    
C11   C13   1.204724 T    
O25   C42   1.282945 A    
C19   C20   1.394223 A    
O32   H5    1.013492 S    
O4    Cr2   1.940566 S    
C2    C10   1.427131 S    
C34   H4    1.082270 S    
O8    Cr1   1.947658 S    
O24   Cr6   2.052329 S    
Cr5   O26   1.993346 S    
C12   C13   1.410783 S    
C21   C22   1.430521 A    
C8    C10   1.201743 T    
C33   C42   1.461638 S    
O4    C2    1.280256 A    
C5    O11   1.249070 A    
O20   C42   1.269726 A    
O22   Cr5   2.040618 S    
C25   H1    1.079216 S    
C7    C38   1.427210 S    
C40   O22   1.278547 A    
N4    O38   1.300770 A    
C15   C17   1.201045 T    
O23   C41   1.256595 A    
C44   O34   1.393965 S    
Cr6   O26   1.991352 S    
C34   C35   1.391731 A    
C37   O16   1.272930 A    
N3    O36   1.297205 A    
Cr3   O13   1.993021 S    
C25   C26   1.381738 A    
C25   C30   1.407945 A    
O15   Cr4   1.947576 S    
O12   C6    1.280394 A    
C43   O32   1.398779 S    
O17   Cr5   1.925490 S    
C5    C24   1.462845 S    
C28   C29   1.381315 A    
O1    Cr1   2.066870 S    
O21   C40   1.265460 A    
O40   H7    1.011217 S    
O10   Cr2   1.931254 S    
Cr1   O13   1.991295 S    
O1    C3    1.273643 A    
C8    C9    1.406028 S    
O34   H6    1.013787 S    
N1    O28   1.296592 A    
O6    C3    1.278943 A    
C1    C18   1.426050 S    
C31   C32   1.399449 A    
O15   C37   1.280705 A    
C43   O31   1.223319 D    
O16   Cr5   2.063799 S    
C31   C36   1.433944 A    
C32   C33   1.403954 A    
C16   C18   1.201094 T    
C35   C43   1.477732 S    
C26   H2    1.083656 S    
C38   O18   1.272790 A    
C45   O39   1.222824 D    
O7    Cr1   2.039532 S    
N4    O37   1.299734 A    
C27   C40   1.439789 S    
O6    Cr3   1.942882 S    
C46   O42   1.388168 S    
C26   C27   1.388741 A    
C32   N2    1.438820 S    
C4    C36   1.479474 S    
C3    C14   1.432311 S    
C29   C30   1.396943 A    
C45   O40   1.395624 S    
Cr2   O13   1.991153 S    
N2    O30   1.303013 A    
C21   C41   1.464519 S    
O23   Cr5   1.943924 S    
O21   Cr4   1.924061 S    
C1    O3    1.272005 A    
C23   C24   1.391449 A    
C33   C34   1.393368 A    
O18   Cr6   2.053856 S    
C15   C39   1.425891 S    
C29   C45   1.463741 S    
C28   H3    1.085134 S    
C20   C21   1.390033 A    
O9    Cr2   2.059034 S    
O2    Cr1   1.923604 S    
O14   C39   1.271229 A    
O8    C4    1.291097 A    
O11   Cr3   2.059448 S    
C2    O5    1.272547 A    
O42   H8    1.013881 S    
C16   C17   1.404934 S    
O14   Cr4   2.042558 S    
C12   C14   1.204730 T    
C19   C24   1.428826 A    
C41   O24   1.297396 A    
O5    Cr3   2.045711 S    
O19   C39   1.279000 A    
C22   C23   1.406002 A    
O7    C6    1.258560 A    
O20   Cr4   2.064780 S    
C22   N3    1.443648 S    
C19   N1    1.447468 S    
O2    C1    1.275735 A    
C7    C9    1.201770 T    
O17   C38   1.276690 A    
Cr4   O26   1.991334 S    
O12   Cr3   1.925933 S    
C23   N4    1.436082 S    
N1    O27   1.301542 A    
O3    Cr2   2.047776 S    
C27   C28   1.404625 A    
C31   C46   1.495014 S    
C4    O9    1.267295 A    
N2    O29   1.301129 A    
C46   O41   1.216809 D    
O19   Cr6   1.933664 S    
O25   Cr6   1.936533 S    
O10   C5    1.302259 A    
C11   C37   1.432288 S    
C44   O33   1.224022 D    
C6    C30   1.444592 S    
