data_mof_unit_19763.cif
_audit_creation_date              2012-10-26T21:33:15-0400
_audit_creation_method            fapswitch 2.2
_symmetry_space_group_name_H-M    P1
_symmetry_Int_Tables_number       1
_space_group_crystal_system       triclinic
_cell_length_a                    28.182335
_cell_length_b                    18.406307
_cell_length_c                    17.121044
_cell_angle_alpha                 90.000421
_cell_angle_beta                  60.851361
_cell_angle_gamma                 90.000352
_cell_volume                      7756.51620389

loop_
_atom_site_label
_atom_site_type_symbol
_atom_type_description
_atom_site_fract_x
_atom_site_fract_y
_atom_site_fract_z
_atom_type_partial_charge
C1    C     C_R   0.701569 0.267870 0.676111 0.917735
C2    C     C_R   0.083405 0.500000 0.546721 0.067494
C3    C     C_R   0.189272 0.219497 0.906677 0.038495
C4    C     C_R   0.074690 0.098975 0.933418 0.934268
C5    C     C_R   0.925309 0.901026 0.066582 0.934291
C6    C     C_R   0.925309 0.098974 0.066583 0.934267
C7    C     C_R   0.074690 0.901024 0.933419 0.934298
C8    C     C_R   0.574692 0.598974 0.933418 0.934295
C9    C     C_R   0.425310 0.401024 0.066581 0.934264
C10   C     C_R   0.425310 0.598975 0.066582 0.934302
C11   C     C_R   0.574689 0.401024 0.933419 0.934262
C12   C     C_R   0.538189 0.131839 0.530412 0.102812
C13   C     C_R   0.416592 0.000000 0.453290 0.067491
C14   C     C_R   0.461808 0.868161 0.469599 0.102818
C15   C     C_R   0.461806 0.131839 0.469607 0.102805
C16   C     C_R   0.538191 0.868161 0.530404 0.102812
C17   C     C_R   0.038188 0.631839 0.530416 0.102823
C18   C     C_R   0.961807 0.368161 0.469603 0.102810
C19   C     C_R   0.961805 0.631839 0.469611 0.102809
C20   C     C_R   0.038190 0.368161 0.530407 0.102807
C21   C     C_R   0.518389 0.197703 0.516342 -0.183424
C22   C     C_R   0.481607 0.802297 0.483671 -0.183307
C23   C     C_R   0.481605 0.197703 0.483682 -0.183421
C24   C     C_R   0.583406 1.000000 0.546718 0.067484
C25   C     C_R   0.518391 0.802297 0.516331 -0.183343
C26   C     C_R   0.018388 0.697703 0.516346 -0.183306
C27   C     C_R   0.981606 0.302297 0.483674 -0.183419
C28   C     C_R   0.981604 0.697703 0.483686 -0.183344
C29   C     C_R   0.018390 0.302297 0.516334 -0.183415
C30   C     C_R   0.480231 0.065880 0.486084 0.036672
C31   C     C_R   0.519766 0.934119 0.513927 0.036681
C32   C     C_R   0.519765 0.065880 0.513931 0.036670
C33   C     C_R   0.480232 0.934120 0.486079 0.036680
C34   C     C_R   0.980230 0.565880 0.486088 0.036681
C35   C     C_R   0.077329 0.368883 0.558029 -0.213690
C36   C     C_R   0.019765 0.434119 0.513931 0.036672
C37   C     C_R   0.019764 0.565880 0.513935 0.036681
C38   C     C_R   0.980231 0.434120 0.486083 0.036671
C39   C     C_R   0.959794 0.500000 0.473294 -0.041393
C40   C     C_R   0.040202 0.500000 0.526724 -0.041374
C41   C     C_R   0.459795 0.000000 0.473290 -0.041374
C42   C     C_R   0.540203 1.000000 0.526720 -0.041393
C43   C     C_R   0.894365 0.433623 0.445196 0.059093
C44   C     C_R   0.105633 0.566377 0.554815 0.059085
C45   C     C_R   0.105634 0.433622 0.554812 0.059095
C46   C     C_R   0.922667 0.631117 0.441985 -0.213676
C47   C     C_R   0.894364 0.566377 0.445200 0.059100
C48   C     C_R   0.394365 0.933623 0.445194 0.059085
C49   C     C_R   0.605633 0.066377 0.554813 0.059092
C50   C     C_R   0.605634 0.933622 0.554810 0.059099
C51   C     C_R   0.394364 0.066377 0.445197 0.059096
C52   C     C_R   0.843797 0.434741 0.444257 -0.107652
C53   C     C_R   0.156202 0.565259 0.555749 -0.107656
C54   C     C_R   0.156203 0.434741 0.555747 -0.107661
C55   C     C_R   0.843797 0.565259 0.444258 -0.107662
C56   C     C_R   0.343797 0.934741 0.444256 -0.107650
C57   C     C_R   0.922669 0.368884 0.441978 -0.213719
C58   C     C_R   0.656202 0.065259 0.555748 -0.107655
C59   C     C_R   0.656203 0.934741 0.555746 -0.107663
C60   C     C_R   0.343797 0.065259 0.444257 -0.107661
C61   C     C_R   0.821207 0.500000 0.439365 -0.272600
C62   C     C_R   0.178794 0.500000 0.560638 -0.272523
C63   C     C_R   0.321207 1.000000 0.439365 -0.272529
C64   C     C_R   0.678794 0.000000 0.560638 -0.272597
C65   C     C_R   0.077328 0.631116 0.558037 -0.213591
C66   C     C_R   0.577330 0.868883 0.558027 -0.213673
C67   C     C_R   0.422668 0.131117 0.441983 -0.213693
C68   C     C_R   0.422669 0.868883 0.441976 -0.213590
C69   C     C_R   0.298433 0.732135 0.323887 0.917762
C70   C     C_R   0.577329 0.131116 0.558034 -0.213722
C71   C     C_R   0.719325 0.264530 0.956307 -0.091627
C72   C     C_R   0.280689 0.735508 0.043685 -0.091614
C73   C     C_R   0.280676 0.264528 0.043692 -0.091670
C74   C     C_R   0.719329 0.735485 0.956295 -0.091749
C75   C     C_R   0.219332 0.764538 0.956301 -0.091636
C76   C     C_R   0.780673 0.235470 0.043696 -0.091639
C77   C     C_R   0.780676 0.764508 0.043700 -0.091735
C78   C     C_R   0.219329 0.235466 0.956303 -0.091679
C79   C     C_R   0.715415 0.196520 0.996864 0.419992
C80   C     C_R   0.298431 0.267869 0.323888 0.917741
C81   C     C_R   0.284645 0.803480 0.003021 0.419719
C82   C     C_R   0.284576 0.196510 0.003154 0.420053
C83   C     C_R   0.715098 0.803283 0.997481 0.419743
C84   C     C_R   0.215379 0.696565 0.996962 0.419807
C85   C     C_R   0.784582 0.303482 0.003140 0.420038
C86   C     C_R   0.784908 0.696710 0.002513 0.419698
C87   C     C_R   0.215430 0.303484 0.996840 0.420091
C88   C     C_R   0.746010 0.182415 0.039869 -0.280228
C89   C     C_R   0.254045 0.817572 0.960021 -0.279901
C90   C     C_R   0.253982 0.182404 0.960149 -0.280249
C91   C     C_R   0.701566 0.732136 0.676113 0.917757
C92   C     C_R   0.745688 0.817371 0.040501 -0.279507
C93   C     C_R   0.245977 0.682474 0.039964 -0.279858
C94   C     C_R   0.753988 0.317587 0.960135 -0.280201
C95   C     C_R   0.754318 0.682622 0.959494 -0.279531
C96   C     C_R   0.246023 0.317590 0.039846 -0.280222
C97   C     C_R   0.644648 0.327247 0.945137 -0.219747
C98   C     C_R   0.355366 0.672783 0.054851 -0.219680
C99   C     C_R   0.355351 0.327248 0.054865 -0.219780
C100  C     C_R   0.644636 0.672783 0.945151 -0.219147
C101  C     C_R   0.144646 0.827241 0.945141 -0.219663
C102  C     C_R   0.201569 0.767871 0.676111 0.917749
C103  C     C_R   0.855347 0.172746 0.054869 -0.219762
C104  C     C_R   0.855367 0.827212 0.054846 -0.219152
C105  C     C_R   0.144653 0.172746 0.945132 -0.219785
C106  C     C_R   0.617504 0.347750 0.897766 -0.075346
C107  C     C_R   0.382501 0.652258 0.102231 -0.075375
C108  C     C_R   0.382496 0.347751 0.102235 -0.075349
C109  C     C_R   0.617502 0.652254 0.897769 -0.075455
C110  C     C_R   0.117504 0.847750 0.897767 -0.075370
C111  C     C_R   0.882494 0.152246 0.102237 -0.075346
C112  C     C_R   0.882499 0.847744 0.102230 -0.075454
C113  C     C_R   0.798432 0.232133 0.323888 0.917731
C114  C     C_R   0.117506 0.152247 0.897763 -0.075350
C115  C     C_R   0.633913 0.322035 0.813259 -0.334977
C116  C     C_R   0.366086 0.677960 0.186745 -0.334938
C117  C     C_R   0.366088 0.322034 0.186740 -0.334961
C118  C     C_R   0.633922 0.677947 0.813251 -0.335008
C119  C     C_R   0.133916 0.822040 0.813257 -0.334935
C120  C     C_R   0.866088 0.177966 0.186741 -0.334970
C121  C     C_R   0.866077 0.822054 0.186750 -0.335012
C122  C     C_R   0.133912 0.177966 0.813260 -0.334957
C123  C     C_R   0.679403 0.279265 0.771707 -0.108403
C124  C     C_R   0.798434 0.767864 0.323886 0.917763
C125  C     C_R   0.320606 0.720749 0.228288 -0.108403
C126  C     C_R   0.320597 0.279264 0.228292 -0.108406
C127  C     C_R   0.679395 0.720748 0.771713 -0.108353
C128  C     C_R   0.179404 0.779266 0.771708 -0.108391
C129  C     C_R   0.820600 0.220740 0.228291 -0.108404
C130  C     C_R   0.820605 0.779251 0.228286 -0.108355
C131  C     C_R   0.179403 0.220736 0.771707 -0.108404
C132  C     C_R   0.706940 0.254999 0.818612 0.490490
C133  C     C_R   0.293090 0.745056 0.181366 0.490426
C134  C     C_R   0.293059 0.255000 0.181389 0.490517
C135  C     C_R   0.201569 0.232131 0.676112 0.917733
C136  C     C_R   0.706898 0.745078 0.818649 0.490110
C137  C     C_R   0.206933 0.754986 0.818619 0.490443
C138  C     C_R   0.793063 0.245007 0.181387 0.490496
C139  C     C_R   0.793106 0.754916 0.181347 0.490107
C140  C     C_R   0.206943 0.244997 0.818609 0.490521
C141  C     C_R   0.691201 0.129305 0.534757 0.893137
C142  C     C_R   0.308799 0.870695 0.465244 0.893123
C143  C     C_R   0.308799 0.129305 0.465244 0.893135
C144  C     C_R   0.691201 0.870695 0.534757 0.893126
C145  C     C_R   0.191201 0.629305 0.534758 0.893132
C146  C     C_R   0.916592 0.500000 0.453293 0.067480
C147  C     C_R   0.808799 0.370695 0.465244 0.893136
C148  C     C_R   0.808799 0.629305 0.465245 0.893126
C149  C     C_R   0.191201 0.370695 0.534757 0.893136
C150  C     C_R   0.689268 0.280497 0.906682 0.038516
C151  C     C_R   0.310757 0.719554 0.093298 0.038528
C152  C     C_R   0.310732 0.280497 0.093319 0.038501
C153  C     C_R   0.689244 0.719556 0.906704 0.038574
C154  C     C_R   0.189264 0.780488 0.906687 0.038505
C155  C     C_R   0.810731 0.219502 0.093321 0.038514
C156  C     C_R   0.810761 0.780437 0.093292 0.038580
Cl1   Cl    Cl    0.672445 0.127986 0.994966 -0.529513
Cl2   Cl    Cl    0.327674 0.871986 0.004789 -0.529479
Cl3   Cl    Cl    0.327534 0.127969 0.005076 -0.529301
Cl4   Cl    Cl    0.671741 0.871577 0.996324 -0.529903
Cl5   Cl    Cl    0.172353 0.628056 0.995186 -0.529451
Cl6   Cl    Cl    0.827553 0.372016 0.005039 -0.529475
Cl7   Cl    Cl    0.828267 0.628418 0.003665 -0.529927
Cl8   Cl    Cl    0.172473 0.372026 0.994916 -0.529288
H1    H     H_    0.032538 0.250849 0.528075 0.142666
H2    H     H_    0.217416 0.500000 0.560143 0.201468
H3    H     H_    0.282585 1.000000 0.439856 0.201467
H4    H     H_    0.717415 0.000000 0.560144 0.201453
H5    H     H_    0.084652 0.318123 0.581782 0.178505
H6    H     H_    0.915347 0.681877 0.418231 0.178503
H7    H     H_    0.915348 0.318124 0.418222 0.178502
H8    H     H_    0.084651 0.681875 0.581792 0.178514
H9    H     H_    0.584652 0.818123 0.581780 0.178499
H10   H     H_    0.415347 0.181877 0.418228 0.178508
H11   H     H_    0.415348 0.818124 0.418220 0.178517
H12   H     H_    0.967457 0.749151 0.471944 0.142668
H13   H     H_    0.584651 0.181875 0.581789 0.178501
H14   H     H_    0.757621 0.369938 0.928758 0.197570
H15   H     H_    0.242313 0.630150 0.071416 0.197537
H16   H     H_    0.242398 0.369946 0.071209 0.197569
H17   H     H_    0.758195 0.630434 0.927638 0.197546
H18   H     H_    0.257709 0.869895 0.928569 0.197546
H19   H     H_    0.742378 0.130063 0.071245 0.197575
H20   H     H_    0.741811 0.869559 0.072356 0.197540
H21   H     H_    0.257607 0.130048 0.928786 0.197571
H22   H     H_    0.631907 0.348786 0.011362 0.180518
H23   H     H_    0.967460 0.250849 0.471930 0.142665
H24   H     H_    0.368104 0.651243 0.988627 0.180523
H25   H     H_    0.368091 0.348787 0.988640 0.180528
H26   H     H_    0.631904 0.651237 0.011371 0.180504
H27   H     H_    0.131907 0.848782 0.011364 0.180525
H28   H     H_    0.868084 0.151203 0.988646 0.180521
H29   H     H_    0.868100 0.848758 0.988626 0.180503
H30   H     H_    0.131914 0.151205 0.011355 0.180529
H31   H     H_    0.613168 0.339499 0.777228 0.197938
H32   H     H_    0.386818 0.660473 0.222787 0.197962
H33   H     H_    0.386833 0.339498 0.222771 0.197938
H34   H     H_    0.032535 0.749151 0.528090 0.142669
H35   H     H_    0.613195 0.660450 0.777204 0.197961
H36   H     H_    0.113175 0.839511 0.777222 0.197953
H37   H     H_    0.886833 0.160503 0.222772 0.197937
H38   H     H_    0.886803 0.839555 0.222799 0.197963
H39   H     H_    0.113165 0.160506 0.777230 0.197936
H40   H     H_    0.767741 0.198773 0.813965 0.346280
H41   H     H_    0.232432 0.801537 0.185869 0.346427
H42   H     H_    0.232240 0.198804 0.186054 0.346282
H43   H     H_    0.767380 0.801857 0.814338 0.346504
H44   H     H_    0.267638 0.698591 0.814073 0.346383
H45   H     H_    0.532538 0.750849 0.528072 0.142668
H46   H     H_    0.732244 0.301202 0.186054 0.346259
H47   H     H_    0.732645 0.698100 0.185638 0.346524
H48   H     H_    0.267779 0.301163 0.813926 0.346265
H49   H     H_    0.467458 0.249151 0.471940 0.142666
H50   H     H_    0.467460 0.750849 0.471927 0.142670
H51   H     H_    0.532536 0.249151 0.528086 0.142664
H52   H     H_    0.782586 0.500000 0.439856 0.201454
O1    O     O_R   0.746490 0.236330 0.638080 -0.552487
O2    O     O_R   0.325830 0.813840 0.483730 -0.646365
O3    O     O_R   0.325830 0.186160 0.483730 -0.646370
O4    O     O_R   0.674170 0.813840 0.516270 -0.646337
O5    O     O_R   0.174170 0.686160 0.516270 -0.646361
O6    O     O_R   0.825830 0.313840 0.483730 -0.646357
O7    O     O_R   0.825830 0.686160 0.483730 -0.646341
O8    O     O_R   0.174170 0.313840 0.516270 -0.646366
O9    O     O_R   0.739960 0.127620 0.525000 -0.620530
O10   O     O_R   0.260040 0.872380 0.475000 -0.620523
O11   O     O_R   0.260040 0.127620 0.475000 -0.620517
O12   O     O_R   0.253510 0.763670 0.361920 -0.552474
O13   O     O_R   0.739960 0.872380 0.525000 -0.620545
O14   O     O_R   0.239960 0.627620 0.525000 -0.620523
O15   O     O_R   0.760040 0.372380 0.475000 -0.620528
O16   O     O_R   0.760040 0.627620 0.475000 -0.620545
O17   O     O_R   0.239960 0.372380 0.525000 -0.620516
O18   O     O_R   0.680700 0.294870 0.629350 -0.650473
O19   O     O_R   0.319300 0.705130 0.370650 -0.650472
O20   O     O_R   0.319300 0.294870 0.370650 -0.650474
O21   O     O_R   0.680700 0.705130 0.629350 -0.650481
O22   O     O_R   0.180700 0.794870 0.629350 -0.650473
O23   O     O_R   0.253510 0.236330 0.361920 -0.552483
O24   O     O_R   0.819300 0.205130 0.370650 -0.650470
O25   O     O_R   0.819300 0.794870 0.370650 -0.650480
O26   O     O_R   0.180700 0.205130 0.629350 -0.650474
O27   O     O_R   0.062020 0.072840 0.007170 -0.627117
O28   O     O_R   0.937980 0.927160 0.992830 -0.627099
O29   O     O_R   0.937980 0.072840 0.992830 -0.627120
O30   O     O_R   0.062020 0.927160 0.007170 -0.627114
O31   O     O_R   0.562020 0.572840 0.007170 -0.627097
O32   O     O_R   0.437980 0.427160 0.992830 -0.627117
O33   O     O_R   0.437980 0.572840 0.992830 -0.627109
O34   O     O_R   0.746490 0.763670 0.638080 -0.552476
O35   O     O_R   0.562020 0.427160 0.007170 -0.627122
O36   O     O_R   0.947860 0.073950 0.109290 -0.623532
O37   O     O_R   0.052140 0.926050 0.890710 -0.623506
O38   O     O_R   0.052140 0.073950 0.890710 -0.623528
O39   O     O_R   0.947860 0.926050 0.109290 -0.623522
O40   O     O_R   0.447860 0.573950 0.109290 -0.623508
O41   O     O_R   0.552140 0.426050 0.890710 -0.623531
O42   O     O_R   0.552140 0.573950 0.890710 -0.623520
O43   O     O_R   0.447860 0.426050 0.109290 -0.623532
O44   O     O_3   0.751140 0.208846 0.775899 -0.728784
O45   O     O_R   0.246490 0.736330 0.638080 -0.552469
O46   O     O_3   0.248910 0.791242 0.224066 -0.728829
O47   O     O_3   0.248858 0.208849 0.224103 -0.728724
O48   O     O_3   0.751051 0.791310 0.775980 -0.729068
O49   O     O_3   0.251126 0.708821 0.775911 -0.728808
O50   O     O_3   0.748869 0.291170 0.224096 -0.728765
O51   O     O_3   0.748954 0.708681 0.224016 -0.729080
O52   O     O_3   0.251144 0.291149 0.775895 -0.728709
O53   O     O_R   0.753510 0.263670 0.361920 -0.552497
O54   O     O_R   0.753510 0.736330 0.361920 -0.552473
O55   O     O_R   0.246490 0.263670 0.638080 -0.552489
O56   O     O_R   0.674170 0.186160 0.516270 -0.646355
Zn1   Zn    Zn3+2 0.792340 0.208750 0.507670 0.999753
Zn2   Zn    Zn3+2 0.494040 0.500000 0.919480 0.960248
Zn3   Zn    Zn3+2 0.005960 0.000000 0.080520 0.960246
Zn4   Zn    Zn3+2 0.994040 0.000000 0.919480 0.960277
Zn5   Zn    Zn3+2 0.207660 0.791250 0.492330 0.999811
Zn6   Zn    Zn3+2 0.207660 0.208750 0.492330 0.999787
Zn7   Zn    Zn3+2 0.792340 0.791250 0.507670 0.999771
Zn8   Zn    Zn3+2 0.292340 0.708750 0.507670 0.999813
Zn9   Zn    Zn3+2 0.707660 0.291250 0.492330 0.999748
Zn10  Zn    Zn3+2 0.707660 0.708750 0.492330 0.999775
Zn11  Zn    Zn3+2 0.292340 0.291250 0.507670 0.999784
Zn12  Zn    Zn3+2 0.505960 0.500000 0.080520 0.960276

loop_
_geom_bond_atom_site_label_1
_geom_bond_atom_site_label_2
_ccdc_geom_bond_type
C100  C153  A    
C145  O14   A    
C31   C42   A    
C132  C150  A    
O25   Zn7   S    
C133  C151  A    
C74   C83   A    
O22   Zn5   S    
C14   C33   A    
C19   C46   A    
C3    C105  A    
C16   C31   A    
C7    O30   A    
C91   C127  S    
C50   C59   A    
C52   C61   A    
C77   C156  S    
C145  O5    A    
H41   O46   S    
H44   O49   S    
C94   H14   S    
C131  C140  A    
C13   C51   A    
C147  O15   A    
C44   C53   A    
C97   C150  A    
C61   H52   S    
C117  C126  A    
C4    O27   A    
C119  C128  A    
C47   C146  A    
C100  C109  A    
H46   O50   S    
C24   C50   A    
C85   Cl6   S    
O53   Zn9   S    
O20   Zn11  S    
C109  C118  A    
C115  C123  A    
C119  H36   S    
C144  O13   A    
C127  C136  A    
C101  C110  A    
C34   C39   A    
O14   Zn8   S    
C9    C108  S    
C122  H39   S    
O31   Zn12  S    
O18   Zn9   S    
O8    Zn6   S    
C91   O21   A    
C135  O55   A    
C124  C130  S    
C27   H23   S    
C96   H16   S    
O26   Zn6   S    
C35   C45   A    
C15   C30   A    
C23   H49   S    
C16   C25   A    
C139  O51   S    
O30   Zn3   S    
C81   Cl2   S    
O9    Zn1   S    
C100  H26   S    
C143  O11   A    
C101  H27   S    
H42   O47   S    
C76   C155  S    
C106  C115  A    
C18   C38   A    
C136  C153  A    
C58   C141  S    
O45   Zn8   S    
C80   C126  S    
C84   C93   A    
C8    O42   A    
C86   C95   A    
C2    C40   A    
C126  C134  A    
C86   Cl7   S    
C76   C85   A    
C84   Cl5   S    
C91   O34   A    
C78   C87   A    
C134  O47   S    
C123  C132  A    
O42   Zn2   S    
C6    C111  S    
C80   O20   A    
C4    O38   A    
C121  C130  A    
C71   C79   A    
C132  O44   S    
O1    Zn1   S    
H43   O48   S    
C124  O54   A    
C11   O41   A    
C113  O53   A    
C144  O4    A    
C37   C40   A    
C102  C128  S    
C60   C143  S    
C38   C39   A    
C43   C52   A    
C71   C150  S    
O7    Zn7   S    
C67   H10   S    
O23   Zn6   S    
O24   Zn1   S    
C53   C62   A    
C141  O56   A    
C9    O32   A    
C142  O2    A    
C20   C35   A    
C8    O31   A    
C2    C44   A    
C22   C25   A    
C30   C41   A    
C63   H3    S    
C87   Cl8   S    
C44   C65   A    
H47   O51   S    
C2    C45   A    
C58   C64   A    
C105  H30   S    
C65   H8    S    
C120  C129  A    
C92   H20   S    
C104  C112  A    
C95   H17   S    
O13   Zn7   S    
C149  O17   A    
C46   H6    S    
C19   C28   A    
O55   Zn11  S    
C104  H29   S    
C15   C67   A    
C140  O52   S    
C51   C67   A    
O54   Zn10  S    
O21   Zn10  S    
H48   O52   S    
C147  O6    A    
C62   H2    S    
C116  C125  A    
C73   C152  S    
C118  C127  A    
C69   O12   A    
O27   Zn3   S    
C122  C131  A    
C12   C70   A    
C32   C42   A    
O17   Zn11  S    
C108  C117  A    
O15   Zn9   S    
O37   Zn4   S    
C110  C119  A    
C59   C144  S    
C70   H13   S    
C5    C112  S    
C99   C152  A    
C7    C110  S    
C5    O39   A    
C69   O19   A    
C56   C142  S    
C112  C121  A    
C55   C148  S    
C101  C154  A    
C55   C61   A    
C26   H34   S    
O11   Zn6   S    
C107  C116  A    
C75   C89   A    
C143  O3    A    
C116  H32   S    
O28   Zn4   S    
O33   Zn2   S    
C51   C60   A    
C124  O25   A    
C138  C155  A    
C34   C37   A    
C24   C42   A    
C13   C41   A    
C93   H15   S    
C78   C90   A    
O41   Zn2   S    
O29   Zn4   S    
C10   O40   A    
C80   O23   A    
C4    C114  S    
O43   Zn12  S    
C148  O7    A    
C27   C29   A    
C103  C111  A    
C29   H1    S    
C98   H24   S    
C113  O24   A    
C83   Cl4   S    
C21   H51   S    
C148  O16   A    
C149  O8    A    
C72   C81   A    
C81   C89   A    
C69   C125  S    
C130  C139  A    
C79   C88   A    
C68   H11   S    
C142  O10   A    
C98   C151  A    
C97   H22   S    
C45   C54   A    
C28   H12   S    
C54   C62   A    
C98   C107  A    
O39   Zn3   S    
O10   Zn5   S    
C1    C123  S    
O32   Zn2   S    
C99   C108  A    
C43   C57   A    
C18   C57   A    
C1    O18   A    
C134  C152  A    
C11   C106  S    
C53   C145  S    
C102  O45   A    
C48   C68   A    
C72   C93   A    
C103  C155  A    
C49   C70   A    
C21   C23   A    
C35   H5    S    
C16   C66   A    
C17   C26   A    
C73   C82   A    
O56   Zn9   S    
C115  H31   S    
C46   C47   A    
C17   C65   A    
C79   Cl1   S    
C90   H21   S    
C82   C90   A    
C33   C41   A    
C89   H18   S    
O6    Zn1   S    
C36   C38   A    
C64   H4    S    
C43   C146  A    
C82   Cl3   S    
H40   O44   S    
C14   C22   A    
C39   C146  A    
C137  C154  A    
C5    O28   A    
C75   C84   A    
C20   C36   A    
C14   C68   A    
C1    O1    A    
C73   C96   A    
O16   Zn10  S    
C3    C78   S    
C77   C92   A    
O3    Zn11  S    
C136  O48   S    
C6    O29   A    
O5    Zn5   S    
C71   C94   A    
C83   C92   A    
C59   C64   A    
C113  C129  S    
C60   C63   A    
O19   Zn8   S    
C135  O26   A    
C121  H38   S    
C131  C135  S    
C137  O49   S    
C129  C138  A    
C31   C33   A    
C66   H9    S    
C76   C88   A    
C72   C151  S    
C15   C23   A    
C12   C32   A    
C120  H37   S    
C10   C107  S    
C118  H35   S    
C54   C149  S    
C20   C29   A    
C141  O9    A    
C133  O46   S    
C102  O22   A    
O40   Zn12  S    
C105  C114  A    
C36   C40   A    
C99   H25   S    
O38   Zn4   S    
C88   H19   S    
C138  O50   S    
C12   C21   A    
C11   O35   A    
C49   C58   A    
C74   C153  S    
C111  C120  A    
C128  C137  A    
C85   C94   A    
C87   C96   A    
C56   C63   A    
C17   C37   A    
C104  C156  A    
C25   H45   S    
C50   C66   A    
C77   C86   A    
C52   C147  S    
C22   H50   S    
C97   C106  A    
C117  H33   S    
C47   C55   A    
C125  C133  A    
C24   C49   A    
C48   C56   A    
C74   C95   A    
C18   C27   A    
C19   C34   A    
C13   C48   A    
C103  H28   S    
O12   Zn5   S    
C26   C28   A    
C6    O36   A    
C10   O33   A    
O34   Zn7   S    
C9    O43   A    
C8    C109  S    
C30   C32   A    
C75   C154  S    
C139  C156  A    
O35   Zn12  S    
O36   Zn3   S    
C114  C122  A    
O2    Zn8   S    
O4    Zn10  S    
C3    C140  A    
C7    O37   A    
C57   H7    S    
