data_mof_unit_44385.cif
_audit_creation_date              2012-12-11T15:44:57-0500
_audit_creation_method            fapswitch 2.2
_symmetry_space_group_name_H-M    P1
_symmetry_Int_Tables_number       1
_space_group_crystal_system       triclinic
_cell_length_a                    6.925007
_cell_length_b                    16.829775
_cell_length_c                    17.081305
_cell_angle_alpha                 100.370083
_cell_angle_beta                  91.116203
_cell_angle_gamma                 88.943556
_cell_volume                      1957.64790051

loop_
_atom_site_label
_atom_site_type_symbol
_atom_type_description
_atom_site_fract_x
_atom_site_fract_y
_atom_site_fract_z
_atom_type_partial_charge
O1    O     O_R   0.494370 0.415690 0.413450 -0.542321
O2    O     O_R   0.819420 0.429360 0.578420 -0.546216
O3    O     O_R   0.994280 0.584310 0.586550 -0.542342
C1    C     C_R   0.654565 0.413543 0.605366 0.694041
O4    O     O_R   0.823790 0.406230 0.413570 -0.518054
O5    O     O_R   0.998670 0.561000 0.420530 -0.540912
C2    C     C_R   0.655236 0.382117 0.385598 0.706979
O6    O     O_R   0.489970 0.439000 0.579470 -0.537076
O7    O     O_3   0.662300 0.550810 0.502470 -0.372171
V1    V     V_3+5 0.935380 0.490570 0.499540 1.427181
O8    O     O_R   0.328650 0.570640 0.421580 -0.541263
C3    C     C_R   0.156005 0.586419 0.394952 0.703892
O9    O     O_R   0.324290 0.593770 0.586430 -0.544719
C4    C     C_R   0.155110 0.616853 0.614969 0.692426
V2    V     V_3+5 0.435930 0.509430 0.500460 1.407487
O10   O     O_3   0.159140 0.449190 0.497530 -0.360550
C5    C     C_R   0.301379 0.737145 0.702932 -0.194435
H1    H     H_    0.431044 0.726890 0.667819 0.119060
C6    C     C_R   0.292374 0.803171 0.766564 0.219569
C7    C     C_R   0.123259 0.817004 0.813482 -0.065431
C8    C     C_R   0.965759 0.765389 0.792690 -0.217056
H2    H     H_    0.834732 0.774128 0.826971 0.153338
C9    C     C_R   0.975410 0.701110 0.728178 -0.159822
H3    H     H_    0.851136 0.662629 0.714407 0.128747
C10   C     C_R   0.143928 0.685766 0.682986 -0.075137
C11   C     C_R   0.127459 0.639269 0.334186 -0.071800
C12   C     C_R   0.137390 0.860586 0.165698 -0.069531
C13   C     C_R   0.357696 0.808479 0.259129 -0.201928
C14   C     C_R   0.315584 0.862454 0.207680 -0.160289
C15   C     C_R   0.999615 0.804053 0.178060 -0.242101
C16   C     C_R   0.041973 0.748975 0.229641 0.159935
C17   C     C_R   0.222863 0.750888 0.270251 0.161217
C18   C     C_R   0.265226 0.695808 0.321828 -0.243671
C19   C     C_R   0.949253 0.637409 0.292215 -0.157898
C20   C     C_R   0.907136 0.691387 0.240769 -0.201060
H4    H     H_    0.402296 0.698572 0.353892 0.123583
H5    H     H_    0.839735 0.594437 0.299858 0.131064
H6    H     H_    0.496735 0.811418 0.289685 0.120572
H7    H     H_    0.768091 0.688453 0.210217 0.122270
H8    H     H_    0.425099 0.905431 0.200043 0.129115
H9    H     H_    0.862544 0.801290 0.145998 0.125135
C21   C     C_R   0.664849 0.360770 0.666892 -0.068337
C22   C     C_R   0.599990 0.139056 0.832972 -0.072911
C23   C     C_R   0.400470 0.195979 0.735923 -0.199468
C24   C     C_R   0.427664 0.141041 0.787678 -0.164922
C25   C     C_R   0.747603 0.192605 0.823596 -0.241628
C26   C     C_R   0.720180 0.248813 0.771826 0.160344
C27   C     C_R   0.544733 0.250893 0.727915 0.159866
C28   C     C_R   0.517272 0.307165 0.676198 -0.242587
C29   C     C_R   0.837274 0.358661 0.712099 -0.162145
C30   C     C_R   0.864485 0.303687 0.763800 -0.199980
H10   H     H_    0.384629 0.307319 0.641448 0.122701
H11   H     H_    0.953932 0.399237 0.706665 0.128210
H12   H     H_    0.265397 0.195999 0.702790 0.121431
H13   H     H_    0.999589 0.303628 0.796905 0.123422
H14   H     H_    0.311082 0.100423 0.793112 0.124255
H15   H     H_    0.880232 0.192484 0.858362 0.122457
C31   C     C_R   0.807588 0.260415 0.295865 0.212254
C32   C     C_R   0.793701 0.197825 0.229204 -0.188041
H16   H     H_    0.917788 0.158544 0.213109 0.116352
C33   C     C_R   0.621173 0.184166 0.184583 -0.075799
C34   C     C_R   0.460698 0.234539 0.207536 -0.168739
H17   H     H_    0.325347 0.225560 0.174533 0.132184
C35   C     C_R   0.473488 0.298036 0.272680 -0.205743
H18   H     H_    0.347578 0.336542 0.287445 0.156879
C36   C     C_R   0.646147 0.312483 0.317582 -0.067225
O11   O     O_R   0.774880 0.061150 0.920630 -0.537125
O12   O     O_R   0.440980 0.093710 0.086500 -0.545901
O13   O     O_R   0.266190 0.938890 0.079390 -0.542203
C37   C     C_R   0.609841 0.116686 0.115282 0.691664
O14   O     O_R   0.445420 0.070740 0.921670 -0.544046
O15   O     O_R   0.270660 0.915760 0.913380 -0.514519
C38   C     C_R   0.610252 0.086448 0.894626 0.709571
O16   O     O_R   0.770400 0.084270 0.086640 -0.542730
O17   O     O_3   0.602590 0.949210 0.997500 -0.358084
V3    V     V_3+5 0.329470 0.009420 0.000470 1.422557
O18   O     O_R   0.940650 0.906250 0.913470 -0.542352
C39   C     C_R   0.110019 0.884225 0.883743 0.707102
O19   O     O_R   0.936210 0.929220 0.078300 -0.541840
C40   C     C_R   0.108849 0.913444 0.104939 0.695777
V4    V     V_3+5 0.828930 0.990510 0.999490 1.420505
O20   O     O_3   0.105680 0.050790 0.002500 -0.373872
N1    N     N_3   0.983964 0.269741 0.342204 -0.654095
H19   H     H_    0.091150 0.229983 0.315391 0.215173
H20   H     H_    0.956310 0.252885 0.396867 0.218111
N2    N     N_3   0.453183 0.856958 0.782150 -0.648399
H21   H     H_    0.409522 0.911906 0.766505 0.208579
H22   H     H_    0.569220 0.835472 0.745634 0.213470

loop_
_geom_bond_atom_site_label_1
_geom_bond_atom_site_label_2
_ccdc_geom_bond_type
C33   C37   S    
C22   C38   S    
C12   C14   A    
C19   H5    S    
O2    C1    A    
C6    C7    A    
C1    O6    A    
C6    N2    S    
V4    O20   S    
O18   C39   A    
N1    H19   S    
C13   C14   A    
O5    C3    A    
O14   V3    S    
N2    H22   S    
V2    O10   S    
C18   H4    S    
O13   V3    S    
C19   C20   A    
O15   C39   A    
O8    V2    S    
C11   C19   A    
C16   C17   A    
C24   H14   S    
C37   O16   A    
C34   C35   A    
C9    H3    S    
C15   H9    S    
O11   C38   A    
O18   V4    S    
O7    V1    S    
O15   V3    S    
C32   H16   S    
O9    C4    A    
C12   C15   A    
C31   C36   A    
C5    H1    S    
C32   C33   A    
C29   H11   S    
C13   C17   A    
C12   C40   S    
V3    O20   S    
O19   V4    S    
N2    H21   S    
O17   V4    S    
C26   C30   A    
C31   C32   A    
C3    C11   S    
C35   C36   A    
C20   H7    S    
O17   V3    S    
C34   H17   S    
C11   C18   A    
C26   C27   A    
C13   H6    S    
C28   H10   S    
C29   C30   A    
C22   C24   A    
O3    C4    A    
C21   C29   A    
O1    V2    S    
C27   C28   A    
N1    H20   S    
O11   V4    S    
O6    V2    S    
C8    C9    A    
C25   H15   S    
C16   C20   A    
O16   V4    S    
O2    V1    S    
C23   C24   A    
O4    C2    A    
C25   C26   A    
O1    C2    A    
O5    V1    S    
O8    C3    A    
O12   V3    S    
C7    C39   S    
C5    C10   A    
C17   C18   A    
O9    V2    S    
O7    V2    S    
O4    V1    S    
O3    V1    S    
V1    O10   S    
C31   N1    S    
C35   H18   S    
C2    C36   S    
C15   C16   A    
C1    C21   S    
C14   H8    S    
C5    C6    A    
C30   H13   S    
C9    C10   A    
C4    C10   S    
C33   C34   A    
C22   C25   A    
C21   C28   A    
O19   C40   A    
C23   H12   S    
C7    C8    A    
O12   C37   A    
O14   C38   A    
O13   C40   A    
C8    H2    S    
C23   C27   A    
