data_mof_unit_61080.cif
_audit_creation_date              2012-12-10T16:41:51-0500
_audit_creation_method            fapswitch 2.2
_symmetry_space_group_name_H-M    P1
_symmetry_Int_Tables_number       1
_space_group_crystal_system       triclinic
_cell_length_a                    26.20978
_cell_length_b                    26.217594
_cell_length_c                    18.551262
_cell_angle_alpha                 90.008492
_cell_angle_beta                  135.062788
_cell_angle_gamma                 89.996544
_cell_volume                      9004.05663855

loop_
_atom_site_label
_atom_site_type_symbol
_atom_type_description
_atom_site_fract_x
_atom_site_fract_y
_atom_site_fract_z
_atom_type_partial_charge
C1    C     C_R   0.612222 0.750716 0.501300 0.855660
C2    C     C_2   0.998070 0.277431 0.440489 -0.175211
C3    C     C_2   0.500434 0.220205 0.445200 -0.173009
C4    C     C_2   0.498068 0.777428 0.440485 -0.175077
C5    C     C_2   0.052084 0.755533 0.490790 -0.310888
C6    C     C_2   0.062285 0.254636 0.511143 -0.312052
C7    C     C_2   0.552084 0.255533 0.490790 -0.310837
C8    C     C_2   0.562284 0.754635 0.511141 -0.312059
C9    C     C_2   0.941760 0.725959 0.439009 -0.211493
C10   C     C_2   0.948275 0.280519 0.452018 -0.213242
C11   C     C_2   0.441760 0.225960 0.439007 -0.211498
C12   C     C_R   0.610878 0.250623 0.498623 0.855676
C13   C     C_2   0.448273 0.780517 0.452013 -0.213291
C14   C     C_2   0.951298 0.743683 0.516237 -0.004599
C15   C     C_2   0.936859 0.241907 0.487413 -0.003958
C16   C     C_2   0.451298 0.243684 0.516236 -0.004687
C17   C     C_2   0.436859 0.741906 0.487412 -0.004016
C18   C     C_2   0.740450 0.472101 0.430274 0.080043
C19   C     C_2   0.753948 0.527713 0.443120 0.081233
C20   C     C_2   0.238459 0.972030 0.428593 0.079798
C21   C     C_2   0.251845 0.027660 0.440859 0.081561
C22   C     C_2   0.754489 0.444068 0.503716 -0.324811
C23   C     C_R   0.112222 0.250716 0.501301 0.855540
C24   C     C_2   0.744380 0.555913 0.493713 -0.327512
C25   C     C_2   0.254082 0.944062 0.503276 -0.323956
C26   C     C_2   0.243963 0.055905 0.493354 -0.328174
C27   C     C_2   0.808907 0.028071 0.557764 -0.160145
C28   C     C_2   0.808909 0.971935 0.560068 -0.162344
C29   C     C_2   0.308907 0.528072 0.560050 -0.160117
C30   C     C_2   0.308909 0.471934 0.557775 -0.162394
C31   C     C_2   0.748419 0.056115 0.501038 -0.295633
C32   C     C_2   0.748423 0.943885 0.495805 -0.295802
C33   C     C_2   0.248416 0.556115 0.495825 -0.295092
C34   C     C_R   0.110878 0.750623 0.498623 0.855846
C35   C     C_2   0.248421 0.443884 0.501017 -0.296120
C36   C     C_R   0.889405 0.749323 0.501750 0.845289
C37   C     C_R   0.887854 0.249129 0.498659 0.843568
C38   C     C_R   0.389405 0.249323 0.501750 0.845128
C39   C     C_R   0.387854 0.749129 0.498658 0.843640
C40   C     C_R   0.749964 0.888576 0.499673 0.851413
C41   C     C_R   0.749962 0.111423 0.500240 0.852884
C42   C     C_R   0.249964 0.388576 0.500239 0.851495
C43   C     C_R   0.249962 0.611424 0.499674 0.852658
C44   C     C_R   0.750166 0.611393 0.499937 0.880406
C45   C     C_2   0.947944 0.744479 0.886657 -0.310515
C46   C     C_R   0.749573 0.388585 0.499361 0.881489
C47   C     C_R   0.250046 0.111385 0.499815 0.880024
C48   C     C_R   0.249486 0.888577 0.499279 0.881866
C49   C     C_R   0.612097 0.750795 0.222909 0.794075
C50   C     C_R   0.610660 0.250677 0.223007 0.846173
C51   C     C_R   0.112097 0.250794 0.222909 0.794214
C52   C     C_R   0.110660 0.750677 0.223007 0.846088
C53   C     C_R   0.889148 0.749380 0.776892 0.856525
C54   C     C_R   0.887913 0.249367 0.776939 0.838478
C55   C     C_R   0.389148 0.249380 0.776892 0.856599
C56   C     C_2   0.938508 0.245994 0.886904 -0.264097
C57   C     C_R   0.387913 0.749368 0.776939 0.838414
C58   C     C_2   0.058268 0.774063 0.055543 -0.211182
C59   C     C_2   0.053073 0.219279 0.055704 -0.169285
C60   C     C_2   0.558270 0.274060 0.055542 -0.211154
C61   C     C_2   0.553076 0.719282 0.055704 -0.169259
C62   C     C_2   0.048753 0.756320 0.113702 -0.004799
C63   C     C_2   0.062063 0.257182 0.112844 -0.016684
C64   C     C_2   0.548753 0.256320 0.113701 -0.004839
C65   C     C_2   0.562064 0.757184 0.112845 -0.016556
C66   C     C_2   0.999581 0.779817 0.944379 -0.173610
C67   C     C_2   0.447944 0.244478 0.886657 -0.310604
C68   C     C_2   0.002126 0.222169 0.944185 -0.151405
C69   C     C_2   0.499583 0.279815 0.944379 -0.173423
C70   C     C_2   0.502129 0.722172 0.944185 -0.151585
C71   C     C_2   0.438509 0.745996 0.886904 -0.264138
C72   C     C_2   0.000434 0.720204 0.445201 -0.172961
H1    H     H_    0.111786 0.785410 0.091129 0.164506
H2    H     H_    0.695534 0.960808 0.436878 0.149971
H3    H     H_    0.195520 0.539187 0.436952 0.149914
H4    H     H_    0.195526 0.460806 0.454099 0.150071
H5    H     H_    0.998820 0.687703 0.407300 0.182714
H6    H     H_    0.982863 0.296379 0.375475 0.181545
H7    H     H_    0.498819 0.187704 0.407299 0.182661
H8    H     H_    0.482860 0.796375 0.375469 0.181578
H9    H     H_    0.050626 0.790094 0.521186 0.156570
H10   H     H_    0.080246 0.239439 0.580282 0.156556
H11   H     H_    0.550627 0.290094 0.521185 0.156521
H12   H     H_    0.085015 0.184645 0.091937 0.151164
H13   H     H_    0.580245 0.739439 0.580281 0.156541
H14   H     H_    0.888235 0.714620 0.367548 0.164400
H15   H     H_    0.919203 0.316236 0.429377 0.162717
H16   H     H_    0.388235 0.214621 0.367546 0.164431
H17   H     H_    0.419199 0.816234 0.429368 0.162798
H18   H     H_    0.774511 0.461739 0.572702 0.128125
H19   H     H_    0.727367 0.538347 0.526851 0.128982
H20   H     H_    0.275138 0.961771 0.572831 0.127563
H21   H     H_    0.228128 0.038367 0.528072 0.129427
H22   H     H_    0.961862 0.710600 0.048408 0.190130
H23   H     H_    0.611788 0.285405 0.091129 0.164537
H24   H     H_    0.941020 0.774414 0.018804 0.207454
H25   H     H_    0.997082 0.313735 0.084399 0.194278
H26   H     H_    0.068274 0.333715 0.105996 0.186973
H27   H     H_    0.461860 0.210601 0.048407 0.190184
H28   H     H_    0.441022 0.274416 0.018804 0.207478
H29   H     H_    0.497082 0.813735 0.084399 0.194233
H30   H     H_    0.568274 0.833717 0.106000 0.186790
H31   H     H_    0.001178 0.812322 0.909711 0.181850
H32   H     H_    0.016188 0.202309 0.908809 0.169798
H33   H     H_    0.501182 0.312319 0.909712 0.182036
H34   H     H_    0.585019 0.684648 0.091936 0.151130
H35   H     H_    0.516191 0.702313 0.908808 0.169731
H36   H     H_    0.949417 0.709916 0.919964 0.156527
H37   H     H_    0.921358 0.262492 0.920536 0.172492
H38   H     H_    0.449416 0.209915 0.919963 0.156538
H39   H     H_    0.421359 0.762492 0.920537 0.172508
H40   H     H_    0.038196 0.789401 0.624752 0.189784
H41   H     H_    0.059032 0.725587 0.636790 0.207431
H42   H     H_    0.015213 0.187671 0.578832 0.189587
H43   H     H_    0.966028 0.181666 0.451140 0.207653
H44   H     H_    0.538196 0.289402 0.624751 0.189688
H45   H     H_    0.861152 0.046712 0.605868 0.176375
H46   H     H_    0.559032 0.225588 0.636789 0.207438
H47   H     H_    0.515214 0.687671 0.578835 0.189641
H48   H     H_    0.466029 0.681664 0.451144 0.207633
H49   H     H_    0.750877 0.453217 0.335020 0.179587
H50   H     H_    0.665397 0.466909 0.276095 0.174115
H51   H     H_    0.822952 0.532550 0.427667 0.175239
H52   H     H_    0.735744 0.546222 0.320163 0.177713
H53   H     H_    0.246190 0.953025 0.330452 0.180105
H54   H     H_    0.161392 0.966635 0.274379 0.173860
H55   H     H_    0.318414 0.032460 0.421040 0.175549
H56   H     H_    0.861155 0.953299 0.616462 0.175187
H57   H     H_    0.230637 0.046043 0.315417 0.177090
H58   H     H_    0.361155 0.546715 0.616400 0.175941
H59   H     H_    0.361157 0.453297 0.605921 0.175442
H60   H     H_    0.695531 0.039186 0.454180 0.149908
N1    N     N_3   0.978724 0.747913 0.075400 -0.452360
N2    N     N_3   0.776449 0.551194 0.399268 -0.406093
N3    N     N_3   0.209552 0.948164 0.336108 -0.409250
N4    N     N_3   0.272411 0.051083 0.394412 -0.405386
N5    N     N_3   0.027869 0.305968 0.069226 -0.447809
N6    N     N_3   0.478724 0.247914 0.075399 -0.452375
N7    N     N_3   0.527869 0.805969 0.069227 -0.447835
N8    N     N_3   0.021336 0.752088 0.618002 -0.452528
N9    N     N_3   0.964324 0.191048 0.504182 -0.453269
N10   N     N_3   0.521335 0.252089 0.618001 -0.452540
N11   N     N_3   0.464325 0.691047 0.504185 -0.452927
N12   N     N_3   0.713139 0.448355 0.338601 -0.408340
O1    O     O_3   0.750030 0.750030 0.500000 -0.489323
O2    O     O_R   0.750010 0.364550 0.560050 -0.651668
O3    O     O_R   0.250010 0.135450 0.560050 -0.652796
O4    O     O_R   0.250010 0.864550 0.560050 -0.651607
O5    O     O_R   0.605390 0.780070 0.439910 -0.640521
O6    O     O_R   0.605390 0.219930 0.439910 -0.639080
O7    O     O_R   0.105390 0.280070 0.439910 -0.640773
O8    O     O_R   0.105390 0.719930 0.439910 -0.638846
O9    O     O_R   0.834580 0.719970 0.439940 -0.656348
O10   O     O_R   0.834580 0.280030 0.439940 -0.660425
O11   O     O_R   0.334580 0.219970 0.439940 -0.656352
O12   O     O_3   0.750030 0.249970 0.500000 -0.492382
O13   O     O_R   0.334580 0.780030 0.439940 -0.660540
O14   O     O_R   0.665460 0.720000 0.560050 -0.645550
O15   O     O_R   0.665460 0.280000 0.560050 -0.646330
O16   O     O_R   0.165460 0.220000 0.560050 -0.645515
O17   O     O_R   0.165460 0.780000 0.560050 -0.646325
O18   O     O_R   0.894670 0.780060 0.560110 -0.631050
O19   O     O_R   0.894670 0.219940 0.560110 -0.631011
O20   O     O_R   0.394670 0.280060 0.560110 -0.631286
O21   O     O_R   0.394670 0.719940 0.560110 -0.630776
O22   O     O_R   0.689950 0.864610 0.439940 -0.646510
O23   O     O_3   0.250030 0.250030 0.500000 -0.489327
O24   O     O_R   0.689950 0.135390 0.439940 -0.647268
O25   O     O_R   0.189950 0.364610 0.439940 -0.646536
O26   O     O_R   0.189950 0.635390 0.439940 -0.647328
O27   O     O_R   0.750020 0.635440 0.439910 -0.610721
O28   O     O_R   0.750020 0.364560 0.439910 -0.612398
O29   O     O_R   0.250020 0.135440 0.439910 -0.610351
O30   O     O_R   0.250020 0.864560 0.439910 -0.612775
O31   O     O_R   0.605400 0.780060 0.270840 -0.648179
O32   O     O_R   0.605400 0.219940 0.270840 -0.629991
O33   O     O_R   0.105400 0.280060 0.270840 -0.647961
O34   O     O_3   0.250030 0.749970 0.500000 -0.492372
O35   O     O_R   0.105400 0.719940 0.270840 -0.630250
O36   O     O_R   0.834560 0.720000 0.729150 -0.645993
O37   O     O_R   0.834560 0.280000 0.729150 -0.642019
O38   O     O_R   0.334560 0.220000 0.729150 -0.646039
O39   O     O_R   0.334560 0.780000 0.729150 -0.641995
O40   O     O_R   0.665490 0.719970 0.270840 -0.649177
O41   O     O_R   0.665490 0.280030 0.270840 -0.656006
O42   O     O_R   0.165490 0.219970 0.270840 -0.649083
O43   O     O_R   0.165490 0.780030 0.270840 -0.655946
O44   O     O_R   0.894650 0.780070 0.729170 -0.639781
O45   O     O_R   0.810120 0.864610 0.560110 -0.644168
O46   O     O_R   0.894650 0.219930 0.729170 -0.644561
O47   O     O_R   0.394650 0.280070 0.729170 -0.639560
O48   O     O_R   0.394650 0.719930 0.729170 -0.644776
O49   O     O_R   0.810120 0.135390 0.560110 -0.641146
O50   O     O_R   0.310120 0.364610 0.560110 -0.644190
O51   O     O_R   0.310120 0.635390 0.560110 -0.641076
O52   O     O_R   0.750010 0.635450 0.560050 -0.652763
Zn1   Zn    Zn3+2 0.835880 0.792950 0.585850 0.969287
Zn2   Zn    Zn3+2 0.750030 0.292900 0.414160 0.967536
Zn3   Zn    Zn3+2 0.250030 0.207100 0.414160 0.968220
Zn4   Zn    Zn3+2 0.250030 0.792900 0.414160 0.967373
Zn5   Zn    Zn3+2 0.750010 0.707110 0.585820 0.965005
Zn6   Zn    Zn3+2 0.750010 0.292890 0.585820 0.966358
Zn7   Zn    Zn3+2 0.250010 0.207110 0.585820 0.964902
Zn8   Zn    Zn3+2 0.250010 0.792890 0.585820 0.966500
Zn9   Zn    Zn3+2 0.835880 0.207050 0.585850 0.967503
Zn10  Zn    Zn3+2 0.335880 0.292950 0.585850 0.969239
Zn11  Zn    Zn3+2 0.335880 0.707050 0.585850 0.967525
Zn12  Zn    Zn3+2 0.664180 0.792950 0.414160 0.959007
Zn13  Zn    Zn3+2 0.664180 0.207050 0.414160 0.971979
Zn14  Zn    Zn3+2 0.164180 0.292950 0.414160 0.958984
Zn15  Zn    Zn3+2 0.164180 0.707050 0.414160 0.971977
Zn16  Zn    Zn3+2 0.750030 0.707100 0.414160 0.968013

loop_
_geom_bond_atom_site_label_1
_geom_bond_atom_site_label_2
_ccdc_geom_bond_type
C61   C70   S    
C58   C62   D    
C7    H11   S    
C21   C26   D    
H43   N9    S    
C6    H10   S    
O7    Zn14  S    
O34   Zn8   S    
O29   Zn3   S    
C1    C8    S    
H47   N11   S    
H40   N8    S    
O17   Zn8   S    
O37   Zn6   S    
C9    C72   S    
H50   N12   S    
C4    C8    D    
C34   O17   A    
O12   Zn6   S    
O16   Zn7   S    
H29   N7    S    
C64   N6    S    
C19   N2    S    
O18   Zn1   S    
C72   H5    S    
C49   C65   S    
C30   C35   D    
O39   Zn8   S    
O31   Zn12  S    
C62   N1    S    
C43   O51   A    
C1    O14   A    
C53   O44   A    
C4    H8    S    
C5    C72   D    
C3    C7    D    
C70   H35   S    
C14   C36   S    
C9    H14   S    
C20   C25   D    
C6    C23   S    
C30   H59   S    
C49   O40   A    
C41   O24   A    
C29   C33   D    
H22   N1    S    
C50   C64   S    
O32   Zn13  S    
C50   O32   A    
C8    H13   S    
C17   C39   S    
C4    C13   S    
C42   O50   A    
C35   C42   S    
C15   C37   S    
C41   O49   A    
C67   H38   S    
C15   N9    S    
C33   H3    S    
O12   Zn9   S    
C40   O45   A    
C71   H39   S    
O34   Zn4   S    
H27   N6    S    
C1    O5    A    
C70   C71   D    
H55   N4    S    
C52   O43   A    
O23   Zn7   S    
O41   Zn2   S    
C29   C30   S    
C31   C41   S    
C21   N4    S    
C40   O22   A    
C45   H36   S    
C37   O19   A    
O1    Zn16  S    
H53   N3    S    
C26   H21   S    
C38   O20   A    
C45   C53   S    
C20   N3    S    
C39   O13   A    
C36   O18   A    
C63   N5    S    
H49   N12   S    
C2    C6    D    
H48   N11   S    
O22   Zn12  S    
C38   O11   A    
O34   Zn11  S    
O24   Zn13  S    
O5    Zn12  S    
H25   N5    S    
C43   O26   A    
C58   C66   S    
C36   O9    A    
O40   Zn16  S    
C48   O30   A    
C27   H45   S    
C7    C12   S    
O50   Zn10  S    
C47   O3    A    
C35   H4    S    
C44   O52   A    
O49   Zn9   S    
O26   Zn15  S    
H26   N5    S    
C27   C31   D    
O38   Zn7   S    
C33   C43   S    
H42   N9    S    
C12   O6    A    
C28   C32   D    
C51   C63   S    
C59   H12   S    
C57   O48   A    
O44   Zn1   S    
O36   Zn5   S    
C69   H33   S    
C18   C19   S    
O35   Zn15  S    
H51   N2    S    
H46   N10   S    
C56   C68   D    
O19   Zn9   S    
C10   C15   D    
C67   C69   D    
O47   Zn10  S    
C55   O47   A    
O33   Zn14  S    
C39   O21   A    
C16   N10   S    
C9    C14   D    
O23   Zn10  S    
C5    C34   S    
O1    Zn1   S    
C31   H60   S    
C2    H6    S    
C42   O25   A    
C59   C68   S    
H57   N4    S    
C5    H9    S    
C11   C16   D    
O46   Zn9   S    
C29   H58   S    
C11   H16   S    
C23   O16   A    
C22   H18   S    
C54   O37   A    
C10   H15   S    
C57   C71   S    
O28   Zn2   S    
C61   H34   S    
O21   Zn11  S    
C25   C48   S    
C3    H7    S    
C47   O29   A    
H28   N6    S    
C26   C47   S    
H44   N10   S    
H41   N8    S    
C22   C46   S    
O8    Zn15  S    
C14   N8    S    
H54   N3    S    
C17   N11   S    
C24   C44   S    
O48   Zn11  S    
O42   Zn3   S    
C2    C10   S    
C53   O36   A    
C56   H37   S    
C57   O39   A    
O11   Zn3   S    
O4    Zn8   S    
O45   Zn1   S    
C23   O7    A    
C25   H20   S    
C34   O8    A    
C54   O46   A    
C13   H17   S    
O12   Zn13  S    
C18   C22   D    
O30   Zn4   S    
C37   O10   A    
O12   Zn2   S    
C68   H32   S    
O23   Zn14  S    
O15   Zn6   S    
O9    Zn16  S    
C55   C67   S    
C54   C56   S    
H24   N1    S    
H52   N2    S    
O6    Zn13  S    
C59   C63   D    
C13   C17   D    
O43   Zn4   S    
C60   C64   D    
O13   Zn4   S    
O3    Zn7   S    
C19   C24   D    
C52   O35   A    
O2    Zn6   S    
C51   O42   A    
C52   C62   S    
C66   H31   S    
O1    Zn5   S    
O27   Zn16  S    
C46   O2    A    
C60   C69   S    
O10   Zn2   S    
O25   Zn14  S    
C48   O4    A    
C18   N12   S    
C55   O38   A    
C46   O28   A    
O34   Zn15  S    
H30   N7    S    
C32   C40   S    
C12   O15   A    
C44   O27   A    
C3    C11   S    
C24   H19   S    
C65   N7    S    
C60   H23   S    
C61   C65   D    
O51   Zn11  S    
C20   C21   S    
C45   C66   D    
C32   H2    S    
O14   Zn5   S    
O23   Zn3   S    
O20   Zn10  S    
O52   Zn5   S    
C51   O33   A    
C50   O41   A    
O1    Zn12  S    
C28   H56   S    
C58   H1    S    
C16   C38   S    
C27   C28   S    
C49   O31   A    
