data_mof_unit_51416.cif
_audit_creation_date              2012-12-10T17:52:18-0500
_audit_creation_method            fapswitch 2.2
_symmetry_space_group_name_H-M    P1
_symmetry_Int_Tables_number       1
_space_group_crystal_system       triclinic
_cell_length_a                    19.119693
_cell_length_b                    10.759158
_cell_length_c                    9.894408
_cell_angle_alpha                 88.33898
_cell_angle_beta                  90.551618
_cell_angle_gamma                 92.048008
_cell_volume                      2033.16641141

loop_
_atom_site_label
_atom_site_type_symbol
_atom_type_description
_atom_site_fract_x
_atom_site_fract_y
_atom_site_fract_z
_atom_type_partial_charge
C1    C     C_R   0.503447 0.260006 0.503202 0.900353
C2    C     C_R   0.852296 0.436024 0.505480 -0.015765
C3    C     C_R   0.494476 0.101698 0.763610 -0.150522
C4    C     C_R   0.365367 0.497290 0.499536 0.829330
C5    C     C_R   0.464578 0.034015 0.872065 -0.155538
C6    C     C_R   0.430298 0.920414 0.850198 -0.127319
C7    C     C_R   0.432301 0.868988 0.722845 -0.095023
C8    C     C_R   0.469299 0.931186 0.615635 0.059194
C9    C     C_R   0.490772 0.055604 0.630514 0.099205
C10   C     C_R   0.507010 0.126670 0.510763 -0.196097
C11   C     C_R   0.517071 0.068891 0.388658 -0.318952
C12   C     C_R   0.289496 0.479965 0.498895 -0.024224
C13   C     C_R   0.512293 0.941751 0.382186 0.468380
C14   C     C_R   0.487919 0.872071 0.495708 -0.235557
C15   C     C_R   0.403683 0.344072 0.142883 -0.161810
C16   C     C_R   0.494689 0.739321 0.498143 0.917009
C17   C     C_R   0.355737 0.268550 0.073817 -0.209984
C18   C     C_R   0.356008 0.268354 0.933958 -0.197285
C19   C     C_R   0.404346 0.343453 0.862488 -0.167027
C20   C     C_R   0.452095 0.424204 0.928926 0.123353
C21   C     C_R   0.452001 0.424328 0.073614 0.168842
C22   C     C_R   0.547748 0.568106 0.071336 -0.150734
C23   C     C_R   0.927942 0.418261 0.502938 0.330031
C24   C     C_R   0.548123 0.568548 0.928307 -0.003413
C25   C     C_R   0.634448 0.498066 0.500741 0.892462
C26   C     C_R   0.253706 0.464880 0.621541 -0.208930
C27   C     C_R   0.182137 0.439772 0.621477 -0.163859
C28   C     C_R   0.145262 0.430205 0.498738 0.093837
C29   C     C_R   0.181159 0.444598 0.375994 -0.163533
C30   C     C_R   0.252870 0.469382 0.376073 -0.202581
C31   C     C_3   0.598831 0.890386 0.236707 0.057347
C32   C     C_3   0.611162 0.912981 0.085593 -0.320896
C33   C     C_3   0.687343 0.894442 0.048860 -0.924016
C34   C     C_R   0.069095 0.415023 0.499220 0.275909
C35   C     C_2   0.605089 0.639651 0.859629 0.948144
C36   C     C_3   0.832905 0.421857 0.856974 0.089044
C37   C     C_3   0.867642 0.553133 0.852729 -0.367624
C38   C     C_3   0.862048 0.615127 0.988804 -0.935074
C39   C     C_R   0.812931 0.411420 0.624189 0.510860
C40   C     C_R   0.740974 0.431242 0.619973 -0.291026
C41   C     C_R   0.709568 0.482202 0.503615 -0.091811
C42   C     C_R   0.749197 0.509347 0.388184 -0.200493
C43   C     C_R   0.819849 0.485597 0.388833 -0.239118
H1    H     H_    0.280917 0.471549 0.717715 0.163517
H2    H     H_    0.404397 0.332349 0.755934 0.209440
H3    H     H_    0.155729 0.429679 0.717706 0.151726
H4    H     H_    0.153899 0.437970 0.279888 0.151413
H5    H     H_    0.279531 0.479499 0.280076 0.163114
H6    H     H_    0.708798 0.402554 0.705386 0.182240
H7    H     H_    0.725487 0.547960 0.297072 0.163206
H8    H     H_    0.849240 0.507703 0.297858 0.170351
H9    H     H_    0.530348 0.121840 0.296951 0.188316
H10   H     H_    0.619561 0.798931 0.269197 0.161180
H11   H     H_    0.629173 0.963888 0.292108 0.125881
H12   H     H_    0.522820 0.186474 0.788360 0.171368
H13   H     H_    0.576812 0.848111 0.027633 0.253774
H14   H     H_    0.597051 0.009554 0.056703 0.215470
H15   H     H_    0.722422 0.960267 0.104290 0.260494
H16   H     H_    0.694390 0.911917 0.938598 0.285981
H17   H     H_    0.702061 0.797532 0.074364 0.262144
H18   H     H_    0.708677 0.657767 0.825155 0.335981
H19   H     H_    0.857043 0.367989 0.941645 0.179408
H20   H     H_    0.776609 0.425273 0.882149 0.164519
H21   H     H_    0.923825 0.547316 0.827067 0.245540
H22   H     H_    0.841971 0.612128 0.774160 0.211521
H23   H     H_    0.466970 0.070939 0.972721 0.160967
H24   H     H_    0.806401 0.619795 0.018901 0.277340
H25   H     H_    0.885125 0.711221 0.981221 0.271039
H26   H     H_    0.891162 0.562138 0.067696 0.263476
H27   H     H_    0.404281 0.870130 0.932844 0.146705
H28   H     H_    0.405198 0.780126 0.709448 0.144401
H29   H     H_    0.586825 0.622538 0.125712 0.149795
H30   H     H_    0.402086 0.334910 0.250136 0.205909
H31   H     H_    0.319079 0.207987 0.129403 0.156770
H32   H     H_    0.319834 0.207172 0.880470 0.159126
N1    N     N_R   0.032010 0.422567 0.382043 -0.181176
N2    N     N_R   0.962660 0.424120 0.383904 -0.191132
N3    N     N_R   0.965066 0.406946 0.619585 -0.123175
N4    N     N_R   0.034337 0.405339 0.617887 -0.185182
N5    N     N_R   0.499340 0.498800 0.142780 -0.123055
N6    N     N_R   0.499320 0.498720 0.857170 -0.167306
O1    O     O_R   0.500000 0.316780 0.614690 -0.660029
O2    O     O_2   0.593260 0.735802 0.796399 -0.620027
O3    O     O_R   0.673664 0.600703 0.875008 -0.859601
O4    O     O_3   0.844268 0.356163 0.737200 -0.643016
O5    O     O_R   0.499990 0.316750 0.385360 -0.638110
O6    O     O_R   0.398140 0.500000 0.614700 -0.651359
O7    O     O_R   0.398130 0.499970 0.385370 -0.638900
O8    O     O_R   0.500010 0.683250 0.614640 -0.584548
O9    O     O_R   0.500000 0.683220 0.385310 -0.570107
O10   O     O_R   0.601870 0.500030 0.614630 -0.606863
O11   O     O_R   0.601860 0.500000 0.385300 -0.626560
O12   O     O_3   0.525836 0.887378 0.260550 -0.623426
Zn1   Zn    Zn3+2 0.500000 0.500020 0.653130 0.947418
Zn2   Zn    Zn3+2 0.500000 0.499980 0.346870 0.948950

loop_
_geom_bond_atom_site_label_1
_geom_bond_atom_site_label_2
_ccdc_geom_bond_type
C16   O9    A    
C18   H32   S    
O1    Zn1   S    
C41   C42   A    
C19   C20   A    
C26   H1    S    
C7    C8    A    
C4    O6    A    
C26   C27   A    
C33   H15   S    
C29   H4    S    
C30   H5    S    
C36   C37   S    
C37   C38   S    
C7    H28   S    
C5    C6    A    
C40   H6    S    
O6    Zn1   S    
C15   C17   A    
C18   C19   A    
O8    Zn1   S    
C11   H9    S    
C3    H12   S    
C2    C39   A    
C8    C9    A    
C37   H22   S    
C4    C12   S    
C36   H20   S    
C9    C10   A    
O7    Zn2   S    
C28   C34   S    
C16   O8    A    
C33   H16   S    
C20   N6    A    
C32   H14   S    
C36   H19   S    
C22   H29   S    
C25   O10   A    
C24   C35   S    
C31   H11   S    
O9    Zn2   S    
N1    N2    A    
O5    Zn2   S    
C25   C41   S    
C39   C40   A    
C35   O2    D    
N3    N4    A    
C1    O1    A    
C31   O12   S    
O11   Zn2   S    
C31   H10   S    
C13   O12   S    
C24   N6    A    
C29   C30   A    
C3    C9    A    
C34   N4    A    
C31   C32   S    
C2    C43   A    
C17   C18   A    
C23   N2    A    
N5    Zn2   S    
C42   H7    S    
C27   H3    S    
C40   C41   A    
C15   H30   S    
C38   H25   S    
C33   H17   S    
C17   H31   S    
C14   C16   S    
C42   C43   A    
C39   O4    S    
C38   H24   S    
C2    C23   S    
C37   H21   S    
C1    O5    A    
C6    H27   S    
C28   C29   A    
C25   O11   A    
C8    C14   A    
C12   C30   A    
C1    C10   S    
C5    H23   S    
C3    C5    A    
H18   O3    S    
C35   O3    S    
C19   H2    S    
C6    C7    A    
C4    O7    A    
C36   O4    S    
C32   C33   S    
C22   N5    A    
O10   Zn1   S    
N6    Zn1   S    
C11   C13   A    
C43   H8    S    
C21   N5    A    
C22   C24   A    
C23   N3    A    
C38   H26   S    
C10   C11   A    
C15   C21   A    
C20   C21   A    
C12   C26   A    
C27   C28   A    
C13   C14   A    
C32   H13   S    
C34   N1    A    
