data_mof_unit_60893.cif
_audit_creation_date              2013-03-05T16:12:55-0500
_audit_creation_method            fapswitch 2.2
_symmetry_space_group_name_H-M    P1
_symmetry_Int_Tables_number       1
_space_group_crystal_system       triclinic
_cell_length_a                    15.919802
_cell_length_b                    14.677562
_cell_length_c                    10.680562
_cell_angle_alpha                 89.731157
_cell_angle_beta                  89.978179
_cell_angle_gamma                 90.040126
_cell_volume                      2495.63329773

loop_
_atom_site_label
_atom_site_type_symbol
_atom_site_description
_atom_site_fract_x
_atom_site_fract_y
_atom_site_fract_z
_atom_type_partial_charge
O1    O     O_R   0.379360 0.575970 0.499860 -0.571515
O2    O     O_R   0.379360 0.424030 0.499860 -0.552877
C1    C     C_R   0.339873 0.499943 0.499944 0.807112
O3    O     O_R   0.499910 0.575920 0.316720 -0.545048
O4    O     O_R   0.499910 0.424080 0.316720 -0.571400
C2    C     C_R   0.499940 0.500256 0.259019 0.908089
Cu1   Cu    Cu3+1 0.499910 0.589920 0.499840 1.130579
Cu2   Cu    Cu3+1 0.499910 0.410080 0.499840 1.115032
O5    O     O_R   0.620490 0.575900 0.499870 -0.540742
O6    O     O_R   0.620490 0.424100 0.499870 -0.576719
O7    O     O_R   0.499950 0.575950 0.683010 -0.545199
O8    O     O_R   0.499950 0.424050 0.683010 -0.543097
C3    C     C_R   0.660015 0.500033 0.499838 0.816359
C4    C     C_R   0.500917 0.499686 0.740756 0.929201
C5    C     C_3   0.503140 0.585972 0.039688 0.633189
C6    C     C_3   0.431917 0.459123 0.041703 0.610981
C7    C     C_3   0.432985 0.544968 0.956754 -0.350075
H1    H     H_    0.377103 0.581646 0.920219 0.239920
C8    C     C_3   0.502071 0.499097 0.876659 -0.343845
C9    C     C_3   0.570611 0.540179 0.959754 0.254646
C10   C     C_3   0.500200 0.414676 0.961747 0.259075
C11   C     C_3   0.570476 0.454663 0.044479 -0.398143
C12   C     C_3   0.501158 0.500673 0.123373 -0.333006
H2    H     H_    0.626356 0.417964 0.080991 0.232953
C13   C     C_3   0.049238 0.598278 0.497155 0.550739
C14   C     C_3   0.047049 0.447284 0.626610 0.577915
C15   C     C_3   0.949063 0.459915 0.629941 0.968136
C16   C     C_3   0.950928 0.597762 0.483796 1.024234
C17   C     C_1   0.749360 0.500098 0.500771 -0.019588
C18   C     C_3   0.082850 0.496489 0.504005 -0.518993
C19   C     C_3   0.916791 0.499387 0.503245 -0.411137
C20   C     C_3   0.949509 0.438090 0.395954 -0.568288
C21   C     C_3   0.048266 0.442635 0.383551 0.479046
C22   C     C_1   0.824667 0.499960 0.501828 0.306413
C23   C     C_1   0.175237 0.498242 0.502642 0.329886
C24   C     C_1   0.250578 0.499537 0.501202 0.029001
H3    H     H_    0.916776 0.454908 0.307092 0.276540
H4    H     H_    0.929141 0.367070 0.416986 0.274485
C25   C     C_3   0.591349 0.054340 0.547026 0.098120
C26   C     C_3   0.594308 0.946830 0.537465 0.122033
C27   C     C_3   0.485046 0.053307 0.373824 -0.519561
C28   C     C_3   0.479681 0.946821 0.376832 -0.514455
H5    H     H_    0.633698 0.930474 0.454205 0.127852
H6    H     H_    0.637501 0.080935 0.477220 0.127556
H7    H     H_    0.425026 0.081503 0.336951 0.244977
H8    H     H_    0.414630 0.925244 0.352838 0.235601
H9    H     H_    0.535356 0.074924 0.307670 0.248566
H10   H     H_    0.521634 0.918439 0.303351 0.262933
N1    N     N_1   0.501390 0.724970 0.502570 -0.123325
N2    N     N_1   0.501390 0.275030 0.502570 -0.126521
C29   C     C_3   0.503193 0.092140 0.506556 -0.187134
C30   C     C_3   0.504278 0.907883 0.508008 -0.183797
C31   C     C_3   0.438652 0.946858 0.602699 0.492021
C32   C     C_3   0.432913 0.053090 0.593106 0.506386
C33   C     C_1   0.502488 0.804775 0.504717 0.340971
C34   C     C_1   0.502110 0.195210 0.504180 0.338951
H11   H     H_    0.370897 0.070976 0.551570 0.079798
H12   H     H_    0.375790 0.917946 0.580365 0.078350
F1    F     F_    0.434119 0.092922 0.710390 -0.508281
F2    F     F_    0.456881 0.920672 0.724299 -0.504618
N3    N     N_R   0.617549 0.088960 0.670115 0.204290
O9    O     O_R   0.677675 0.148848 0.676595 -0.240627
O10   O     O_R   0.585664 0.057017 0.773588 -0.120863
N4    N     N_R   0.637719 0.904172 0.644605 0.200059
O11   O     O_R   0.717080 0.921389 0.661723 -0.202711
O12   O     O_R   0.601975 0.842915 0.715175 -0.191153
F3    F     F_    0.506180 0.674956 0.081441 -0.560014
F4    F     F_    0.360615 0.416433 0.087165 -0.545552
N5    N     N_R   0.647076 0.585830 0.918070 0.202317
O13   O     O_R   0.698585 0.619352 0.000335 -0.203290
O14   O     O_R   0.665901 0.590610 0.799768 -0.276987
N6    N     N_R   0.498859 0.320656 0.918538 0.180691
O15   O     O_R   0.434825 0.268462 0.942921 -0.190401
O16   O     O_R   0.563217 0.287610 0.859102 -0.239962
F5    F     F_    0.912648 0.657041 0.566954 -0.521736
F6    F     F_    0.925053 0.517658 0.726042 -0.531633
N7    N     N_R   0.078181 0.652879 0.604749 0.165458
O17   O     O_R   0.036428 0.656621 0.709408 -0.168806
O18   O     O_R   0.147028 0.700290 0.594874 -0.216385
N8    N     N_R   0.084453 0.476864 0.746520 0.199702
O19   O     O_R   0.156581 0.518400 0.751687 -0.304215
O20   O     O_R   0.054604 0.442916 0.850240 -0.116006
F7    F     F_    0.063494 0.354739 0.618800 -0.524932
F8    F     F_    0.082054 0.640308 0.390905 -0.513804
F9    F     F_    0.910978 0.376339 0.653232 -0.529439
F10   F     F_    0.928543 0.627679 0.364892 -0.522248
N9    N     N_R   0.074323 0.489635 0.266680 0.212031
O21   O     O_R   0.153074 0.489102 0.233781 -0.223242
O22   O     O_R   0.020349 0.526772 0.190453 -0.163530
N10   N     N_R   0.080021 0.347929 0.374735 0.209962
O23   O     O_R   0.043894 0.292251 0.296869 -0.226380
O24   O     O_R   0.154427 0.326036 0.415350 -0.240874

loop_
_geom_bond_atom_site_label_1
_geom_bond_atom_site_label_2
_geom_bond_distance
_ccdc_geom_bond_type
C25   C29   1.569574 S    
N9    O21   1.301922 A    
C6    C10   1.530380 S    
C27   C28   1.565404 S    
C8    C9    1.531885 S    
Cu1   Cu2   2.639611 S    
C31   C32   1.564836 S    
C13   C16   1.571637 S    
Cu1   O7    1.966119 S    
C14   C15   1.571431 S    
C14   F7    1.386398 S    
C18   C23   1.471060 S    
C13   N7    1.477716 S    
C3    C17   1.422385 S    
C8    C10   1.533456 S    
O4    C2    1.274146 A    
O7    C4    1.275600 A    
Cu1   O5    1.930751 S    
C29   C34   1.513019 S    
C28   H8    1.113084 S    
N3    O10   1.301226 A    
O5    C3    1.279408 A    
C26   H5    1.115097 S    
C23   C24   1.199630 T    
C6    C7    1.549296 S    
C13   F8    1.390619 S    
C6    F4    1.382966 S    
C20   H4    1.113318 S    
C30   C33   1.514187 S    
N7    O17   1.301705 A    
C5    C12   1.535183 S    
C10   C11   1.543244 S    
N3    O9    1.301203 A    
O3    Cu1   1.967547 S    
C31   F2    1.383644 S    
C15   F9    1.389329 S    
C32   F1    1.384994 S    
N7    O18   1.301846 A    
C5    C9    1.529741 S    
C25   N3    1.472034 S    
N5    O14   1.300036 A    
C10   N6    1.457308 S    
C15   C19   1.557013 S    
Cu1   N1    1.982680 S    
N6    O16   1.300405 A    
C25   C26   1.582496 S    
N6    O15   1.300281 A    
C26   C30   1.575087 S    
C17   C22   1.198936 T    
C14   N8    1.479428 S    
O1    C1    1.280389 A    
N4    O12   1.301110 A    
N10   O24   1.301596 A    
C19   C20   1.550401 S    
Cu2   O8    1.968032 S    
C5    F3    1.382902 S    
C7    H1    1.110179 S    
C27   H9    1.112870 S    
C19   C22   1.466711 S    
C28   H10   1.112929 S    
C20   H3    1.109797 S    
N8    O20   1.302060 A    
C9    C11   1.543902 S    
C14   C18   1.597243 S    
C6    C12   1.533830 S    
N9    O22   1.302037 A    
C16   F10   1.388506 S    
C11   H2    1.110219 S    
C9    N5    1.457616 S    
O3    C2    1.272617 A    
C15   F6    1.387892 S    
Cu2   N2    1.982439 S    
C30   C31   1.564313 S    
C13   C18   1.588683 S    
C5    C7    1.548869 S    
C18   C21   1.610127 S    
O1    Cu1   1.929881 S    
C4    C8    1.451633 S    
C16   C19   1.555428 S    
O2    Cu2   1.930166 S    
O8    C4    1.272590 A    
N8    O19   1.301003 A    
O6    C3    1.279495 A    
O4    Cu2   1.965629 S    
C31   H12   1.113111 S    
C25   H6    1.115579 S    
C26   N4    1.474305 S    
C29   C32   1.558263 S    
N4    O11   1.301400 A    
O2    C1    1.279705 A    
C21   N9    1.482306 S    
N1    C33   1.171801 T    
C21   N10   1.482850 S    
C20   C21   1.579044 S    
N10   O23   1.302441 A    
C1    C24   1.421627 S    
C2    C12   1.448878 S    
C7    C8    1.549345 S    
N5    O13   1.300222 A    
N2    C34   1.171668 T    
Cu2   O6    1.930465 S    
C27   H7    1.112960 S    
C11   C12   1.545811 S    
C16   F5    1.387380 S    
C27   C29   1.557476 S    
C28   C30   1.560790 S    
C32   H11   1.113588 S    
