data_mof_unit_47032.cif
_audit_creation_date              2012-12-10T19:09:34-0500
_audit_creation_method            fapswitch 2.2
_symmetry_space_group_name_H-M    P1
_symmetry_Int_Tables_number       1
_space_group_crystal_system       triclinic
_cell_length_a                    9.53167
_cell_length_b                    10.823518
_cell_length_c                    17.113383
_cell_angle_alpha                 89.377314
_cell_angle_beta                  94.219101
_cell_angle_gamma                 89.903207
_cell_volume                      1760.62870388

loop_
_atom_site_label
_atom_site_type_symbol
_atom_type_description
_atom_site_fract_x
_atom_site_fract_y
_atom_site_fract_z
_atom_type_partial_charge
C1    C     C_R   0.499881 0.262273 0.498711 0.801985
C2    C     C_R   0.647884 0.555194 0.780801 0.141050
C3    C     C_R   0.584719 0.492584 0.141194 -0.157003
C4    C     C_R   0.593683 0.495734 0.222474 -0.235410
C5    C     C_R   0.452183 0.490594 0.098673 0.383733
C6    C     C_R   0.471232 0.497058 0.263085 -0.028717
C7    C     C_R   0.339237 0.493123 0.220871 -0.217665
C8    C     C_R   0.330184 0.489479 0.139249 -0.195624
C9    C     C_R   0.624347 0.063402 0.489392 0.138010
C10   C     C_R   0.498602 0.129289 0.491063 -0.097934
C11   C     C_R   0.370518 0.064911 0.481655 -0.218270
C12   C     C_R   0.518169 0.501210 0.650951 0.804821
C13   C     C_R   0.370377 0.936133 0.481687 -0.217084
C14   C     C_R   0.498308 0.870907 0.491051 -0.097271
C15   C     C_R   0.624164 0.936235 0.489442 0.121164
C16   C     C_3   0.754885 0.928316 0.543057 -0.463125
C17   C     C_3   0.755268 0.068601 0.542902 -0.482228
C18   C     C_R   0.069820 0.600155 0.472204 0.259248
C19   C     C_R   0.079320 0.407631 0.535539 -0.082709
C20   C     C_R   0.930373 0.407743 0.535654 -0.088480
C21   C     C_R   0.922440 0.600122 0.472189 0.258879
C22   C     C_3   0.905813 0.654057 0.391534 -0.502759
C23   C     C_R   0.499676 0.737729 0.498659 0.800571
C24   C     C_3   0.065135 0.654101 0.391563 -0.507402
C25   C     C_R   0.482111 0.500346 0.349044 0.798933
C26   C     C_R   0.529338 0.504784 0.737131 -0.043490
C27   C     C_R   0.416428 0.458431 0.776750 -0.282440
C28   C     C_R   0.420008 0.460550 0.857979 -0.162735
C29   C     C_R   0.537340 0.509752 0.901538 0.340426
C30   C     C_R   0.650027 0.555842 0.862681 -0.191025
Cu1   Cu    Cu3+1 0.640670 0.499980 0.500000 0.937772
Cu2   Cu    Cu3+1 0.359330 0.500020 0.500000 0.940009
H1    H     H_    0.696840 0.496487 0.253315 0.152207
H2    H     H_    0.270432 0.888362 0.478309 0.158508
H3    H     H_    0.736171 0.886739 0.601083 0.196099
H4    H     H_    0.844520 0.888031 0.513886 0.192743
H5    H     H_    0.737095 0.108727 0.600869 0.194871
H6    H     H_    0.845000 0.108862 0.513434 0.193338
H7    H     H_    0.138789 0.331771 0.563136 0.137526
H8    H     H_    0.878463 0.332266 0.563557 0.138739
H9    H     H_    0.854991 0.589543 0.348261 0.211915
H10   H     H_    0.859441 0.748391 0.390707 0.193637
H11   H     H_    0.105220 0.589642 0.348305 0.212189
H12   H     H_    0.681651 0.491039 0.111962 0.150695
H13   H     H_    0.110637 0.748514 0.390778 0.189843
H14   H     H_    0.739743 0.593509 0.897020 0.140806
H15   H     H_    0.243046 0.492402 0.250725 0.151381
H16   H     H_    0.331440 0.422884 0.886369 0.159840
H17   H     H_    0.227763 0.486705 0.107400 0.138781
H18   H     H_    0.325030 0.419257 0.744781 0.166844
H19   H     H_    0.270620 0.113257 0.478132 0.162249
N1    N     N_2   0.548327 0.513211 0.984454 -0.263086
N2    N     N_2   0.437591 0.488049 0.015635 -0.263067
N3    N     N_R   0.147870 0.500930 0.499500 -0.182977
N4    N     N_R   0.851960 0.500890 0.499500 -0.182715
O1    O     O_R   0.618810 0.319640 0.500000 -0.581581
O2    O     O_R   0.381230 0.319680 0.499990 -0.591076
O3    O     O_R   0.631790 0.498830 0.613930 -0.578883
O4    O     O_R   0.394210 0.498870 0.613920 -0.581859
O5    O     O_R   0.618770 0.680320 0.500010 -0.580604
O6    O     O_R   0.381190 0.680360 0.500000 -0.583588
O7    O     O_R   0.605790 0.501130 0.386080 -0.583552
O8    O     O_R   0.368210 0.501170 0.386070 -0.584631
C31   C     C_3   0.770536 0.611959 0.742545 -0.832896
H20   H     H_    0.845582 0.657129 0.785981 0.217020
H21   H     H_    0.829585 0.539439 0.713295 0.247048
H22   H     H_    0.732328 0.683777 0.699216 0.229006

loop_
_geom_bond_atom_site_label_1
_geom_bond_atom_site_label_2
_ccdc_geom_bond_type
Cu1   O5    S    
C14   C23   S    
C5    C8    A    
C29   C30   A    
C1    O2    A    
Cu1   O1    S    
C18   C21   A    
C7    H15   S    
C9    C10   A    
Cu1   Cu2   S    
C27   H18   S    
C2    C30   A    
C12   O3    A    
C31   H20   S    
C19   C20   A    
C9    C15   A    
C13   H2    S    
C2    C26   A    
C17   H5    S    
C21   C22   S    
C16   H4    S    
C11   C13   A    
Cu1   O7    S    
C9    C17   S    
C26   C27   A    
C22   H10   S    
C19   H7    S    
Cu2   O2    S    
C20   N4    A    
C18   C24   S    
C24   H13   S    
C19   N3    A    
Cu2   N3    S    
C28   C29   A    
C1    O1    A    
C2    C31   S    
Cu2   O6    S    
C6    C7    A    
C25   O7    A    
C16   H3    S    
C12   C26   S    
C23   O5    A    
C20   H8    S    
C22   C24   S    
C3    H12   S    
C6    C25   S    
C11   H19   S    
C10   C11   A    
C18   N3    A    
C3    C4    A    
C22   H9    S    
C31   H22   S    
C23   O6    A    
C17   H6    S    
Cu1   O3    S    
C4    C6    A    
C7    C8    A    
C25   O8    A    
C5    N2    S    
C27   C28   A    
C21   N4    A    
C24   H11   S    
C14   C15   A    
C28   H16   S    
C4    H1    S    
Cu2   O4    S    
Cu1   N4    S    
C13   C14   A    
C12   O4    A    
C8    H17   S    
C30   H14   S    
C1    C10   S    
C15   C16   S    
Cu2   O8    S    
N1    N2    D    
C16   C17   S    
C3    C5    A    
C29   N1    S    
C31   H21   S    
