data_mof_unit_31237.cif
_audit_creation_date              2013-03-05T15:55:04-0500
_audit_creation_method            fapswitch 2.2
_symmetry_space_group_name_H-M    P1
_symmetry_Int_Tables_number       1
_space_group_crystal_system       triclinic
_cell_length_a                    14.823677
_cell_length_b                    14.88813
_cell_length_c                    14.888981
_cell_angle_alpha                 109.456401
_cell_angle_beta                  110.072327
_cell_angle_gamma                 108.984176
_cell_volume                      2526.25144381

loop_
_atom_site_label
_atom_site_type_symbol
_atom_site_description
_atom_site_fract_x
_atom_site_fract_y
_atom_site_fract_z
_atom_type_partial_charge
C1    C     C_R   0.185546 0.278527 0.254291 -0.142282
H1    H     H_    0.124110 0.302408 0.252086 0.113523
N1    N     N_R   0.291070 0.347930 0.293870 -0.039873
C2    C     C_R   0.525691 0.432661 0.746723 -0.142435
H2    H     H_    0.553037 0.374524 0.749649 0.112851
N2    N     N_R   0.554050 0.497220 0.706150 -0.041328
C3    C     C_R   0.506767 0.202086 0.408273 -0.148141
H3    H     H_    0.488853 0.156395 0.324997 0.102888
N3    N     N_R   0.497240 0.291100 0.443210 -0.037880
C4    C     C_R   0.289623 0.596634 0.588260 -0.131089
H4    H     H_    0.321785 0.656813 0.672485 0.085457
N4    N     N_R   0.347890 0.554050 0.556810 -0.040424
C5    C     C_R   0.596595 0.290774 0.591104 -0.139910
H5    H     H_    0.657867 0.322855 0.675551 0.083196
N5    N     N_R   0.554050 0.347900 0.556830 -0.038182
C6    C     C_R   0.199759 0.504478 0.405796 -0.135264
H6    H     H_    0.151758 0.479566 0.320516 0.126491
N6    N     N_R   0.291070 0.497250 0.443190 -0.042836
C7    C     C_R   0.435824 0.527546 0.751141 -0.125494
H7    H     H_    0.382650 0.559967 0.762257 0.093116
N7    N     N_R   0.497240 0.554030 0.706140 -0.040244
C8    C     C_R   0.276461 0.184899 0.249543 -0.129096
H8    H     H_    0.298107 0.121010 0.238522 0.094508
N8    N     N_R   0.347890 0.291110 0.293870 -0.039761
C9    C     C_R   0.173051 0.174753 0.224829 0.067637
C10   C     C_R   0.451774 0.450081 0.776810 0.071974
C11   C     C_R   0.567982 0.198396 0.498958 0.088801
C12   C     C_R   0.195958 0.568302 0.494531 0.069879
C13   C     C_R   0.477288 0.721152 0.407795 -0.025665
H9    H     H_    0.452984 0.697437 0.322997 0.100758
N9    N     N_R   0.445950 0.652100 0.443170 -0.042241
C14   C     C_R   0.815342 0.567501 0.593216 -0.135679
H10   H     H_    0.878502 0.618337 0.679123 0.118142
N10   N     N_R   0.708930 0.502750 0.556810 -0.043258
C15   C     C_R   0.494301 0.402557 0.195681 -0.158372
H11   H     H_    0.513264 0.337994 0.167681 0.102014
N11   N     N_R   0.502760 0.445970 0.293860 -0.039996
C16   C     C_R   0.707482 0.798997 0.804179 -0.169136
H12   H     H_    0.670494 0.845575 0.831986 0.107098
N12   N     N_R   0.652110 0.708890 0.706130 -0.040782
C17   C     C_R   0.801627 0.709988 0.805264 -0.116931
H13   H     H_    0.854330 0.678192 0.834413 0.088277
N13   N     N_R   0.708930 0.652070 0.706130 -0.042202
C18   C     C_R   0.403951 0.495217 0.194509 -0.159187
H14   H     H_    0.342713 0.518537 0.165320 0.121145
N14   N     N_R   0.445950 0.502780 0.293850 -0.044681
C19   C     C_R   0.564036 0.815276 0.591997 -0.116304
H15   H     H_    0.615824 0.879540 0.677509 0.093721
N15   N     N_R   0.502760 0.708900 0.556790 -0.045108
C20   C     C_R   0.722529 0.477382 0.408850 -0.125982
H16   H     H_    0.699125 0.446145 0.323173 0.093903
N16   N     N_R   0.652110 0.445950 0.443190 -0.041724
Ni1   Ni    Ni4+2 0.369690 0.500010 0.369700 0.238453
Ni2   Ni    Ni4+2 0.630310 0.499990 0.630300 0.205415
Ni3   Ni    Ni4+2 0.500000 0.369720 0.369720 0.204333
Ni4   Ni    Ni4+2 0.500000 0.630280 0.630280 0.210538
C21   C     C_R   0.549521 0.825129 0.499054 0.046563
C22   C     C_R   0.826403 0.556907 0.501708 0.057078
C23   C     C_R   0.433559 0.432612 0.131149 0.080429
C24   C     C_R   0.802470 0.802860 0.868927 0.080051
H17   H     H_    0.922874 0.398992 0.972610 0.105120
C25   C     C_R   0.020526 0.542454 0.134660 -0.053525
H18   H     H_    0.056850 0.595717 0.107418 0.152525
C26   C     C_R   0.047957 0.584986 0.245360 -0.088376
H19   H     H_    0.105423 0.671598 0.303427 0.169809
C27   C     C_R   0.998107 0.516392 0.279794 0.061142
C28   C     C_R   0.920150 0.405175 0.202040 -0.184504
H20   H     H_    0.878604 0.351875 0.226625 0.114949
C29   C     C_R   0.893864 0.362973 0.091822 -0.105143
H21   H     H_    0.833257 0.277499 0.032076 0.124483
C30   C     C_R   0.944165 0.431513 0.058205 -0.137561
C31   C     C_R   0.924529 0.566297 0.398866 -0.228611
H22   H     H_    0.847906 0.528829 0.322723 0.127155
C32   C     C_R   0.929428 0.606705 0.500416 0.047236
C33   C     C_R   0.034263 0.675895 0.597574 0.030121
C34   C     C_R   0.125188 0.671110 0.592275 -0.227137
H23   H     H_    0.204459 0.717746 0.667588 0.120338
C35   C     C_R   0.113106 0.604253 0.491374 0.071231
C36   C     C_R   0.014862 0.563812 0.392331 0.034825
C37   C     C_R   0.001331 0.823115 0.697436 -0.139086
H24   H     H_    0.947550 0.811967 0.618973 0.115902
C38   C     C_R   0.021190 0.904149 0.794768 -0.099385
H25   H     H_    0.982341 0.954105 0.791020 0.110506
C39   C     C_R   0.092061 0.921573 0.896964 -0.087836
H26   H     H_    0.108728 0.985640 0.972144 0.122471
C40   C     C_R   0.141550 0.856587 0.902073 -0.122909
H27   H     H_    0.195689 0.869676 0.981438 0.113048
C41   C     C_R   0.121880 0.775258 0.804907 -0.174268
H28   H     H_    0.160848 0.725610 0.810481 0.108683
C42   C     C_R   0.051928 0.758100 0.701460 0.112892
C43   C     C_R   0.451722 0.346479 0.877592 0.167704
C44   C     C_R   0.406992 0.401463 0.832911 0.034006
C45   C     C_R   0.333197 0.425945 0.861305 -0.198654
H29   H     H_    0.289976 0.460971 0.823148 0.128197
C46   C     C_R   0.329101 0.422517 0.952746 -0.204501
H30   H     H_    0.283025 0.455190 0.981816 0.133705
C47   C     C_R   0.398101 0.393649 0.014568 0.031394
C48   C     C_R   0.446874 0.342255 0.967000 0.160922
C49   C     C_3   0.559602 0.354231 0.017376 -0.516876
C50   C     C_3   0.565383 0.359483 0.920133 -0.513629
H31   H     H_    0.621448 0.432553 0.096618 0.200850
H32   H     H_    0.556770 0.279195 0.018804 0.190023
H33   H     H_    0.630521 0.441049 0.944902 0.201452
H34   H     H_    0.566509 0.287762 0.866081 0.194375
C51   C     C_R   0.548650 0.926905 0.396131 -0.030430
C52   C     C_R   0.592648 0.926296 0.495520 0.083516
C53   C     C_R   0.666011 0.028315 0.593789 -0.172148
H35   H     H_    0.708487 0.033231 0.672090 0.113695
C54   C     C_R   0.671086 0.124088 0.594227 -0.200004
H36   H     H_    0.716287 0.198865 0.672988 0.116264
C55   C     C_R   0.604313 0.117769 0.495911 0.089094
C56   C     C_R   0.557503 0.021954 0.396077 0.120972
C57   C     C_3   0.448908 0.961585 0.290537 -0.638399
C58   C     C_3   0.437319 0.857433 0.291701 0.232323
H37   H     H_    0.385409 0.981543 0.299795 0.227685
H38   H     H_    0.459838 0.965723 0.221521 0.167095
H39   H     H_    0.436640 0.799331 0.220930 0.053735
C59   C     C_R   0.967492 0.071673 0.126432 0.169855
C60   C     C_R   0.068440 0.073296 0.170248 0.024597
C61   C     C_R   0.065430 0.971634 0.140942 -0.206844
H40   H     H_    0.139489 0.967348 0.178521 0.140559
C62   C     C_R   0.970676 0.875971 0.048208 -0.201462
H41   H     H_    0.975468 0.801795 0.017928 0.134253
C63   C     C_R   0.879310 0.882632 0.986419 0.023495
C64   C     C_R   0.873993 0.977382 0.035894 0.171750
C65   C     C_3   0.833641 0.040008 0.988317 -0.544743
C66   C     C_3   0.935838 0.142948 0.086928 -0.527295
H42   H     H_    0.832886 0.025363 0.909682 0.198538
H43   H     H_    0.756306 0.033365 0.987181 0.191770
H44   H     H_    0.991886 0.186071 0.063036 0.204324
H45   H     H_    0.917429 0.195117 0.142790 0.195205
N17   N     N_R   0.345143 0.806981 0.307114 0.246730
O1    O     O_R   0.269157 0.705149 0.236236 -0.478175
O2    O     O_R   0.337325 0.862554 0.389841 -0.405767

loop_
_geom_bond_atom_site_label_1
_geom_bond_atom_site_label_2
_geom_bond_distance
_ccdc_geom_bond_type
C6    C12   1.378833 A    
C45   H29   1.081694 S    
C53   C54   1.400902 A    
C17   H13   1.080538 S    
C46   H30   1.081355 S    
C14   C22   1.391067 A    
C47   C48   1.400066 A    
C3    H3    1.079430 S    
C19   N15   1.338753 A    
C61   H40   1.081701 S    
N8    Ni3   1.839571 S    
C27   C36   1.476422 S    
C25   H18   1.081506 S    
C7    N7    1.339553 A    
N2    Ni2   1.852570 S    
C31   C36   1.386800 A    
C54   C55   1.408719 A    
C16   H12   1.079280 S    
C40   C41   1.399251 A    
C52   C53   1.408209 A    
C18   C23   1.384169 A    
C10   C44   1.460504 S    
C48   C49   1.497831 S    
C50   H34   1.111966 S    
C3    C11   1.374911 A    
C15   C23   1.374356 A    
C1    H1    1.074611 S    
C29   C30   1.396120 A    
C7    C10   1.393245 A    
C59   C60   1.400477 A    
C25   C26   1.400029 A    
N6    Ni1   1.852376 S    
N12   N13   1.374278 A    
C49   C50   1.505307 S    
C18   N14   1.341394 A    
N17   O1    1.299275 A    
N12   Ni4   1.839570 S    
C8    C9    1.390389 A    
C20   N16   1.333410 A    
C53   H35   1.081785 S    
N3    Ni3   1.849809 S    
C59   C64   1.378345 A    
C43   C50   1.500335 S    
C12   C35   1.483886 S    
C33   C42   1.487039 S    
N16   Ni3   1.839520 S    
C57   H38   1.111724 S    
H17   C30   1.082411 S    
C27   C28   1.406106 A    
C11   C55   1.460857 S    
C45   C46   1.400312 A    
C5    H5    1.080640 S    
C1    C9    1.385752 A    
C17   N13   1.341399 A    
N1    N8    1.374279 A    
N9    N15   1.375457 A    
C9    C60   1.462884 S    
C56   C57   1.499966 S    
C61   C62   1.401777 A    
C32   C33   1.411189 A    
C13   C21   1.382312 A    
C28   H20   1.083173 S    
C20   C22   1.395122 A    
N5    Ni2   1.854037 S    
C51   C58   1.505895 S    
C34   H23   1.079974 S    
C31   C32   1.394095 A    
C43   C44   1.401958 A    
C40   H27   1.082711 S    
C31   H22   1.081262 S    
C65   H43   1.111790 S    
N2    N7    1.374036 A    
C50   H33   1.112381 S    
N9    Ni1   1.854037 S    
C28   C29   1.398035 A    
C15   H11   1.079839 S    
C26   C27   1.403458 A    
C33   C34   1.399886 A    
C13   H9    1.075435 S    
C19   C21   1.390750 A    
N13   Ni2   1.853781 S    
C19   H15   1.079570 S    
C20   H16   1.077010 S    
C6    N6    1.330830 A    
C39   H26   1.081376 S    
N4    Ni4   1.839520 S    
C4    N4    1.342898 A    
C16   C24   1.376213 A    
C2    N2    1.328057 A    
C49   H31   1.112530 S    
C51   C56   1.378308 A    
C41   C42   1.407852 A    
N10   Ni2   1.852379 S    
C38   C39   1.395967 A    
C5    N5    1.341157 A    
C64   C65   1.496977 S    
C23   C47   1.459545 S    
C8    N8    1.338998 A    
C24   C63   1.461571 S    
C59   C66   1.497484 S    
C62   C63   1.408347 A    
C18   H14   1.080856 S    
C22   C32   1.474930 S    
C57   C58   1.510267 S    
C4    C12   1.396443 A    
C3    N3    1.326566 A    
C65   H42   1.112561 S    
C55   C56   1.400469 A    
C15   N11   1.327524 A    
C35   C36   1.421941 A    
C58   N17   1.464994 S    
C5    C11   1.384827 A    
C17   C24   1.384904 A    
C34   C35   1.408183 A    
C37   H24   1.083218 S    
N7    Ni4   1.849812 S    
C2    C10   1.383097 A    
C60   C61   1.409252 A    
C46   C47   1.407643 A    
N15   Ni4   1.849808 S    
C51   C52   1.401994 A    
N10   N16   1.375455 A    
C14   H10   1.075870 S    
C7    H7    1.079604 S    
N3    N5    1.375455 A    
C66   H44   1.112208 S    
C13   N9    1.329680 A    
C54   H36   1.081267 S    
C26   H19   1.083064 S    
C16   N12   1.327029 A    
N1    Ni1   1.853781 S    
C6    H6    1.072606 S    
C65   C66   1.504380 S    
N14   Ni1   1.852570 S    
C44   C45   1.407984 A    
C37   C38   1.397745 A    
C25   C30   1.397075 A    
C21   C52   1.459275 S    
C43   C48   1.378295 A    
C37   C42   1.408254 A    
C29   H21   1.082277 S    
C66   H45   1.110343 S    
C58   H39   1.112888 S    
C4    H4    1.079738 S    
N11   Ni3   1.849811 S    
C2    H2    1.075485 S    
C49   H32   1.111814 S    
C41   H28   1.082903 S    
N17   O2    1.302531 A    
C38   H25   1.082672 S    
N4    N6    1.375455 A    
C62   H41   1.081292 S    
C8    H8    1.079526 S    
C39   C40   1.397357 A    
C1    N1    1.331110 A    
N11   N14   1.374034 A    
C14   N10   1.336791 A    
C63   C64   1.399557 A    
C57   H37   1.112231 S    
