data_mof_unit_55463.cif
_audit_creation_date              2012-12-10T17:57:51-0500
_audit_creation_method            fapswitch 2.2
_symmetry_space_group_name_H-M    P1
_symmetry_Int_Tables_number       1
_space_group_crystal_system       triclinic
_cell_length_a                    11.137521
_cell_length_b                    9.505285
_cell_length_c                    15.200926
_cell_angle_alpha                 89.999499
_cell_angle_beta                  91.071718
_cell_angle_gamma                 89.99913
_cell_volume                      1608.9692508

loop_
_atom_site_label
_atom_site_type_symbol
_atom_type_description
_atom_site_fract_x
_atom_site_fract_y
_atom_site_fract_z
_atom_type_partial_charge
C1    C     C_R   0.261913 0.500060 0.503473 0.814385
C2    C     C_R   0.738087 0.500058 0.496525 0.814441
C3    C     C_R   0.281403 0.502123 0.038624 0.221834
C4    C     C_R   0.718606 0.502096 0.961377 0.221844
C5    C     C_R   0.063060 0.372750 0.498105 0.290119
C6    C     C_R   0.937235 0.628646 0.493208 0.304798
C7    C     C_R   0.936944 0.372748 0.501892 0.290069
C8    C     C_R   0.062760 0.628649 0.506779 0.304767
C9    C     C_R   0.872132 0.500404 0.496074 -0.371849
C10   C     C_R   0.127868 0.500408 0.503923 -0.371811
C11   C     C_R   0.455408 0.074384 0.429428 -0.007659
C12   C     C_R   0.545279 0.925597 0.570376 -0.051420
C13   C     C_R   0.544585 0.074380 0.570574 -0.007721
C14   C     C_R   0.454715 0.925601 0.429626 -0.051471
C15   C     C_R   0.499618 0.499799 0.328364 0.778930
C16   C     C_R   0.500386 0.499798 0.671636 0.778826
C17   C     C_R   0.611343 0.527191 0.818101 0.357765
C18   C     C_R   0.388664 0.527191 0.181901 0.357768
C19   C     C_R   0.504227 0.498591 0.768831 -0.225118
C20   C     C_R   0.495781 0.498595 0.231171 -0.225090
C21   C     C_R   0.398996 0.464123 0.813765 0.356689
C22   C     C_R   0.601010 0.464105 0.186243 0.356663
C23   C     C_R   0.394325 0.494959 0.904107 -0.013431
C24   C     C_R   0.605687 0.494932 0.095897 -0.013417
C25   C     C_R   0.501598 0.500511 0.953598 -0.067907
C26   C     C_R   0.498413 0.500506 0.046406 -0.067888
C27   C     C_R   0.611857 0.506113 0.910259 -0.027575
C28   C     C_R   0.388152 0.506122 0.089744 -0.027613
C29   C     C_R   0.285255 0.511571 0.947087 0.149466
C30   C     C_R   0.714758 0.511537 0.052915 0.149344
Cu1   Cu    Cu3+1 0.500000 0.640660 0.500000 0.965641
Cu2   Cu    Cu3+1 0.500000 0.359340 0.500000 0.964083
H1    H     H_    0.418489 0.129996 0.373115 0.139204
H2    H     H_    0.582886 0.869962 0.626460 0.163894
H3    H     H_    0.581502 0.129990 0.626888 0.139225
H4    H     H_    0.417106 0.869967 0.373542 0.163895
N1    N     N_R   0.500000 0.852070 0.500000 -0.172633
N2    N     N_R   0.500000 0.147930 0.500000 -0.156552
O1    O     O_R   0.319640 0.618740 0.499990 -0.542423
O2    O     O_R   0.680360 0.381260 0.500010 -0.559074
O3    O     O_R   0.680360 0.618740 0.500010 -0.542424
O4    O     O_R   0.319640 0.381260 0.499990 -0.559104
O5    O     O_R   0.499970 0.618800 0.370260 -0.583835
O6    O     O_R   0.500030 0.381200 0.629740 -0.585632
O7    O     O_R   0.500030 0.618800 0.629740 -0.583838
O8    O     O_R   0.499970 0.381200 0.370260 -0.585600
O9    O     O_3   0.700449 0.612049 0.784607 -0.555027
C31   C     C_3   0.767427 0.541685 0.720810 0.095579
H5    H     H_    0.719573 0.544083 0.657593 0.153461
H6    H     H_    0.786749 0.430271 0.737900 0.129006
C32   C     C_3   0.883550 0.621730 0.709480 -0.734231
H7    H     H_    0.926816 0.642483 0.774264 0.298225
H8    H     H_    0.946084 0.560310 0.668922 0.163957
H9    H     H_    0.863349 0.723981 0.677202 0.249957
O10   O     O_3   0.299540 0.612014 0.215404 -0.555025
C33   C     C_3   0.232571 0.541602 0.279185 0.095586
H10   H     H_    0.280419 0.543988 0.342403 0.153445
H11   H     H_    0.213280 0.430191 0.262077 0.128994
C34   C     C_3   0.116426 0.621600 0.290519 -0.734365
H12   H     H_    0.073154 0.642348 0.225739 0.298229
H13   H     H_    0.053906 0.560150 0.331071 0.163954
H14   H     H_    0.136601 0.723851 0.322800 0.250006
O11   O     O_3   0.332637 0.349891 0.784067 -0.559145
C35   C     C_3   0.237221 0.390292 0.727781 0.079698
H15   H     H_    0.256224 0.352773 0.660596 0.192451
H16   H     H_    0.221860 0.505551 0.724222 0.111086
C36   C     C_3   0.124205 0.317060 0.758425 -0.698616
H17   H     H_    0.118336 0.323255 0.831076 0.301985
H18   H     H_    0.044090 0.368650 0.729021 0.186241
H19   H     H_    0.125985 0.204309 0.739303 0.232050
O12   O     O_3   0.667330 0.349845 0.215952 -0.559156
C37   C     C_3   0.762828 0.390214 0.272171 0.079663
H20   H     H_    0.743912 0.352690 0.339373 0.192436
H21   H     H_    0.778201 0.505470 0.275734 0.111100
C38   C     C_3   0.875794 0.316964 0.241438 -0.698598
H22   H     H_    0.881542 0.323127 0.168781 0.301971
H23   H     H_    0.955958 0.368559 0.270755 0.186365
H24   H     H_    0.874054 0.204223 0.260583 0.232033
I1    I     I_    0.150080 0.637683 0.886691 -0.345655
I2    I     I_    0.849917 0.637688 0.113294 -0.345706
I3    I     I_    0.124122 0.408925 0.086950 -0.318451
I4    I     I_    0.875884 0.408915 0.913032 -0.318459
O13   O     O_3   0.121801 0.244554 0.494262 -0.549088
C39   C     C_3   0.121755 0.198200 0.405821 0.105530
H25   H     H_    0.197116 0.248115 0.370605 0.134914
H26   H     H_    0.036233 0.221243 0.370219 0.147194
C40   C     C_3   0.137047 0.039788 0.402927 -0.752030
H27   H     H_    0.059243 0.988816 0.433960 0.282875
H28   H     H_    0.142529 0.003720 0.333644 0.200312
H29   H     H_    0.219591 0.008309 0.439073 0.263213
O14   O     O_3   0.878651 0.756481 0.483777 -0.552810
C41   C     C_3   0.862609 0.784421 0.392915 0.102195
H30   H     H_    0.811365 0.698824 0.359645 0.137400
H31   H     H_    0.950300 0.797636 0.360838 0.153650
C42   C     C_3   0.792563 0.920227 0.379382 -0.744122
H32   H     H_    0.845218 0.011248 0.404345 0.265796
H33   H     H_    0.773583 0.936393 0.308119 0.217445
H34   H     H_    0.706358 0.914634 0.414188 0.263706
O15   O     O_3   0.878206 0.244549 0.505708 -0.549075
C43   C     C_3   0.878257 0.198147 0.594140 0.105486
H35   H     H_    0.802944 0.248111 0.629386 0.134918
H36   H     H_    0.963810 0.221087 0.629722 0.147257
C44   C     C_3   0.862872 0.039748 0.597005 -0.752071
H37   H     H_    0.940677 0.988727 0.566002 0.282861
H38   H     H_    0.857310 0.003661 0.666281 0.200294
H39   H     H_    0.780344 0.008350 0.560815 0.263265
O16   O     O_3   0.121337 0.756492 0.516186 -0.552807
C45   C     C_3   0.137403 0.784458 0.607043 0.102167
H40   H     H_    0.188700 0.698896 0.640308 0.137441
H41   H     H_    0.049720 0.797628 0.639141 0.153617
C46   C     C_3   0.207394 0.920306 0.620547 -0.744084
H42   H     H_    0.154690 0.011289 0.595583 0.265821
H43   H     H_    0.226392 0.936501 0.691805 0.217419
H44   H     H_    0.293589 0.914755 0.585724 0.263701

loop_
_geom_bond_atom_site_label_1
_geom_bond_atom_site_label_2
_ccdc_geom_bond_type
C40   H27   S    
C42   H32   S    
C46   H42   S    
C39   C40   S    
O10   C33   S    
C6    C9    A    
C42   H34   S    
C46   H43   S    
C45   H40   S    
Cu1   O5    S    
C23   C29   A    
C3    C28   A    
C19   C21   A    
C39   H26   S    
C13   H3    S    
C14   H4    S    
C5    O13   S    
C11   C14   A    
C2    O3    A    
C6    O14   S    
C33   H10   S    
C12   N1    A    
C3    C29   A    
C43   H35   S    
C31   C32   S    
Cu1   Cu2   S    
C45   H41   S    
C3    I3    S    
O9    C31   S    
O16   C45   S    
Cu2   N2    S    
C46   H44   S    
C16   O6    A    
C30   I2    S    
C31   H6    S    
C34   H12   S    
C37   C38   S    
C43   H36   S    
C15   C20   S    
C34   H13   S    
C36   H17   S    
C17   C27   A    
C35   C36   S    
C11   H1    S    
C18   C28   A    
C39   H25   S    
C37   H21   S    
O14   C41   S    
C5    C7    A    
C6    C8    A    
C25   C26   A    
C41   C42   S    
Cu1   N1    S    
C36   H18   S    
C35   H16   S    
C11   N2    A    
C38   H22   S    
O13   C39   S    
C29   I1    S    
C41   H31   S    
Cu2   O6    S    
C4    I4    S    
C44   H38   S    
C45   C46   S    
C38   H23   S    
C13   N2    A    
C7    O15   S    
C18   O10   S    
C31   H5    S    
C20   C22   A    
Cu2   O2    S    
C40   H28   S    
C22   C24   A    
C12   H2    S    
C8    O16   S    
C22   O12   S    
C4    C27   A    
C7    C9    A    
C34   H14   S    
Cu1   O3    S    
Cu2   O8    S    
C1    C10   S    
C17   O9    S    
C24   C26   A    
C37   H20   S    
C16   O7    A    
C42   H33   S    
C25   C27   A    
C26   C28   A    
C33   C34   S    
C32   H9    S    
C35   H15   S    
C36   H19   S    
C21   C23   A    
C15   O5    A    
C32   H7    S    
O15   C43   S    
C14   N1    A    
C16   C19   S    
C41   H30   S    
C17   C19   A    
C33   H11   S    
C44   H39   S    
C18   C20   A    
C43   C44   S    
C38   H24   S    
C24   C30   A    
C21   O11   S    
C1    O1    A    
O11   C35   S    
C2    O2    A    
C1    O4    A    
C5    C10   A    
C23   C25   A    
O12   C37   S    
C12   C13   A    
C8    C10   A    
Cu1   O7    S    
C40   H29   S    
C44   H37   S    
Cu1   O1    S    
Cu2   O4    S    
C15   O8    A    
C32   H8    S    
C2    C9    S    
C4    C30   A    
