data_mof_unit_61605.cif
_audit_creation_date              2013-03-05T16:15:48-0500
_audit_creation_method            fapswitch 2.2
_symmetry_space_group_name_H-M    P1
_symmetry_Int_Tables_number       1
_space_group_crystal_system       triclinic
_cell_length_a                    44.5542
_cell_length_b                    39.011923
_cell_length_c                    21.54628
_cell_angle_alpha                 89.999869
_cell_angle_beta                  118.810339
_cell_angle_gamma                 90.000065
_cell_volume                      32814.9190687

loop_
_atom_site_label
_atom_site_type_symbol
_atom_site_description
_atom_site_fract_x
_atom_site_fract_y
_atom_site_fract_z
_atom_type_partial_charge
O1    O     O_R   0.049910 0.028900 0.549880 -0.592385
O2    O     O_R   0.950090 0.028900 0.450120 -0.592494
O3    O     O_R   0.549910 0.528900 0.549880 -0.592648
O4    O     O_R   0.450090 0.528900 0.450120 -0.592639
O5    O     O_R   0.049940 0.971130 0.549860 -0.579653
O6    O     O_R   0.950060 0.971130 0.450140 -0.579587
O7    O     O_R   0.549940 0.471130 0.549860 -0.579213
O8    O     O_R   0.450060 0.471130 0.450140 -0.579217
C1    C     C_R   0.066261 0.000042 0.566343 0.824861
C2    C     C_R   0.933738 0.000042 0.433650 0.824953
C3    C     C_R   0.566262 0.500042 0.566352 0.824568
C4    C     C_R   0.433738 0.500041 0.433648 0.824561
O9    O     O_R   0.000010 0.028900 0.408850 -0.592929
O10   O     O_R   0.999990 0.028900 0.591150 -0.592946
O11   O     O_R   0.500010 0.528900 0.408850 -0.593183
O12   O     O_R   0.499990 0.528900 0.591150 -0.593182
O13   O     O_R   0.000040 0.971130 0.408830 -0.589062
O14   O     O_R   0.999960 0.971130 0.591170 -0.589034
O15   O     O_R   0.500040 0.471130 0.408830 -0.588669
O16   O     O_R   0.499960 0.471130 0.591170 -0.588669
C5    C     C_R   0.999657 0.000056 0.379445 0.803558
C6    C     C_R   0.000352 0.000055 0.620564 0.803539
C7    C     C_R   0.499618 0.500054 0.379406 0.803446
C8    C     C_R   0.500382 0.500054 0.620593 0.803447
Cu1   Cu    Cu3+1 1.000000 0.034220 0.500000 0.957815
Cu2   Cu    Cu3+1 0.500000 0.534220 0.500000 0.957319
Cu3   Cu    Cu3+1 1.000000 0.965810 0.500000 0.981038
Cu4   Cu    Cu3+1 0.500000 0.465810 0.500000 0.982354
C9    C     C_3   0.033905 0.985417 0.320827 -0.479233
C10   C     C_3   0.966062 0.985514 0.679135 -0.479365
C11   C     C_3   0.534030 0.485806 0.320977 -0.479734
C12   C     C_3   0.465972 0.485799 0.679026 -0.479724
H1    H     H_    0.055531 0.001256 0.360070 0.173630
H2    H     H_    0.944481 0.001409 0.639921 0.173659
H3    H     H_    0.555476 0.501867 0.360104 0.173909
H4    H     H_    0.444522 0.501856 0.639897 0.173907
H5    H     H_    0.037917 0.958860 0.342279 0.177656
H6    H     H_    0.961982 0.958966 0.657624 0.177556
H7    H     H_    0.538317 0.459284 0.342662 0.177771
H8    H     H_    0.461690 0.459276 0.657345 0.177783
C13   C     C_3   0.034374 0.985236 0.249709 -0.363470
C14   C     C_3   0.965585 0.985346 0.750244 -0.363339
C15   C     C_3   0.534532 0.485678 0.249896 -0.362036
C16   C     C_3   0.465471 0.485670 0.750108 -0.362042
H9    H     H_    0.039098 0.958707 0.237438 0.164279
H10   H     H_    0.960775 0.958835 0.762438 0.164355
H11   H     H_    0.539607 0.459223 0.237934 0.165881
H12   H     H_    0.460403 0.459213 0.762074 0.165880
H13   H     H_    0.055971 0.001536 0.254906 0.190795
H14   H     H_    0.944039 0.001718 0.745083 0.190738
H15   H     H_    0.555921 0.502269 0.254944 0.190725
H16   H     H_    0.444078 0.502255 0.745056 0.190730
H17   H     H_    0.017732 0.052774 0.316196 0.164479
H18   H     H_    0.982420 0.052824 0.683961 0.164576
H19   H     H_    0.517114 0.552968 0.315555 0.164869
H20   H     H_    0.482875 0.552965 0.684434 0.164861
H21   H     H_    0.014145 0.053192 0.207346 0.153199
H22   H     H_    0.986028 0.053242 0.792828 0.153098
H23   H     H_    0.513440 0.553387 0.206631 0.152724
H24   H     H_    0.486547 0.553384 0.793356 0.152731
C17   C     C_3   0.995495 0.036819 0.279447 -0.321630
C18   C     C_3   0.004616 0.036809 0.720659 -0.321608
C19   C     C_3   0.495043 0.536773 0.279011 -0.321810
C20   C     C_3   0.504949 0.536773 0.720981 -0.321807
C21   C     C_3   0.970199 0.976090 0.256282 0.209746
C22   C     C_3   0.029742 0.976009 0.743669 0.209890
C23   C     C_3   0.470431 0.475763 0.256476 0.210938
C24   C     C_3   0.529573 0.475769 0.743528 0.210927
C25   C     C_3   0.999355 0.999896 0.310181 0.041287
C26   C     C_3   0.000654 0.999896 0.689827 0.041300
C27   C     C_3   0.499315 0.499894 0.310142 0.041194
C28   C     C_3   0.500684 0.499894 0.689857 0.041190
H25   H     H_    0.975946 0.949414 0.277442 0.110936
H26   H     H_    0.023927 0.949349 0.722432 0.110932
H27   H     H_    0.476450 0.449155 0.277950 0.110759
H28   H     H_    0.523559 0.449160 0.722059 0.110760
C29   C     C_3   0.999806 0.998856 0.188884 0.094987
C30   C     C_3   0.000194 0.998860 0.811116 0.094985
C31   C     C_3   0.499803 0.498868 0.188881 0.095784
C32   C     C_3   0.500197 0.498868 0.811119 0.095782
C33   C     C_3   0.994133 0.035870 0.206694 -0.386348
C34   C     C_3   0.005982 0.035856 0.793417 -0.386298
C35   C     C_3   0.493662 0.535807 0.206239 -0.385859
C36   C     C_3   0.506329 0.535808 0.793752 -0.385864
C37   C     C_3   0.970332 0.975902 0.184518 -0.411559
C38   C     C_3   0.029598 0.975815 0.815423 -0.411710
C39   C     C_3   0.470613 0.475544 0.184757 -0.413670
C40   C     C_3   0.529392 0.475550 0.815248 -0.413661
H29   H     H_    0.973800 0.949182 0.170938 0.129378
H30   H     H_    0.026041 0.949104 0.828905 0.129320
H31   H     H_    0.474442 0.448864 0.171577 0.126538
H32   H     H_    0.525569 0.448870 0.828435 0.126544
H33   H     H_    0.945258 0.984930 0.141239 0.222702
H34   H     H_    0.054698 0.984761 0.858743 0.222664
H35   H     H_    0.445436 0.484233 0.141303 0.222216
H36   H     H_    0.554567 0.484246 0.858699 0.222218
H37   H     H_    0.972294 0.049725 0.274812 0.215648
H38   H     H_    0.027849 0.049651 0.725316 0.215597
H39   H     H_    0.471713 0.549423 0.274290 0.215383
H40   H     H_    0.528277 0.549428 0.725700 0.215387
H41   H     H_    0.968848 0.045605 0.165374 0.194442
H42   H     H_    0.031299 0.045512 0.834759 0.194580
H43   H     H_    0.468247 0.545216 0.164830 0.195087
H44   H     H_    0.531742 0.545223 0.835160 0.195078
C41   C     C_R   0.377771 0.999268 0.934175 -0.176244
C42   C     C_R   0.622225 0.998963 0.065836 -0.176224
C43   C     C_R   0.877773 0.498996 0.934160 -0.174168
C44   C     C_R   0.122228 0.499019 0.065839 -0.174166
H45   H     H_    0.391040 0.997783 0.991446 0.157155
H46   H     H_    0.608954 0.997227 0.008594 0.157173
H47   H     H_    0.891043 0.497303 0.991407 0.157424
H48   H     H_    0.108958 0.497346 0.008589 0.157426
C45   C     C_R   0.342040 0.000115 0.898511 -0.084133
C46   C     C_R   0.657956 0.999804 0.101480 -0.083977
C47   C     C_R   0.842042 0.499834 0.898511 -0.083979
C48   C     C_R   0.157958 0.499858 0.101489 -0.083991
H49   H     H_    0.328408 0.999108 0.928678 0.142661
H50   H     H_    0.671584 0.998544 0.071327 0.142844
H51   H     H_    0.828412 0.498616 0.928665 0.142844
H52   H     H_    0.171588 0.498659 0.071333 0.142834
C49   C     C_R   0.324013 0.002350 0.824394 0.149815
C50   C     C_R   0.675987 0.002357 0.175554 0.149635
C51   C     C_R   0.824012 0.502333 0.824430 0.149449
C52   C     C_R   0.175988 0.502332 0.175574 0.149461
C53   C     C_R   0.342122 0.002943 0.786267 -0.148143
C54   C     C_R   0.657879 0.003265 0.213671 -0.148336
C55   C     C_R   0.842121 0.503190 0.786312 -0.148146
C56   C     C_R   0.157879 0.503165 0.213693 -0.148130
H53   H     H_    0.328574 0.004523 0.728982 0.135370
H54   H     H_    0.671426 0.005097 0.270923 0.135371
H55   H     H_    0.828574 0.504978 0.729054 0.135191
H56   H     H_    0.171426 0.504934 0.270954 0.135193
C57   C     C_R   0.377847 0.002025 0.821842 -0.181411
C58   C     C_R   0.622153 0.002339 0.178117 -0.181453
C59   C     C_R   0.877847 0.502271 0.821872 -0.182417
C60   C     C_R   0.122153 0.502247 0.178132 -0.182413
H57   H     H_    0.391175 0.002833 0.791076 0.156307
H58   H     H_    0.608825 0.003396 0.208865 0.156318
H59   H     H_    0.891176 0.503290 0.791121 0.155662
H60   H     H_    0.108824 0.503247 0.208884 0.155663
C61   C     C_R   0.396045 0.000364 0.896198 -0.039866
C62   C     C_R   0.603953 0.000368 0.103794 -0.039899
C63   C     C_R   0.896046 0.500355 0.896201 -0.039746
C64   C     C_R   0.103954 0.500354 0.103799 -0.039747
C65   C     C_R   0.267748 0.028342 0.802582 0.344748
C66   C     C_R   0.732254 0.028083 0.196723 0.344740
C67   C     C_R   0.767748 0.528115 0.803143 0.344277
C68   C     C_R   0.232251 0.528134 0.196908 0.344281
C69   C     C_R   0.231840 0.026721 0.767781 -0.222085
C70   C     C_R   0.768162 0.026459 0.231555 -0.221939
C71   C     C_R   0.731841 0.526497 0.768316 -0.221979
C72   C     C_R   0.268159 0.526515 0.231733 -0.221989
H61   H     H_    0.217635 0.045451 0.780347 0.178094
H62   H     H_    0.782365 0.044991 0.218535 0.178138
H63   H     H_    0.717640 0.545070 0.781249 0.178097
H64   H     H_    0.282360 0.545103 0.218833 0.178091
C73   C     C_R   0.214119 0.001590 0.716263 0.036614
C74   C     C_R   0.785883 0.001581 0.283677 0.036512
C75   C     C_R   0.714117 0.501571 0.716309 0.036504
C76   C     C_R   0.285883 0.501570 0.283694 0.036510
C77   C     C_R   0.232725 0.977508 0.700249 -0.168006
C78   C     C_R   0.767282 0.977757 0.300284 -0.168100
C79   C     C_R   0.732716 0.477694 0.699814 -0.167955
C80   C     C_R   0.267284 0.477674 0.300144 -0.167943
H65   H     H_    0.219677 0.958133 0.660107 0.137601
H66   H     H_    0.780334 0.958584 0.340887 0.137626
H67   H     H_    0.719662 0.458482 0.659300 0.137827
H68   H     H_    0.280338 0.458446 0.340624 0.137831
C81   C     C_R   0.268381 0.978452 0.735140 -0.226714
C82   C     C_R   0.731625 0.978709 0.265387 -0.226666
C83   C     C_R   0.768373 0.478641 0.734708 -0.226661
C84   C     C_R   0.231627 0.478620 0.265252 -0.226660
H69   H     H_    0.282170 0.959273 0.722442 0.151150
H70   H     H_    0.717840 0.959728 0.278557 0.151121
H71   H     H_    0.782156 0.459620 0.721626 0.151162
H72   H     H_    0.217843 0.459584 0.278298 0.151170
C85   C     C_R   0.286235 0.003527 0.786602 -0.031774
C86   C     C_R   0.713767 0.003532 0.213318 -0.031673
C87   C     C_R   0.786232 0.503511 0.786662 -0.031757
C88   C     C_R   0.213767 0.503510 0.213344 -0.031766
C89   C     C_R   0.158313 0.969875 0.664009 -0.154419
C90   C     C_R   0.841684 0.969845 0.336569 -0.154391
C91   C     C_R   0.658313 0.469844 0.663565 -0.154393
C92   C     C_R   0.341688 0.469846 0.336391 -0.154390
H73   H     H_    0.171969 0.945830 0.681898 0.132876
H74   H     H_    0.828024 0.945776 0.319179 0.132830
H75   H     H_    0.671970 0.445780 0.681064 0.132906
H76   H     H_    0.328030 0.445783 0.318854 0.132913
C93   C     C_R   0.122552 0.969477 0.627564 -0.131378
C94   C     C_R   0.877445 0.969450 0.373012 -0.132266
C95   C     C_R   0.622552 0.469453 0.627126 -0.131798
C96   C     C_R   0.377449 0.469454 0.372830 -0.131726
H77   H     H_    0.109431 0.945087 0.617720 0.160644
H78   H     H_    0.890564 0.945040 0.383361 0.160170
H79   H     H_    0.609430 0.445047 0.616890 0.160612
H80   H     H_    0.390570 0.445050 0.383028 0.160651
C97   C     C_R   0.104044 0.000256 0.604618 -0.020256
C98   C     C_R   0.895955 0.000255 0.395350 -0.019870
C99   C     C_R   0.604045 0.500253 0.604650 -0.020384
C100  C     C_R   0.395955 0.500252 0.395352 -0.020414
C101  C     C_R   0.121974 0.031403 0.618775 -0.171290
C102  C     C_R   0.878024 0.031424 0.380560 -0.170462
C103  C     C_R   0.621978 0.531416 0.619298 -0.171022
C104  C     C_R   0.378022 0.531414 0.380752 -0.171086
H81   H     H_    0.108447 0.055547 0.601520 0.155290
H82   H     H_    0.891551 0.055590 0.397315 0.155367
H83   H     H_    0.608453 0.555578 0.602431 0.155376
H84   H     H_    0.391547 0.555575 0.397657 0.155369
C105  C     C_R   0.157678 0.031785 0.655025 -0.155336
C106  C     C_R   0.842321 0.031803 0.344285 -0.155290
C107  C     C_R   0.657681 0.531793 0.655567 -0.155251
C108  C     C_R   0.342318 0.531791 0.344484 -0.155253
H85   H     H_    0.170799 0.056143 0.664125 0.136856
H86   H     H_    0.829197 0.056183 0.334668 0.136871
H87   H     H_    0.670808 0.556167 0.665070 0.136929
H88   H     H_    0.329192 0.556163 0.335020 0.136926
C109  C     C_R   0.176216 0.001046 0.678104 0.124437
C110  C     C_R   0.823784 0.001038 0.321837 0.124478
C111  C     C_R   0.676216 0.501031 0.678153 0.124410
C112  C     C_R   0.323784 0.501031 0.321850 0.124406
O17   O     O_R   0.028910 0.049900 0.028910 -0.581797
O18   O     O_R   0.971090 0.049900 0.971090 -0.581780
O19   O     O_R   0.528910 0.549900 0.028910 -0.581851
O20   O     O_R   0.471090 0.549900 0.971090 -0.581852
C113  C     C_R   0.000000 0.066164 0.000000 0.783898
C114  C     C_R   0.500000 0.566164 0.000000 0.783597
O21   O     O_R   0.028900 0.000000 0.120010 -0.594571
O22   O     O_R   0.971100 0.000000 0.879990 -0.594581
O23   O     O_R   0.528900 0.500000 0.120010 -0.593485
O24   O     O_R   0.471100 0.500000 0.879990 -0.593483
O25   O     O_R   0.971130 0.000040 0.062270 -0.583630
O26   O     O_R   0.028870 0.000040 0.937730 -0.583629
O27   O     O_R   0.471130 0.500040 0.062270 -0.585101
O28   O     O_R   0.528870 0.500040 0.937730 -0.585102
C115  C     C_R   0.999994 0.998921 0.120123 0.777682
C116  C     C_R   0.000005 0.998927 0.879876 0.777681
C117  C     C_R   0.499995 0.498941 0.120125 0.776138
C118  C     C_R   0.500005 0.498941 0.879875 0.776139
Cu5   Cu    Cu3+1 0.034220 0.999990 0.034180 0.947370
Cu6   Cu    Cu3+1 0.965780 0.999990 0.965820 0.947393
Cu7   Cu    Cu3+1 0.534220 0.499990 0.034180 0.948936
Cu8   Cu    Cu3+1 0.465780 0.499990 0.965820 0.948942
O29   O     O_R   0.028890 0.950090 0.028810 -0.588980
O30   O     O_R   0.971110 0.950090 0.971190 -0.588979
O31   O     O_R   0.528890 0.450090 0.028810 -0.585457
O32   O     O_R   0.471110 0.450090 0.971190 -0.585453
C119  C     C_R   0.000000 0.933768 1.000000 0.778863
C120  C     C_R   0.500000 0.433814 1.000000 0.774889
O33   O     O_R   0.500050 0.950050 0.947320 -0.585360
O34   O     O_R   0.499950 0.950050 0.052680 -0.585307
O35   O     O_R   0.000050 0.450050 0.947320 -0.585417
O36   O     O_R   0.999950 0.450050 0.052680 -0.585422
C121  C     C_R   0.500000 0.933842 1.000000 0.780995
C122  C     C_R   1.000000 0.433842 0.000000 0.780946
O37   O     O_R   0.450110 0.999950 0.897350 -0.588233
O38   O     O_R   0.549890 0.999950 0.102650 -0.588288
O39   O     O_R   0.950110 0.499950 0.897350 -0.589679
O40   O     O_R   0.049890 0.499950 0.102650 -0.589673
O41   O     O_R   0.450110 0.000020 0.002860 -0.585661
O42   O     O_R   0.549890 0.000020 0.997140 -0.585562
O43   O     O_R   0.950110 0.500020 0.002860 -0.583772
O44   O     O_R   0.049890 0.500020 0.997140 -0.583779
C123  C     C_R   0.433849 0.000015 0.933896 0.791638
C124  C     C_R   0.566150 0.000016 0.066103 0.791609
C125  C     C_R   0.933849 0.500012 0.933896 0.793295
C126  C     C_R   0.066151 0.500012 0.066104 0.793300
Cu9   Cu    Cu3+1 0.500020 0.999940 0.937520 0.954849
Cu10  Cu    Cu3+1 0.499980 0.999940 0.062480 0.954684
Cu11  Cu    Cu3+1 0.000020 0.499940 0.937520 0.953479
Cu12  Cu    Cu3+1 0.999980 0.499940 0.062480 0.953491
O45   O     O_R   0.500000 0.049850 0.947140 -0.581880
O46   O     O_R   0.500000 0.049850 0.052860 -0.582003
O47   O     O_R   0.000000 0.549850 0.947140 -0.585287
O48   O     O_R   0.000000 0.549850 0.052860 -0.585280
C127  C     C_R   0.500000 0.066040 1.000000 0.791843
C128  C     C_R   1.000000 0.566084 1.000000 0.796306
C129  C     C_R   0.485132 0.877996 0.935901 -0.179870
C130  C     C_R   0.514868 0.877996 0.064099 -0.179848
C131  C     C_R   0.985133 0.377996 0.935901 -0.179936
C132  C     C_R   0.014868 0.377996 0.064100 -0.179936
H89   H     H_    0.473190 0.891495 0.885764 0.146537
H90   H     H_    0.526810 0.891495 0.114236 0.146560
H91   H     H_    0.973191 0.391495 0.885764 0.146498
H92   H     H_    0.026809 0.391495 0.114236 0.146499
C133  C     C_R   0.484755 0.842220 0.935857 -0.162789
C134  C     C_R   0.515245 0.842220 0.064143 -0.162787
C135  C     C_R   0.984756 0.342220 0.935858 -0.162825
C136  C     C_R   0.015245 0.342220 0.064143 -0.162823
H93   H     H_    0.472074 0.829070 0.885440 0.126014
H94   H     H_    0.527926 0.829069 0.114560 0.126021
H95   H     H_    0.972075 0.329070 0.885441 0.126004
H96   H     H_    0.027925 0.329070 0.114561 0.126007
C137  C     C_R   0.500000 0.823816 1.000000 0.105535
C138  C     C_R   0.000000 0.323816 0.000001 0.105548
C139  C     C_R   0.500000 0.896139 1.000000 -0.026721
C140  C     C_R   0.000000 0.396139 0.000000 -0.026666
C141  C     C_R   0.498031 0.767267 0.054168 -0.171767
C142  C     C_R   0.501969 0.767267 0.945832 -0.171764
C143  C     C_R   0.998031 0.267267 0.054168 -0.171788
C144  C     C_R   0.001970 0.267267 0.945834 -0.171786
H97   H     H_    0.495708 0.780412 0.095874 0.128512
H98   H     H_    0.504292 0.780412 0.904126 0.128513
H99   H     H_    0.995707 0.280412 0.095873 0.128487
H100  H     H_    0.004294 0.280412 0.904128 0.128486
C145  C     C_R   0.998441 0.231491 0.054554 -0.170231
C146  C     C_R   0.001560 0.231491 0.945448 -0.170238
C147  C     C_R   0.498441 0.731491 0.054554 -0.170230
C148  C     C_R   0.501559 0.731491 0.945446 -0.170230
H101  H     H_    0.996956 0.217826 0.096765 0.135452
H102  H     H_    0.003045 0.217827 0.903237 0.135447
H103  H     H_    0.496957 0.717826 0.096765 0.135450
H104  H     H_    0.503043 0.717827 0.903235 0.135452
C149  C     C_R   0.000000 0.213463 0.000001 0.089180
C150  C     C_R   0.500000 0.713463 1.000000 0.089174
C151  C     C_R   0.500000 0.785674 1.000000 0.098056
C152  C     C_R   0.000000 0.285674 0.000001 0.098065
C153  C     C_R   0.973281 0.157766 0.944713 -0.161629
C154  C     C_R   0.026720 0.157765 0.055289 -0.161630
C155  C     C_R   0.473278 0.657766 0.944717 -0.161651
C156  C     C_R   0.526722 0.657766 0.055282 -0.161647
H105  H     H_    0.952457 0.171419 0.901755 0.134575
H106  H     H_    0.047543 0.171419 0.098247 0.134577
H107  H     H_    0.452452 0.671420 0.901764 0.134579
H108  H     H_    0.547548 0.671419 0.098236 0.134583
C157  C     C_R   0.973050 0.121982 0.945158 -0.183921
C158  C     C_R   0.026950 0.121981 0.054843 -0.183923
C159  C     C_R   0.473047 0.621982 0.945163 -0.183949
C160  C     C_R   0.526953 0.621982 0.054836 -0.183948
H109  H     H_    0.952102 0.108482 0.902164 0.145530
H110  H     H_    0.047898 0.108481 0.097837 0.145529
H111  H     H_    0.452097 0.608482 0.902174 0.145568
H112  H     H_    0.547903 0.608482 0.097826 0.145569
C161  C     C_R   1.000000 0.103842 0.000000 -0.028831
C162  C     C_R   0.500000 0.603842 0.000000 -0.028819
C163  C     C_R   0.000000 0.175803 0.000001 0.097070
C164  C     C_R   0.500000 0.675803 1.000000 0.097072
C165  C     C_R   0.484925 0.121906 0.034181 -0.170152
C166  C     C_R   0.515075 0.121906 0.965818 -0.170143
C167  C     C_R   0.001077 0.622105 0.057274 -0.168606
C168  C     C_R   0.998923 0.622105 0.942725 -0.168619
H113  H     H_    0.473005 0.108421 0.060573 0.153413
H114  H     H_    0.526994 0.108421 0.939427 0.153476
H115  H     H_    0.001855 0.608791 0.102125 0.156565
H116  H     H_    0.998145 0.608792 0.897874 0.156561
C169  C     C_R   0.484550 0.157694 0.033398 -0.155359
C170  C     C_R   0.515449 0.157695 0.966601 -0.155365
C171  C     C_R   0.001116 0.657849 0.057292 -0.158915
C172  C     C_R   0.998884 0.657849 0.942707 -0.158916
C173  C     C_R   0.500000 0.175741 0.999999 0.091482
C174  C     C_R   1.000000 0.676034 1.000000 0.103680
C175  C     C_R   0.500000 0.103748 1.000000 -0.031181
C176  C     C_R   1.000000 0.603878 1.000000 -0.034143
C177  C     C_R   0.530990 0.231452 0.032542 -0.165950
C178  C     C_R   0.469009 0.231452 0.967458 -0.165892
C179  C     C_R   0.978046 0.732071 0.938369 -0.166570
C180  C     C_R   0.021954 0.732071 0.061629 -0.166568
H117  H     H_    0.555130 0.217791 0.058384 0.141654
H118  H     H_    0.444869 0.217791 0.941615 0.141724
H119  H     H_    0.960647 0.718637 0.890358 0.133596
H120  H     H_    0.039353 0.718636 0.109641 0.133599
C181  C     C_R   0.978010 0.767813 0.938399 -0.169809
C182  C     C_R   0.021990 0.767813 0.061600 -0.169811
C183  C     C_R   0.531011 0.267232 0.033307 -0.170315
C184  C     C_R   0.468989 0.267233 0.966692 -0.170312
H121  H     H_    0.961041 0.781248 0.890035 0.131080
H122  H     H_    0.038959 0.781248 0.109963 0.131082
H123  H     H_    0.555350 0.280374 0.060864 0.130579
H124  H     H_    0.444649 0.280374 0.939135 0.130608
C185  C     C_R   1.000000 0.785998 0.999999 0.095389
C186  C     C_R   0.500000 0.285646 1.000000 0.095880
C187  C     C_R   0.500000 0.213415 1.000000 0.086005
C188  C     C_R   1.000000 0.713886 0.999999 0.095897
C189  C     C_R   0.031011 0.842034 0.032790 -0.165745
C190  C     C_R   0.968988 0.842034 0.967209 -0.165746
C191  C     C_R   0.473272 0.342210 0.001898 -0.161240
C192  C     C_R   0.526727 0.342210 0.998101 -0.161244
H125  H     H_    0.055281 0.828594 0.057713 0.132478
H126  H     H_    0.944718 0.828594 0.942286 0.132480
H127  H     H_    0.452662 0.329065 0.005048 0.129109
H128  H     H_    0.547337 0.329065 0.994952 0.129103
C193  C     C_R   0.031021 0.877777 0.032730 -0.183173
C194  C     C_R   0.968978 0.877777 0.967269 -0.183176
C195  C     C_R   0.473080 0.377990 0.001022 -0.182952
C196  C     C_R   0.526919 0.377990 0.998978 -0.182961
H129  H     H_    0.055342 0.891106 0.058264 0.155665
H130  H     H_    0.944658 0.891106 0.941735 0.155667
H131  H     H_    0.452213 0.391505 0.002574 0.148306
H132  H     H_    0.547787 0.391505 0.997426 0.148301
C197  C     C_R   1.000000 0.895993 1.000000 -0.037748
C198  C     C_R   0.500000 0.396124 1.000000 -0.030660
C199  C     C_R   1.000000 0.823849 0.999999 0.104174
C200  C     C_R   0.500000 0.323799 1.000000 0.103738
N1    N     N_R   0.284750 0.055812 0.851789 0.110239
O49   O     O_R   0.311565 0.070535 0.854491 -0.346427
O50   O     O_R   0.270969 0.069144 0.887476 -0.351298
N2    N     N_R   0.715250 0.055303 0.146836 0.110109
O51   O     O_R   0.688502 0.070277 0.143935 -0.346423
O52   O     O_R   0.728966 0.068175 0.110629 -0.351218
N3    N     N_R   0.784756 0.555380 0.852906 0.110430
O53   O     O_R   0.811513 0.570309 0.855758 -0.344463
O54   O     O_R   0.771035 0.568332 0.889036 -0.350363
N4    N     N_R   0.215244 0.555417 0.147197 0.110439
O55   O     O_R   0.188484 0.570329 0.144366 -0.344468
O56   O     O_R   0.228968 0.568403 0.111101 -0.350371
H133  H     H_    0.472582 0.171345 0.059509 0.139158
H134  H     H_    0.527417 0.171346 0.940490 0.139178
H135  H     H_    0.001581 0.671290 0.101728 0.131893
H136  H     H_    0.998418 0.671290 0.898271 0.131890
N5    N     N_R   0.936394 0.985476 0.247337 0.115365
O57   O     O_R   0.921032 0.013474 0.214611 -0.372220
O58   O     O_R   0.920593 0.964633 0.269040 -0.366149
N6    N     N_R   0.063576 0.985306 0.752662 0.115386
O59   O     O_R   0.079011 0.013261 0.785482 -0.372198
O60   O     O_R   0.079326 0.964424 0.730912 -0.366494
N7    N     N_R   0.436513 0.484799 0.247333 0.115041
O61   O     O_R   0.420853 0.512610 0.214195 -0.372413
O62   O     O_R   0.420925 0.463821 0.269295 -0.366657
N8    N     N_R   0.563489 0.484812 0.752667 0.115037
O63   O     O_R   0.579144 0.512626 0.785798 -0.372415
O64   O     O_R   0.579081 0.463837 0.730708 -0.366633

loop_
_geom_bond_atom_site_label_1
_geom_bond_atom_site_label_2
_geom_bond_distance
_ccdc_geom_bond_type
O1    Cu1   1.959475 S    
C57   H57   1.082813 S    
C39   H31   1.113453 S    
Cu12  O48   1.958132 S    
C180  C188  1.404104 A    
C60   H60   1.082813 S    
C20   C28   1.559809 S    
C83   C87   1.403259 A    
O35   Cu11  1.957655 S    
C31   C39   1.554285 S    
O19   C114  1.294739 A    
C17   C25   1.559870 S    
C59   H59   1.082815 S    
C146  H102  1.083365 S    
C82   C86   1.403265 A    
Cu7   O31   1.957781 S    
N2    O52   1.301431 A    
O41   C123  1.302021 A    
H22   C34   1.113443 S    
C182  H122  1.082976 S    
C194  H130  1.082885 S    
O17   C113  1.294737 A    
C29   C115  1.485592 S    
O47   C128  1.303189 A    
C10   H6    1.113240 S    
C142  H98   1.082044 S    
C81   C85   1.403229 A    
C69   H61   1.082997 S    
C20   C36   1.539708 S    
C129  H89   1.083238 S    
C66   C70   1.403372 A    
C81   H69   1.083545 S    
C72   H64   1.083018 S    
C65   N1    1.439550 S    
C157  H109  1.083173 S    
C71   H63   1.083018 S    
O4    C4    1.294223 A    
C70   C74   1.404265 A    
C131  H91   1.083237 S    
O42   C124  1.302006 A    
O11   C7    1.287801 A    
C171  H135  1.083003 S    
O34   C121  1.300230 A    
O38   Cu10  1.959317 S    
C22   N6    1.469652 S    
C13   H13   1.113077 S    
C42   C62   1.405818 A    
C9    C25   1.549548 S    
C179  C181  1.394350 A    
C155  H107  1.083300 S    
C47   C51   1.402405 A    
C154  C163  1.401643 A    
C80   H68   1.082926 S    
O39   C125  1.301823 A    
C141  C151  1.408611 A    
C38   H30   1.113424 S    
C174  C188  1.476683 S    
C114  C162  1.469895 S    
O16   Cu4   1.976160 S    
C105  H85   1.082904 S    
O7    Cu4   1.960637 S    
C192  C200  1.408045 A    
O15   C7    1.289983 A    
C30   C34   1.545909 S    
C129  C139  1.401946 A    
C74   C110  1.479795 S    
C104  C108  1.393995 A    
O9    C5    1.287751 A    
C147  C150  1.399941 A    
C19   C27   1.559808 S    
O38   C124  1.301831 A    
O8    Cu4   1.960641 S    
O23   C117  1.289691 A    
C136  H96   1.082086 S    
C44   C64   1.405825 A    
C82   H70   1.083518 S    
C93   C97   1.404729 A    
N3    O54   1.301438 A    
C153  H105  1.083300 S    
C91   C111  1.404870 A    
C57   C61   1.405827 A    
O3    Cu2   1.959475 S    
C55   C59   1.395158 A    
C67   N3    1.439477 S    
C192  C196  1.395953 A    
N1    O49   1.301372 A    
O30   C119  1.295182 A    
C105  C109  1.404144 A    
C32   C40   1.554290 S    
C106  H86   1.082915 S    
O44   Cu11  1.958601 S    
C159  H111  1.083173 S    
C119  C197  1.473683 S    
C103  H83   1.082892 S    
O19   Cu7   1.958093 S    
O46   C127  1.302335 A    
C156  C160  1.396108 A    
C55   H55   1.083285 S    
O3    C3    1.294220 A    
C67   C87   1.416852 A    
C92   C112  1.404872 A    
C54   C58   1.395157 A    
C30   C116  1.485592 S    
O31   C120  1.294301 A    
C13   H9    1.113059 S    
Cu5   O29   1.957781 S    
C90   C94   1.396284 A    
N5    O57   1.301374 A    
C15   H11   1.113060 S    
O16   C8    1.289986 A    
C159  C162  1.404050 A    
C77   H65   1.082933 S    
C190  C199  1.403785 A    
C16   H12   1.113061 S    
C71   C75   1.404260 A    
C74   C78   1.401606 A    
C179  H119  1.082972 S    
C9    H1    1.113527 S    
N7    O61   1.301381 A    
Cu6   O30   1.957781 S    
O20   Cu8   1.958093 S    
C90   H74   1.082897 S    
C22   C26   1.563570 S    
C49   C53   1.401847 A    
C18   C26   1.559858 S    
C35   H43   1.113215 S    
O17   Cu5   1.958093 S    
C12   H4    1.113533 S    
C41   C45   1.395320 A    
N6    O59   1.301377 A    
C144  C152  1.408611 A    
O22   Cu6   1.974495 S    
C14   H10   1.113063 S    
C165  C175  1.404315 A    
C130  C139  1.401944 A    
N3    O53   1.301370 A    
C22   H26   1.115314 S    
C133  H93   1.082081 S    
O26   C116  1.290171 A    
C178  C184  1.395955 A    
C154  C158  1.396108 A    
C65   C85   1.416863 A    
Cu7   Cu8   2.671846 S    
C173  C187  1.469743 S    
O20   C114  1.294746 A    
C189  H125  1.083003 S    
O27   C117  1.290182 A    
O41   Cu10  1.958597 S    
O5    Cu3   1.960637 S    
H17   C17   1.113495 S    
Cu10  O46   1.958132 S    
C194  C197  1.404690 A    
H19   C19   1.113494 S    
C172  H136  1.083008 S    
H20   C20   1.113498 S    
C24   N8    1.469655 S    
C177  C187  1.400045 A    
C147  H103  1.083365 S    
C100  C104  1.404623 A    
C77   C81   1.392567 A    
C16   H16   1.113092 S    
C96   C100  1.404752 A    
C29   C37   1.554406 S    
C61   C123  1.475900 S    
C103  C107  1.393999 A    
Cu9   O45   1.958132 S    
C196  H132  1.083284 S    
C101  C105  1.393993 A    
Cu2   Cu4   2.668806 S    
C1    C97   1.475078 S    
N8    O64   1.301062 A    
C34   H42   1.113223 S    
C68   N4    1.439482 S    
C10   H2    1.113528 S    
O13   Cu3   1.976162 S    
C104  H84   1.082893 S    
C51   C87   1.475618 S    
C179  C188  1.404103 A    
C143  C145  1.395786 A    
O35   C122  1.300231 A    
C49   C85   1.475536 S    
O18   C113  1.294744 A    
C178  H118  1.083358 S    
C129  C133  1.395814 A    
C48   H52   1.083251 S    
C5    C25   1.485946 S    
O25   Cu6   1.974349 S    
C131  C135  1.395814 A    
C67   C71   1.403375 A    
O5    C1    1.295451 A    
O24   Cu8   1.974495 S    
C53   H53   1.083280 S    
C51   C55   1.401882 A    
O8    C4    1.295446 A    
C4    C100  1.475098 S    
O15   Cu4   1.976162 S    
C143  C152  1.408610 A    
C14   H14   1.113084 S    
C45   H49   1.083252 S    
C195  H131  1.083285 S    
C155  C159  1.396108 A    
C136  C138  1.407869 A    
C89   C109  1.404904 A    
C36   H44   1.113214 S    
C80   C84   1.392581 A    
C23   H27   1.115303 S    
C32   C118  1.485582 S    
O40   C126  1.301825 A    
C8    C28   1.485960 S    
C170  C173  1.401683 A    
N4    O55   1.301368 A    
C193  C197  1.404688 A    
C41   H45   1.082799 S    
C9    C13   1.542506 S    
O14   C6    1.290011 A    
C43   H47   1.082797 S    
C64   C126  1.475889 S    
C68   C72   1.403375 A    
C22   C38   1.549139 S    
Cu9   Cu10  2.693280 S    
C90   C110  1.404874 A    
C150  C164  1.469181 S    
C24   H28   1.115302 S    
C167  C171  1.394451 A    
C47   H51   1.083250 S    
O10   C6    1.287758 A    
O34   Cu10  1.957657 S    
C17   C33   1.539700 S    
C171  C174  1.403721 A    
C76   C112  1.479808 S    
O37   Cu9   1.959317 S    
C145  H101  1.083364 S    
C132  C140  1.401946 A    
C135  H95   1.082082 S    
C128  C176  1.474397 S    
C95   H79   1.082870 S    
C177  C183  1.395951 A    
C93   H77   1.082869 S    
O27   Cu8   1.974349 S    
O39   Cu11  1.959317 S    
C185  C199  1.476668 S    
C141  H97   1.082041 S    
O25   C115  1.290159 A    
C190  C194  1.394427 A    
C6    C26   1.485948 S    
C192  H128  1.082059 S    
C40   H36   1.112453 S    
C107  H87   1.082911 S    
Cu5   Cu6   2.671846 S    
C32   C36   1.545969 S    
C12   C28   1.549436 S    
Cu8   O32   1.957781 S    
C156  H108  1.083297 S    
C181  C185  1.404097 A    
H23   C35   1.113444 S    
C56   C60   1.395161 A    
C13   C29   1.557723 S    
C54   H54   1.083286 S    
C153  C157  1.396108 A    
C180  H120  1.082973 S    
C145  C149  1.399943 A    
O28   C118  1.290183 A    
C160  C162  1.404051 A    
C78   H66   1.082909 S    
C89   C93   1.396290 A    
C158  H110  1.083174 S    
O26   Cu5   1.974347 S    
C21   N5    1.469661 S    
C92   C96   1.396282 A    
C75   C79   1.401613 A    
C79   C83   1.392577 A    
C52   C56   1.401875 A    
C84   C88   1.403259 A    
C18   C34   1.539703 S    
C70   H62   1.083023 S    
C68   C88   1.416849 A    
Cu11  Cu12  2.693280 S    
C99   C103  1.404623 A    
C62   C124  1.475869 S    
C10   C26   1.549519 S    
C155  C164  1.401642 A    
O12   Cu2   1.975090 S    
C154  H106  1.083300 S    
C182  C185  1.404097 A    
C7    C27   1.485957 S    
C16   C32   1.557791 S    
O1    C1    1.294201 A    
N2    O51   1.301374 A    
C134  H94   1.082085 S    
C23   N7    1.469658 S    
H18   C18   1.113494 S    
C44   H48   1.082799 S    
C19   C35   1.539707 S    
C23   C39   1.549223 S    
O45   C127  1.302335 A    
C132  C136  1.395814 A    
O43   C125  1.302023 A    
C91   H75   1.082894 S    
C58   C62   1.405808 A    
O23   Cu7   1.974497 S    
C184  H124  1.082029 S    
C96   H80   1.082871 S    
C29   C33   1.545894 S    
O21   Cu5   1.974497 S    
C73   C109  1.479889 S    
C137  C151  1.487981 S    
C148  C150  1.399938 A    
C138  C152  1.487985 S    
O29   C119  1.295179 A    
C11   H3    1.113530 S    
C170  H134  1.083302 S    
C189  C199  1.403786 A    
C73   C77   1.401636 A    
C107  C111  1.404114 A    
C94   C98   1.404756 A    
O36   C122  1.300228 A    
C144  C146  1.395786 A    
C50   C86   1.475649 S    
C181  H121  1.082979 S    
C37   H29   1.113422 S    
C166  C175  1.404313 A    
C130  C134  1.395818 A    
C146  C149  1.399939 A    
C183  H123  1.082031 S    
C17   H37   1.110160 S    
C168  H116  1.082847 S    
C166  C170  1.396294 A    
O6    C2    1.295458 A    
O4    Cu2   1.959479 S    
C191  H127  1.082066 S    
C108  C112  1.404112 A    
C180  C182  1.394350 A    
C191  C200  1.408043 A    
Cu11  O47   1.958132 S    
C44   C48   1.395292 A    
N6    O60   1.301056 A    
C60   C64   1.405821 A    
C41   C61   1.405843 A    
O36   Cu12  1.957657 S    
C178  C187  1.400048 A    
C15   H15   1.113092 S    
C21   C25   1.563532 S    
C167  C176  1.404902 A    
O18   Cu6   1.958093 S    
O2    Cu1   1.959479 S    
C23   C27   1.563700 S    
O10   Cu1   1.975090 S    
C169  C173  1.401686 A    
O40   Cu12  1.959317 S    
C3    C99   1.475102 S    
C193  H129  1.082885 S    
C20   H40   1.110175 S    
C9    H5    1.113239 S    
C65   C69   1.403414 A    
C10   C14   1.542494 S    
C113  C161  1.469895 S    
C143  H99   1.082040 S    
C165  H113  1.083139 S    
C144  H100  1.082044 S    
C142  C148  1.395790 A    
O13   C5    1.290013 A    
C167  H115  1.082854 S    
C72   C76   1.404265 A    
C11   C15   1.542451 S    
C157  C161  1.404046 A    
C195  C198  1.401754 A    
O7    C3    1.295449 A    
N1    O50   1.301464 A    
C66   C86   1.416859 A    
C42   C46   1.395286 A    
C121  C139  1.470859 S    
C95   C99   1.404754 A    
C122  C140  1.470859 S    
C168  C176  1.404901 A    
C15   C31   1.557791 S    
C131  C140  1.401947 A    
C76   C80   1.401614 A    
O33   C121  1.300229 A    
C21   H25   1.115314 S    
C190  H126  1.083003 S    
C184  C186  1.408674 A    
C38   H34   1.112454 S    
C18   H38   1.110165 S    
C48   C52   1.402402 A    
C108  H88   1.082915 S    
C11   H7    1.113249 S    
C31   C35   1.545973 S    
C78   C82   1.392574 A    
C19   H39   1.110175 S    
C149  C163  1.469185 S    
C97   C101  1.404597 A    
N5    O58   1.301058 A    
O48   C128  1.303185 A    
C24   C28   1.563698 S    
C165  C169  1.396294 A    
C30   C38   1.554369 S    
C169  H133  1.083301 S    
C58   H58   1.082817 S    
O12   C8    1.287800 A    
C158  C161  1.404048 A    
C66   N2    1.439462 S    
C156  C164  1.401639 A    
O9    Cu1   1.975093 S    
C37   H33   1.112455 S    
C102  C106  1.393990 A    
C2    C98   1.475110 S    
C172  C174  1.403724 A    
N4    O56   1.301438 A    
O32   C120  1.294298 A    
O22   C116  1.289721 A    
C40   H32   1.113451 S    
C89   H73   1.082887 S    
O11   Cu2   1.975093 S    
C166  H114  1.083137 S    
C83   H71   1.083528 S    
C160  H112  1.083176 S    
C92   H76   1.082895 S    
C134  C137  1.407868 A    
C39   H35   1.112451 S    
C50   C54   1.401891 A    
C79   H67   1.082923 S    
C183  C186  1.408676 A    
C98   C102  1.404629 A    
O33   Cu9   1.957655 S    
C196  C198  1.401748 A    
O6    Cu3   1.960641 S    
N7    O62   1.301060 A    
C12   C16   1.542451 S    
C45   C49   1.402387 A    
O42   Cu9   1.958601 S    
C43   C47   1.395292 A    
O43   Cu12  1.958597 S    
C46   H50   1.083251 S    
C101  H81   1.082900 S    
C14   C30   1.557743 S    
C120  C198  1.470340 S    
C102  H82   1.082886 S    
C24   C40   1.549225 S    
H21   C33   1.113441 S    
O24   C118  1.289691 A    
C31   C117  1.485585 S    
C148  H104  1.083362 S    
O2    C2    1.294215 A    
C127  C175  1.471065 S    
N8    O63   1.301380 A    
C42   H46   1.082803 S    
C53   C57   1.395137 A    
C56   H56   1.083284 S    
C186  C200  1.488414 S    
C63   C125  1.475890 S    
O14   Cu3   1.976160 S    
C132  H92   1.083236 S    
O37   C123  1.301837 A    
C91   C95   1.396282 A    
C142  C151  1.408612 A    
O44   C126  1.302023 A    
C21   C37   1.549129 S    
Cu1   Cu3   2.668806 S    
O21   C115  1.289742 A    
C75   C111  1.479800 S    
C106  C110  1.404105 A    
C135  C138  1.407869 A    
H24   C36   1.113443 S    
C189  C193  1.394427 A    
C153  C163  1.401641 A    
C11   C27   1.549435 S    
C59   C63   1.405818 A    
C141  C147  1.395786 A    
C12   H8    1.113245 S    
C177  H117  1.083361 S    
C52   C88   1.475614 S    
C94   H78   1.082869 S    
O28   Cu7   1.974347 S    
C46   C50   1.402416 A    
C84   H72   1.083526 S    
C130  H90   1.083234 S    
C133  C137  1.407870 A    
C33   H41   1.113221 S    
C168  C172  1.394451 A    
C69   C73   1.404289 A    
C43   C63   1.405820 A    
C191  C195  1.395953 A    
