data_mof_unit_41636.cif
_audit_creation_date              2013-03-05T15:56:06-0500
_audit_creation_method            fapswitch 2.2
_symmetry_space_group_name_H-M    P1
_symmetry_Int_Tables_number       1
_space_group_crystal_system       triclinic
_cell_length_a                    8.433382
_cell_length_b                    16.493522
_cell_length_c                    27.03844
_cell_angle_alpha                 95.628462
_cell_angle_beta                  93.24209
_cell_angle_gamma                 86.738759
_cell_volume                      3731.82858065

loop_
_atom_site_label
_atom_site_type_symbol
_atom_site_description
_atom_site_fract_x
_atom_site_fract_y
_atom_site_fract_z
_atom_type_partial_charge
P1    P     P_3+3 0.086060 0.566890 0.610430 0.442441
O1    O     O_2   0.915540 0.542930 0.617950 -0.373010
O2    O     O_3   0.147530 0.542870 0.557780 -0.372331
O3    O     O_3   0.664390 0.396160 0.588360 -0.364360
O4    O     O_2   0.812590 0.449407 0.674000 -0.405744
O5    O     O_3   0.067274 0.673655 0.616350 -0.565486
O6    O     O_3   0.665168 0.319317 0.678954 -0.519300
C1    C     C_3   0.508827 0.203909 0.680034 -1.023394
H1    H     H_    0.603423 0.168089 0.699895 0.263189
H2    H     H_    0.436488 0.240159 0.708185 0.290838
P2    P     P_3+3 0.625290 0.314770 0.461990 0.451352
P3    P     P_3+3 0.097602 0.248944 0.562561 0.417867
O7    O     O_2   0.802410 0.302720 0.476520 -0.361372
O8    O     O_3   0.070880 0.354870 0.564040 -0.384756
O9    O     O_2   0.952117 0.211998 0.533126 -0.393239
O10   O     O_3   0.619365 0.296507 0.397031 -0.584406
O11   O     O_3   0.080777 0.220777 0.622852 -0.556688
C2    C     C_3   0.100427 0.289373 0.657285 0.419361
H3    H     H_    0.009720 0.338370 0.649725 0.180043
H4    H     H_    0.221164 0.312430 0.656023 0.048777
C3    C     C_3   0.077661 0.266239 0.709396 -0.908886
H5    H     H_    0.955158 0.246230 0.711948 0.270073
H6    H     H_    0.163576 0.215712 0.718472 0.258886
C4    C     C_3   0.122538 0.265231 0.387966 0.446569
H7    H     H_    0.094388 0.277489 0.427863 0.072752
C5    C     C_3   0.031227 0.189464 0.363932 -0.171892
H8    H     H_    0.084873 0.132675 0.378131 0.147181
Ba1   Ba    Ba6+2 0.851940 0.461560 0.523510 1.527421
C6    C     C_3   0.026177 0.700939 0.665051 0.354727
H9    H     H_    0.122811 0.684058 0.692405 0.098860
H10   H     H_    0.912978 0.675467 0.674030 0.114661
C7    C     C_3   0.002511 0.793363 0.669361 -0.933453
H11   H     H_    0.114339 0.821012 0.661393 0.255880
H12   H     H_    0.969219 0.815968 0.707623 0.229907
H13   H     H_    0.906145 0.812072 0.642400 0.266857
C8    C     C_3   0.663548 0.364781 0.375696 0.413598
H14   H     H_    0.790669 0.372882 0.385529 0.109675
H15   H     H_    0.589266 0.419998 0.388061 0.141315
C9    C     C_3   0.639865 0.349855 0.319376 -0.958551
H16   H     H_    0.696342 0.290013 0.305903 0.260902
H17   H     H_    0.693770 0.398276 0.301304 0.235794
H18   H     H_    0.511047 0.350418 0.308379 0.257589
P4    P     P_3+3 0.103630 0.433040 0.389570 0.466892
O12   O     O_2   0.274150 0.457040 0.382020 -0.367665
O13   O     O_3   0.042160 0.457070 0.442220 -0.410049
O14   O     O_3   0.525310 0.603770 0.411640 -0.401607
O15   O     O_3   0.074123 0.332469 0.361552 -0.610425
P5    P     P_3+3 0.105315 0.755522 0.440324 0.448728
O16   O     O_3   0.637620 0.597020 0.524620 -0.402499
O17   O     O_3   0.118810 0.645070 0.435950 -0.360862
O18   O     O_2   0.260678 0.786293 0.466505 -0.381764
O19   O     O_3   0.122683 0.787206 0.381076 -0.515919
Ba2   Ba    Ba6+2 0.337880 0.538370 0.476480 1.524095
P6    P     P_3+3 0.654550 0.413176 0.653489 0.457769
C10   C     C_3   0.581930 0.261287 0.647512 0.554010
H19   H     H_    0.482226 0.289332 0.625094 0.036232
H20   H     H_    0.431138 0.161374 0.656823 0.231954
O20   O     O_3   0.552080 0.402920 0.475380 -0.395241
C11   C     C_3   0.499161 0.657119 0.627891 0.440460
H21   H     H_    0.378157 0.649199 0.610633 0.124150
H22   H     H_    0.572050 0.598974 0.623035 0.097509
C12   C     C_3   0.484886 0.683392 0.683134 -1.030374
H23   H     H_    0.424865 0.745142 0.688201 0.276084
H24   H     H_    0.413377 0.640915 0.700609 0.227630
H25   H     H_    0.604934 0.684880 0.702237 0.260987
P7    P     P_3+3 0.568869 0.699225 0.542424 0.442760
O21   O     O_2   0.387280 0.697260 0.523450 -0.340311
O22   O     O_3   0.573664 0.718165 0.607200 -0.559478
H26   H     H_    0.096146 0.319868 0.736870 0.248652
C13   C     C_3   0.976479 0.781393 0.354120 0.277774
H27   H     H_    0.942522 0.716857 0.349157 0.054601
H28   H     H_    0.883614 0.820018 0.373932 0.018370
C14   C     C_3   0.988382 0.814190 0.302938 -0.185200
H29   H     H_    0.001359 0.881277 0.309851 0.136265
P8    P     P_3+3 0.538360 0.604205 0.347554 0.429251
C15   C     C_3   0.537275 0.758135 0.370460 0.582155
H30   H     H_    0.668060 0.747702 0.371224 -0.077378
O23   O     O_2   0.417134 0.544325 0.322061 -0.391436
O24   O     O_3   0.464018 0.701786 0.334954 -0.516079
H31   H     H_    0.496268 0.752533 0.408211 0.137221
H32   H     H_    0.577871 0.887302 0.380316 0.228865
C16   C     C_3   0.496590 0.845269 0.358231 -1.065862
H33   H     H_    0.373055 0.864220 0.367871 0.290627
H34   H     H_    0.508864 0.850603 0.318103 0.250749
C17   C     C_R   0.022520 0.446721 0.181110 0.538551
O25   O     O_2   0.060054 0.389143 0.205249 -0.602332
N1    N     N_R   0.939849 0.514884 0.203248 -0.159364
C18   C     C_R   0.892919 0.578397 0.174257 0.490677
C19   C     C_2   0.762007 0.554095 0.272192 -0.195114
C20   C     C_3   0.747572 0.582277 0.326628 0.124820
C21   C     C_1   0.984867 0.493408 0.343970 0.372110
C22   C     C_2   0.026182 0.495976 0.296819 -0.222672
C23   C     C_2   0.904141 0.520878 0.256503 0.095500
C24   C     C_R   0.016089 0.507111 0.101379 -0.069984
C25   C     C_R   0.061976 0.442283 0.130265 -0.060764
C26   C     C_R   0.146464 0.374185 0.107635 -0.090183
C27   C     C_R   0.930353 0.575202 0.123730 -0.030588
C28   C     C_2   0.847763 0.527640 0.358693 -0.451689
H35   H     H_    0.146557 0.477513 0.286885 0.192588
H36   H     H_    0.184475 0.323227 0.128635 0.162497
C29   C     C_2   0.340625 0.477260 0.641865 -0.431029
C30   C     C_R   0.175796 0.430581 0.976037 0.040741
C31   C     C_R   0.052934 0.569082 0.971398 0.043469
C32   C     C_R   0.133861 0.498531 0.948408 0.083438
C33   C     C_R   0.252775 0.361248 0.950773 -0.204209
C34   C     C_R   0.288918 0.359214 0.900847 -0.084691
C35   C     C_R   0.250939 0.426216 0.873449 -0.050291
C36   C     C_R   0.173438 0.496063 0.897219 -0.066622
C37   C     C_R   0.135830 0.563625 0.869816 -0.050131
C38   C     C_R   0.177006 0.560968 0.819533 0.523739
N2    N     N_R   0.251782 0.491725 0.796155 -0.162747
C39   C     C_R   0.288401 0.424570 0.822724 0.510971
C40   C     C_2   0.443646 0.471926 0.729930 -0.167832
C41   C     C_3   0.485754 0.481686 0.676845 0.153600
C42   C     C_1   0.207841 0.514477 0.657394 0.241246
C43   C     C_2   0.169080 0.513971 0.704493 -0.287268
C44   C     C_2   0.292382 0.490548 0.744000 0.145939
O26   O     O_2   0.352451 0.362964 0.802195 -0.599456
C45   C     C_R   0.139389 0.434053 0.027538 0.042107
C46   C     C_R   0.055398 0.503975 0.050116 0.083073
C47   C     C_R   0.009980 0.570933 0.022010 0.043866
C48   C     C_R   0.184224 0.370032 0.057699 -0.201717
H37   H     H_    0.537805 0.458331 0.757402 0.165110
H38   H     H_    0.347761 0.304305 0.883696 0.165977
H39   H     H_    0.285920 0.306580 0.968378 0.125372
H40   H     H_    0.250575 0.315547 0.044035 0.124546
O27   O     O_2   0.820210 0.639147 0.192522 -0.630362
C49   C     C_R   0.883318 0.639715 0.095201 -0.090173
H41   H     H_    0.665730 0.569950 0.246005 0.184318
H42   H     H_    0.815802 0.692849 0.111122 0.167116
C50   C     C_R   0.018675 0.635995 0.942739 -0.205158
C51   C     C_R   0.059088 0.633174 0.893352 -0.092071
O28   O     O_2   0.148080 0.621051 0.796806 -0.619614
C52   C     C_R   0.921649 0.637728 0.045736 -0.212142
H43   H     H_    0.962171 0.692693 0.957413 0.125193
H44   H     H_    0.029570 0.686465 0.873525 0.164541
H45   H     H_    0.048194 0.530448 0.714699 0.182875
H46   H     H_    0.877816 0.689800 0.027066 0.126066
H47   H     H_    0.792387 0.506246 0.389321 0.119229
H48   H     H_    0.340458 0.437169 0.607499 0.157922
C53   C     C_R   0.380078 0.265085 0.516599 -0.497401
C54   C     C_R   0.522767 0.240725 0.494692 0.352458
C55   C     C_R   0.576703 0.158668 0.492708 -0.349803
C56   C     C_R   0.485623 0.099213 0.510858 0.155853
C57   C     C_R   0.335069 0.124227 0.531282 0.010110
C58   C     C_R   0.285908 0.208477 0.534532 0.154338
C59   C     C_R   0.630800 0.855709 0.511258 -0.291687
C60   C     C_R   0.691840 0.777030 0.517451 0.198487
C61   C     C_R   0.722868 0.912587 0.490839 0.188165
N3    N     N_2   0.544131 0.015961 0.510656 -0.063378
N4    N     N_2   0.668802 0.996238 0.488367 -0.078912
C62   C     C_R   0.851080 0.756561 0.505564 -0.190184
H49   H     H_    0.511718 0.871391 0.522170 0.171792
C63   C     C_R   0.933048 0.805038 0.476607 0.218914
C64   C     C_R   0.871354 0.885150 0.471491 -0.368422
H50   H     H_    0.688383 0.141195 0.475874 0.164020
H51   H     H_    0.936382 0.925368 0.451670 0.153041
H52   H     H_    0.338663 0.328546 0.518037 0.181603
N5    N     N_3   0.692447 0.215673 0.614009 -0.153588
H53   H     H_    0.633981 0.167312 0.594621 0.082874
H54   H     H_    0.785398 0.189514 0.635343 0.168498
C65   C     C_3   0.035939 0.180346 0.306259 -0.149411
C66   C     C_3   0.999947 0.094488 0.283101 -1.012930
H55   H     H_    0.017343 0.090175 0.242507 0.269745
H56   H     H_    0.081735 0.048178 0.299747 0.261938
H57   H     H_    0.875156 0.080573 0.288218 0.265029
H58   H     H_    0.155735 0.193100 0.294895 0.195472
H59   H     H_    0.950346 0.225393 0.290027 0.215805
N6    N     N_3   0.867591 0.195875 0.379045 -0.159140
H60   H     H_    0.870431 0.184667 0.416452 0.130311
H61   H     H_    0.804106 0.148498 0.360452 0.133310
C67   C     C_3   0.135037 0.779837 0.274577 -0.212736
C68   C     C_3   0.156486 0.687035 0.270205 -0.713190
H62   H     H_    0.176401 0.663922 0.307308 0.291056
H63   H     H_    0.049821 0.660432 0.251745 0.244923
H64   H     H_    0.260095 0.666968 0.247650 0.240619
H65   H     H_    0.125467 0.800485 0.236540 0.175681
H66   H     H_    0.243354 0.805676 0.293249 0.223436
N7    N     N_3   0.843267 0.800841 0.271506 -0.184331
H67   H     H_    0.753855 0.842183 0.284953 0.101275
H68   H     H_    0.805410 0.742231 0.274171 0.172585
C69   C     C_3   0.219606 0.066641 0.549859 -0.304212
C70   C     C_3   0.257957 0.975092 0.544551 -0.891244
H69   H     H_    0.276281 0.952872 0.505081 0.278192
H70   H     H_    0.361723 0.960209 0.569725 0.261143
H71   H     H_    0.155677 0.943412 0.556386 0.258246
H72   H     H_    0.203586 0.084437 0.589986 0.227308
H73   H     H_    0.102892 0.075528 0.529478 0.217348
C71   C     C_3   0.911073 0.671661 0.508566 -0.206895
C72   C     C_3   0.839285 0.627038 0.461036 -0.586210
H74   H     H_    0.716661 0.645357 0.458617 0.224755
H75   H     H_    0.862739 0.649657 0.425322 0.156491
H76   H     H_    0.856522 0.561738 0.461012 0.268536
H77   H     H_    0.041623 0.666319 0.514197 0.243132
H78   H     H_    0.876669 0.648424 0.542854 0.225898
C73   C     C_3   0.301854 0.250762 0.383460 -0.282465
C74   C     C_3   0.370889 0.163636 0.388884 -1.009201
H79   H     H_    0.325512 0.139722 0.421977 0.253447
H80   H     H_    0.340221 0.122487 0.355146 0.264951
H81   H     H_    0.502319 0.162211 0.392373 0.293973
H82   H     H_    0.337547 0.268901 0.347366 0.220044
H83   H     H_    0.350722 0.293641 0.413043 0.200256

loop_
_geom_bond_atom_site_label_1
_geom_bond_atom_site_label_2
_geom_bond_distance
_ccdc_geom_bond_type
C67   H65   1.111947 S    
P7    O22   1.747267 S    
C10   H19   1.114217 S    
C72   H74   1.060983 S    
Ba2   O20   2.790865 S    
C64   H51   1.082750 S    
C2    C3    1.520566 S    
P2    O7    1.529774 D    
C14   H29   1.114511 S    
C25   C26   1.402517 A    
C15   O24   1.410791 S    
O6    C10   1.407462 S    
C70   H69   1.110250 S    
C57   C58   1.423083 A    
C9    H17   1.107357 S    
C17   O25   1.221508 D    
C43   C44   1.510360 S    
C5    H8    1.109986 S    
C6    H9    1.111357 S    
C8    H14   1.102241 S    
C66   H56   1.110917 S    
C4    C5    1.571790 S    
C40   C41   1.523706 S    
C6    C7    1.519999 S    
C50   H43   1.075593 S    
C61   N4    1.434917 S    
C67   C68   1.524778 S    
C11   O22   1.394195 S    
C45   C48   1.418327 A    
C34   C35   1.402187 A    
C4    C73   1.527329 S    
C42   C43   1.333489 D    
C26   H36   1.083482 S    
C19   H41   1.084480 S    
C36   C37   1.409428 A    
C30   C33   1.417126 A    
P1    O1    1.542408 D    
N6    H60   1.044590 S    
P3    C58   1.859595 S    
C74   H80   1.109738 S    
C69   C70   1.520653 S    
C12   H24   1.105889 S    
C72   H76   1.078505 S    
C38   N2    1.386765 Am   
C24   C46   1.438649 A    
C71   H77   1.102595 S    
P4    Ba2   3.392266 S    
P5    O18   1.541333 D    
C12   H23   1.110895 S    
C66   H55   1.110416 S    
C5    N6    1.456461 S    
C1    H1    1.110866 S    
P3    O11   1.753764 S    
P1    Ba1   3.391800 S    
C56   N3    1.432025 S    
C35   C36   1.408560 A    
N5    H54   1.045259 S    
O7    Ba1   2.839685 S    
C13   H27   1.111456 S    
C47   C52   1.414987 A    
C74   H79   1.108050 S    
P2    O20   1.563969 S    
P4    O15   1.779462 S    
P7    C60   1.891786 S    
C18   C27   1.414796 A    
P8    C20   1.887887 S    
C32   C36   1.438181 A    
C17   N1    1.390800 Am   
P7    O21   1.588384 D    
O13   Ba2   2.958268 S    
C11   H21   1.107040 S    
C3    H5    1.110099 S    
C29   C41   1.504517 S    
N6    H61   1.044069 S    
C71   C72   1.528723 S    
C37   C51   1.399508 A    
C27   C49   1.401035 A    
Ba2   O21   2.840037 S    
O12   Ba2   2.804672 S    
C1    C10   1.529664 S    
O14   P8    1.743226 S    
O3    Ba1   2.760187 S    
C29   H48   1.086318 S    
H32   C16   1.110701 S    
C9    H18   1.109750 S    
C17   C25   1.426623 A    
C68   H63   1.096355 S    
Ba1   O13   2.786274 S    
C11   H22   1.110024 S    
O17   Ba2   2.736906 S    
O16   P7    1.780654 S    
C59   C60   1.390645 A    
P1    O5    1.751413 S    
C7    H13   1.111622 S    
C15   H31   1.109986 S    
O4    P6    1.543720 D    
C66   H57   1.108858 S    
C4    H7    1.114300 S    
C70   H71   1.111178 S    
C15   C16   1.522088 S    
C9    H16   1.108750 S    
C73   C74   1.536861 S    
P6    C41   1.865677 S    
C24   C27   1.404702 A    
P8    O23   1.548347 D    
C68   H62   1.108449 S    
C57   C69   1.535169 S    
C5    C65   1.554418 S    
P4    C21   1.871456 S    
N7    H67   1.043851 S    
C3    H26   1.110054 S    
P1    O2    1.549755 S    
C7    H12   1.110582 S    
C48   H40   1.076205 S    
C74   H81   1.106184 S    
P4    O12   1.542793 D    
C62   C71   1.469851 S    
C49   C52   1.390496 A    
C1    H20   1.111183 S    
Ba1   O16   2.791592 S    
C71   H78   1.096957 S    
N5    H53   1.042900 S    
C40   H37   1.085490 S    
P3    O9    1.545821 D    
N2    C39   1.389367 Am   
C51   H44   1.083681 S    
C13   C14   1.544850 S    
O11   C2    1.404116 S    
C35   C39   1.422080 A    
C69   H73   1.109984 S    
C15   H30   1.105932 S    
C14   C67   1.543063 S    
C30   C32   1.424236 A    
P5    O17   1.811452 S    
P4    O13   1.549777 S    
C63   C64   1.408995 A    
C53   C58   1.397946 A    
C65   H59   1.110322 S    
C62   C63   1.406095 A    
C16   H33   1.108476 S    
C16   H34   1.108210 S    
C3    H6    1.109511 S    
C29   C42   1.315864 D    
C40   C44   1.361538 D    
C73   H83   1.093054 S    
C50   C51   1.392450 A    
C31   C47   1.432285 A    
C21   C22   1.345767 D    
C46   C47   1.423893 A    
C43   H45   1.083950 S    
C68   H64   1.110279 S    
C67   H66   1.104938 S    
P5    C63   1.899758 S    
O2    Ba1   2.957470 S    
C11   C12   1.523416 S    
C72   H75   1.100653 S    
C12   H25   1.110659 S    
O3    P6    1.761723 S    
C54   C55   1.399977 A    
C4    O15   1.406232 S    
C8    C9    1.522218 S    
C60   C62   1.413040 A    
P3    O8    1.745635 S    
C56   C57   1.436060 A    
C49   H42   1.083738 S    
C52   H46   1.075612 S    
C13   H28   1.109015 S    
Ba1   Ba2   4.638176 S    
Ba1   O20   2.946717 S    
C65   C66   1.530700 S    
C18   O27   1.221121 D    
C59   C61   1.421522 A    
C33   C34   1.397408 A    
C26   C48   1.398975 A    
C28   H47   1.071573 S    
N2    C44   1.467897 S    
C7    H11   1.111295 S    
C33   H39   1.076200 S    
C70   H70   1.109199 S    
C61   C64   1.417657 A    
C6    H10   1.112949 S    
C53   C54   1.392571 A    
O10   C8    1.392541 S    
C8    H15   1.110259 S    
C39   O26   1.221964 D    
C73   H82   1.110533 S    
O2    Ba2   2.787157 S    
C55   H50   1.081279 S    
P8    O24   1.751587 S    
P2    Ba1   3.414535 S    
O16   Ba2   2.946004 S    
N1    C23   1.480420 S    
O14   Ba2   2.759358 S    
C10   N5    1.461953 S    
C22   C23   1.526123 S    
C2    H4    1.110441 S    
C69   H72   1.109590 S    
C21   C28   1.322065 D    
C19   C23   1.361661 D    
C24   C25   1.409110 A    
C59   H49   1.073074 S    
P2    C54   1.854544 S    
P2    O10   1.751031 S    
O19   C13   1.399560 S    
C65   H58   1.109653 S    
C14   N7    1.464504 S    
C53   H52   1.082145 S    
P5    O19   1.749379 S    
O5    C6    1.405073 S    
N1    C18   1.395449 Am   
C1    H2    1.109389 S    
C45   C46   1.422079 A    
C34   H38   1.083522 S    
C31   C32   1.421973 A    
C2    H3    1.106540 S    
N3    N4    1.252502 D    
C38   O28   1.222362 D    
O1    Ba1   2.804286 S    
P1    C42   1.838848 S    
O6    P6    1.750689 S    
O8    Ba1   2.736124 S    
C19   C20   1.508925 S    
C37   C38   1.418055 A    
C31   C50   1.417077 A    
C20   C28   1.503806 S    
C30   C45   1.437814 A    
C55   C56   1.419581 A    
C22   H35   1.084005 S    
N7    H68   1.045474 S    
