data_mof_unit_40643.cif
_audit_creation_date              2012-12-11T15:46:57-0500
_audit_creation_method            fapswitch 2.2
_symmetry_space_group_name_H-M    P1
_symmetry_Int_Tables_number       1
_space_group_crystal_system       triclinic
_cell_length_a                    11.59569
_cell_length_b                    11.587941
_cell_length_c                    19.550018
_cell_angle_alpha                 90.423134
_cell_angle_beta                  89.880769
_cell_angle_gamma                 59.871232
_cell_volume                      2271.92564381

loop_
_atom_site_label
_atom_site_type_symbol
_atom_type_description
_atom_site_fract_x
_atom_site_fract_y
_atom_site_fract_z
_atom_type_partial_charge
C1    C     C_R   0.640196 0.117144 0.599276 0.547653
C2    C     C_1   0.652640 0.149579 0.668649 0.003522
C3    C     C_R   0.662041 0.667102 0.193487 -0.005908
C4    C     C_R   0.612103 0.746490 0.598652 0.545481
C5    C     C_R   0.545938 0.694454 0.228278 0.080313
C6    C     C_R   0.541076 0.701393 0.298002 -0.000554
C7    C     C_R   0.766836 0.657504 0.302167 -0.190691
C8    C     C_R   0.770954 0.653848 0.230960 -0.177362
C9    C     C_3   0.476942 0.614539 0.228404 0.139477
C10   C     C_3   0.469714 0.625658 0.305352 -0.253624
C11   C     C_R   0.650271 0.681992 0.335876 0.001569
C12   C     C_1   0.640751 0.704282 0.668003 0.004749
C13   C     C_R   0.159239 0.185141 0.187708 0.007638
C14   C     C_R   0.213690 0.254022 0.220233 -0.004895
C15   C     C_R   0.237936 0.239390 0.289246 0.029646
C16   C     C_R   0.241258 0.145223 0.598163 0.546002
C17   C     C_R   0.185045 0.063886 0.293499 -0.140102
C18   C     C_R   0.155793 0.081504 0.223624 -0.089297
C19   C     C_3   0.166102 0.399838 0.224053 -0.214172
C20   C     C_3   0.189530 0.384287 0.300206 -0.255443
C21   C     C_R   0.214359 0.152280 0.328053 0.002360
C22   C     C_R   0.669989 0.179918 0.192081 -0.026167
C23   C     C_1   0.126628 0.198968 0.859326 0.006743
C24   C     C_R   0.770228 0.067916 0.224395 0.042426
C25   C     C_R   0.777035 0.055971 0.294763 0.002646
C26   C     C_R   0.567198 0.263942 0.303128 -0.167828
C27   C     C_R   0.565939 0.277485 0.231955 -0.186724
C28   C     C_R   0.645387 0.111971 0.402289 0.539775
C29   C     C_3   0.803547 0.926821 0.213657 0.180008
C30   C     C_3   0.832866 0.907859 0.289751 0.159471
C31   C     C_R   0.669649 0.149734 0.335054 -0.026266
C32   C     C_R   0.081538 0.231335 0.928629 0.544346
C33   C     C_R   0.684151 0.604009 0.929513 0.550617
C34   C     C_1   0.171551 0.170380 0.727714 -0.030591
C35   C     C_R   0.708773 0.206792 0.930116 0.547102
C36   C     C_R   0.084515 0.234742 0.124640 0.540167
C37   C     C_R   0.683093 0.610928 0.125670 0.561574
C38   C     C_R   0.705879 0.209297 0.125593 0.553098
C39   C     C_R   0.618816 0.735401 0.403985 0.548687
C40   C     C_R   0.249648 0.138175 0.399814 0.544265
C41   C     C_1   0.670685 0.646161 0.860145 0.007910
C42   C     C_1   0.654465 0.683863 0.728429 -0.030627
C43   C     C_1   0.663510 0.666563 0.799702 -0.029544
C44   C     C_3   0.003534 0.777318 0.367712 0.020762
C45   C     C_1   0.150153 0.182427 0.798957 -0.029304
C46   C     C_3   0.057033 0.846672 0.413305 -0.342050
C47   C     C_1   0.195408 0.160946 0.667364 0.003468
C48   C     C_1   0.679109 0.191177 0.860790 0.007776
C49   C     C_1   0.658461 0.167100 0.729041 -0.030374
C50   C     C_1   0.665999 0.180755 0.800367 -0.028798
Cr1   Cr    Cr6+3 0.404720 0.198220 0.499960 1.021046
Cr2   Cr    Cr6+3 0.698290 0.897110 0.500380 0.999958
Cr3   Cr    Cr6+3 0.396970 0.904720 0.499610 1.017943
Cr4   Cr    Cr6+3 0.926290 0.152010 0.028150 1.097089
Cr5   Cr    Cr6+3 0.921440 0.451830 0.027490 1.063600
Cr6   Cr    Cr6+3 0.626370 0.446880 0.028730 1.080172
H1    H     H_    0.852596 0.644105 0.330482 0.120283
H2    H     H_    0.543966 0.511741 0.209865 0.115151
H3    H     H_    0.369316 0.688297 0.328328 0.178606
H4    H     H_    0.531466 0.528529 0.331176 0.094292
H5    H     H_    0.176821 0.987526 0.320826 0.160823
H6    H     H_    0.118333 0.022820 0.199782 0.236917
H7    H     H_    0.059660 0.461317 0.211443 0.177279
H8    H     H_    0.950261 0.762447 0.050485 0.360035
H9    H     H_    0.083561 0.671817 0.360654 0.141336
H10   H     H_    0.920609 0.774253 0.394486 0.134462
H11   H     H_    0.983534 0.954981 0.417342 0.169623
H12   H     H_    0.234193 0.425450 0.196737 0.205821
H13   H     H_    0.076741 0.802851 0.465234 0.091892
H14   H     H_    0.151655 0.833072 0.391715 0.148871
H15   H     H_    0.269076 0.810101 0.090956 0.376010
H16   H     H_    0.268659 0.404484 0.317298 0.144103
H17   H     H_    0.095825 0.435253 0.330898 0.127854
H18   H     H_    0.484376 0.338863 0.332811 0.132529
H19   H     H_    0.483635 0.362675 0.208143 0.161303
H20   H     H_    0.713412 0.921053 0.199983 0.069989
H21   H     H_    0.771067 0.873653 0.316108 0.094948
H22   H     H_    0.861244 0.632344 0.205247 0.193570
O1    O     O_R   0.267750 0.231960 0.575440 -0.506224
O2    O     O_R   0.596230 0.579400 0.952760 -0.498894
O3    O     O_R   0.639160 0.321170 0.958690 -0.495563
O4    O     O_R   0.527290 0.186640 0.570530 -0.493800
O5    O     O_R   0.821370 0.124220 0.104400 -0.440879
O6    O     O_R   0.037020 0.167050 0.097880 -0.491320
O7    O     O_R   0.056310 0.349620 0.102920 -0.511965
O8    O     O_R   0.797790 0.564880 0.097980 -0.491938
O9    O     O_R   0.596000 0.584270 0.104310 -0.479977
O10   O     O_R   0.638950 0.325690 0.099180 -0.505659
O11   O     O_3   0.824700 0.350240 0.028120 -0.285303
O12   O     O_R   0.685950 0.784660 0.430010 -0.524738
O13   O     O_R   0.728110 0.003450 0.576380 -0.507350
O14   O     O_R   0.682980 0.789190 0.570500 -0.495655
O15   O     O_R   0.499300 0.771880 0.575540 -0.506513
O16   O     O_R   0.285350 0.030870 0.569740 -0.494551
O17   O     O_R   0.270960 0.227070 0.423890 -0.519992
O18   O     O_R   0.530270 0.182120 0.430040 -0.501193
O19   O     O_R   0.731320 0.998570 0.424830 -0.539759
O20   O     O_2   0.019099 0.898580 0.142878 -0.215961
O21   O     O_2   0.027438 0.694231 0.180820 -0.250840
O22   O     O_3   0.872564 0.821977 0.079669 -0.533777
O23   O     O_R   0.502510 0.767000 0.423980 -0.516363
O24   O     O_3   0.971813 0.837844 0.302668 -0.468859
O25   O     O_2   0.301702 0.598073 0.146268 -0.285876
O26   O     O_2   0.209937 0.768951 0.236930 -0.221996
O27   O     O_3   0.320001 0.811401 0.131263 -0.514909
O28   O     O_R   0.288320 0.026340 0.429250 -0.507358
O29   O     O_3   0.499990 0.000020 0.499980 -0.250924
O30   O     O_R   0.821590 0.119350 0.952850 -0.493372
O31   O     O_R   0.037230 0.162540 0.957390 -0.496329
O32   O     O_R   0.056530 0.344750 0.951370 -0.501767
O33   O     O_R   0.798000 0.560370 0.957490 -0.490577
S1    S     S_3+6 0.938226 0.832289 0.154471 0.076447
S2    S     S_3+6 0.320729 0.699050 0.185674 0.039296

loop_
_geom_bond_atom_site_label_1
_geom_bond_atom_site_label_2
_ccdc_geom_bond_type
C28   O19   A    
C25   C31   A    
C23   C45   T    
C38   O5    A    
C29   S1    S    
Cr2   O12   S    
C19   C20   S    
Cr4   O6    S    
C35   O3    A    
C7    C8    A    
C29   H20   S    
C7    C11   A    
C26   C27   A    
C32   O32   A    
C13   C18   A    
O27   S2    S    
O25   S2    D    
C1    C2    S    
C5    C6    A    
Cr6   O10   S    
C22   C38   S    
Cr2   O19   S    
C9    H2    S    
C24   C29   S    
C46   H13   S    
C12   C42   T    
C35   O30   A    
C17   H5    S    
C30   H21   S    
C44   H10   S    
Cr3   O28   S    
Cr2   O29   S    
Cr3   O23   S    
C33   O33   A    
C4    C12   S    
C9    C10   S    
C39   O12   A    
Cr1   O18   S    
C48   C50   T    
C26   C31   A    
C1    O13   A    
C13   C14   A    
C8    H22   S    
C41   C43   T    
C44   H9    S    
C27   H19   S    
C35   C48   S    
C16   C47   S    
Cr4   O5    S    
C44   C46   S    
C39   O23   A    
C15   C20   S    
O20   S1    D    
C32   O31   A    
Cr3   O15   S    
C37   O8    A    
Cr6   O3    S    
C24   C25   A    
Cr4   O11   S    
C3    C8    A    
C19   H7    S    
C6    C11   A    
C44   O24   S    
C18   H6    S    
Cr6   O9    S    
C1    O4    A    
C17   C21   A    
O26   S2    D    
Cr4   O31   S    
C38   O10   A    
Cr5   O7    S    
C10   H4    S    
C5    C9    S    
C29   C30   S    
C2    C49   T    
Cr3   O29   S    
H8    O22   S    
C30   O24   S    
C17   C18   A    
C19   H12   S    
C34   C45   S    
C11   C39   S    
Cr1   O4    S    
C13   C36   S    
Cr6   O11   S    
O22   S1    S    
C22   C27   A    
H15   O27   S    
Cr5   O32   S    
C22   C24   A    
Cr2   O14   S    
C42   C43   S    
C40   O17   A    
C40   O28   A    
C25   C30   S    
Cr5   O33   S    
Cr3   O16   S    
C14   C19   S    
C37   O9    A    
C28   C31   S    
C3    C5    A    
C6    C10   S    
C33   O2    A    
C36   O7    A    
C16   O16   A    
Cr6   O2    S    
Cr4   O30   S    
C28   O18   A    
C16   O1    A    
C33   C41   S    
C23   C32   S    
Cr5   O8    S    
C10   H3    S    
C9    S2    S    
C46   H11   S    
Cr5   O11   S    
C21   C40   S    
C36   O6    A    
O21   S1    D    
C26   H18   S    
C20   H17   S    
Cr1   O1    S    
C46   H14   S    
C4    O15   A    
C15   C21   A    
C3    C37   S    
Cr1   O29   S    
C49   C50   S    
C14   C15   A    
C20   H16   S    
Cr2   O13   S    
C34   C47   T    
C7    H1    S    
Cr1   O17   S    
C4    O14   A    
