data_mof_unit_7026.cif
_audit_creation_date              2012-12-10T16:58:23-0500
_audit_creation_method            fapswitch 2.2
_symmetry_space_group_name_H-M    P1
_symmetry_Int_Tables_number       1
_space_group_crystal_system       triclinic
_cell_length_a                    7.747884
_cell_length_b                    8.571865
_cell_length_c                    23.448174
_cell_angle_alpha                 90.888168
_cell_angle_beta                  86.228781
_cell_angle_gamma                 94.095552
_cell_volume                      1549.85113367

loop_
_atom_site_label
_atom_site_type_symbol
_atom_type_description
_atom_site_fract_x
_atom_site_fract_y
_atom_site_fract_z
_atom_type_partial_charge
C1    C     C_R   0.546159 0.794883 0.498491 0.968019
C2    C     C_R   0.336002 0.471263 0.302575 -0.234541
C3    C     C_R   0.673738 0.525062 0.756347 0.234813
C4    C     C_R   0.326262 0.474935 0.243652 0.234812
C5    C     C_R   0.524032 0.481351 0.791097 0.223886
C6    C     C_R   0.475968 0.518646 0.208903 0.223886
C7    C     C_2   0.570255 0.958631 0.497612 -0.360922
C8    C     C_2   0.429745 0.041369 0.502388 -0.360922
C9    C     C_R   0.501961 0.496229 0.610537 0.886008
C10   C     C_R   0.498039 0.503770 0.389463 0.886008
C11   C     C_R   0.443110 0.373113 0.121024 0.578979
C12   C     C_R   0.453840 0.205117 0.501509 0.968019
C13   C     C_R   0.556890 0.626883 0.878976 0.578979
C14   C     C_R   0.517907 0.648269 0.118265 0.556326
C15   C     C_R   0.482093 0.351726 0.881735 0.556326
C16   C     C_R   0.536342 0.643537 0.058777 -0.039146
C17   C     C_R   0.463658 0.356459 0.941223 -0.039146
C18   C     C_R   0.493558 0.502175 0.030048 -0.045543
C19   C     C_R   0.506442 0.497821 0.969952 -0.045543
C20   C     C_R   0.438160 0.365524 0.061311 -0.077938
C21   C     C_R   0.561839 0.634472 0.938689 -0.077937
C22   C     C_R   0.600603 0.775978 0.027860 -0.166969
C23   C     C_R   0.368713 0.435263 0.766485 -0.130742
C24   C     C_R   0.399397 0.224018 0.972140 -0.166969
C25   C     C_R   0.617076 0.772354 0.968433 0.206425
C26   C     C_R   0.382924 0.227642 0.031567 0.206425
C27   C     C_1   0.198368 0.375728 0.684586 0.257849
C28   C     C_1   0.801632 0.624269 0.315413 0.257850
C29   C     C_R   0.631287 0.564733 0.233515 -0.130742
C30   C     C_R   0.359149 0.435150 0.707576 -0.041519
C31   C     C_R   0.640851 0.564848 0.292423 -0.041519
C32   C     C_R   0.507030 0.486850 0.672595 -0.125587
C33   C     C_R   0.492970 0.513148 0.327405 -0.125587
C34   C     C_R   0.663998 0.528736 0.697425 -0.234541
H1    H     H_    0.642428 0.882644 0.049925 0.217292
H2    H     H_    0.986309 0.616557 0.543095 0.195194
H3    H     H_    0.357572 0.117352 0.950075 0.217292
H4    H     H_    0.255143 0.398665 0.793775 0.183020
H5    H     H_    0.744857 0.601330 0.206225 0.183020
H6    H     H_    0.779292 0.565817 0.671074 0.182249
H7    H     H_    0.220707 0.434182 0.328925 0.182249
H8    H     H_    0.702637 0.010518 0.493050 0.183136
H9    H     H_    0.297363 0.989482 0.506950 0.183136
H10   H     H_    0.013691 0.383443 0.456905 0.195194
I1    I     I_    0.750149 0.975184 0.930431 -0.182789
I2    I     I_    0.249850 0.024812 0.069569 -0.182789
I3    I     I_    0.917376 0.584344 0.790288 -0.287422
I4    I     I_    0.082624 0.415652 0.209712 -0.287423
N1    N     N_R   0.474122 0.513986 0.148029 -0.354708
N2    N     N_R   0.525877 0.486010 0.851971 -0.354708
N3    N     N_2   0.950330 0.457950 0.484560 -0.168005
N4    N     N_2   0.049670 0.542050 0.515440 -0.168006
N5    N     N_1   0.069714 0.327906 0.666211 -0.174455
N6    N     N_1   0.930286 0.672090 0.333788 -0.174455
O1    O     O_R   0.389250 0.738570 0.503790 -0.610622
O2    O     O_2   0.576151 0.758548 0.847870 -0.472560
O3    O     O_2   0.545528 0.785521 0.146400 -0.503662
O4    O     O_2   0.454472 0.214475 0.853600 -0.503662
O5    O     O_R   0.610750 0.261430 0.496210 -0.610622
O6    O     O_R   0.678390 0.711620 0.493890 -0.628835
O7    O     O_R   0.321610 0.288380 0.506110 -0.628836
O8    O     O_R   0.355400 0.513520 0.588790 -0.611369
O9    O     O_R   0.644600 0.486480 0.411210 -0.611369
O10   O     O_R   0.644550 0.486570 0.578900 -0.624350
O11   O     O_R   0.355450 0.513430 0.421100 -0.624350
O12   O     O_2   0.423849 0.241448 0.152130 -0.472560
Zn1   Zn    Zn3+2 0.306930 0.518000 0.506610 0.968490
Zn2   Zn    Zn3+2 0.693070 0.482000 0.493390 0.968490

loop_
_geom_bond_atom_site_label_1
_geom_bond_atom_site_label_2
_ccdc_geom_bond_type
O1    Zn1   S    
C27   N5    T    
C1    O6    A    
C11   N1    A    
H10   N3    S    
O5    Zn2   S    
C23   H4    S    
O7    Zn1   S    
C2    C4    A    
C10   O9    A    
H2    N4    S    
C11   O12   S    
C17   C24   A    
C8    C12   S    
C13   O2    S    
C29   H5    S    
C31   C33   A    
C24   H3    S    
C1    O1    A    
C3    C5    A    
C13   C21   A    
C7    C8    D    
C29   C31   A    
C7    H8    S    
C27   C30   S    
C30   C32   A    
C22   H1    S    
N4    Zn1   S    
C20   C26   A    
O8    Zn1   S    
C34   H6    S    
O10   Zn2   S    
C2    C33   A    
C3    I3    S    
C13   N2    A    
C17   C19   A    
C24   C26   A    
C18   C19   A    
C10   C33   S    
C18   C20   A    
N3    Zn2   S    
C6    N1    S    
C5    N2    S    
C15   O4    S    
C14   C16   A    
C11   C20   A    
C15   N2    A    
C14   N1    A    
C26   I2    S    
C2    H7    S    
N3    N4    D    
C9    O10   A    
C23   C30   A    
C25   I1    S    
C6    C29   A    
C12   O7    A    
C8    H9    S    
O6    Zn2   S    
C16   C18   A    
C4    C6    A    
C4    I4    S    
C10   O11   A    
C15   C17   A    
C14   O3    S    
C28   N6    T    
O9    Zn2   S    
C21   C25   A    
C3    C34   A    
C19   C21   A    
C9    C32   S    
C1    C7    S    
C12   O5    A    
C5    C23   A    
C28   C31   S    
C9    O8    A    
C16   C22   A    
O11   Zn1   S    
C22   C25   A    
C32   C34   A    
