data_mof_unit_22359.cif
_audit_creation_date              2012-10-26T20:17:36-0400
_audit_creation_method            fapswitch 2.2
_symmetry_space_group_name_H-M    P1
_symmetry_Int_Tables_number       1
_space_group_crystal_system       triclinic
_cell_length_a                    27.799572
_cell_length_b                    8.671012
_cell_length_c                    7.424257
_cell_angle_alpha                 102.987792
_cell_angle_beta                  94.285573
_cell_angle_gamma                 92.473286
_cell_volume                      1735.6497853

loop_
_atom_site_label
_atom_site_type_symbol
_atom_type_description
_atom_site_fract_x
_atom_site_fract_y
_atom_site_fract_z
_atom_type_partial_charge
C1    C     C_R   0.498533 0.199581 0.453143 0.555044
C2    C     C_R   0.868718 0.360269 0.412435 0.030880
C3    C     C_R   0.354048 0.493474 0.507990 0.019312
C4    C     C_R   0.645947 0.506630 0.492033 0.019300
C5    C     C_R   0.971153 0.354477 0.445291 -0.036022
C6    C     C_R   0.028851 0.645590 0.554976 -0.036028
C7    C     C_R   0.977604 0.647464 0.534114 0.035111
C8    C     C_R   0.022401 0.352604 0.466115 0.035109
C9    C     C_R   0.949052 0.501756 0.480960 0.023979
C10   C     C_R   0.050954 0.498312 0.519284 0.023981
C11   C     C_R   0.940966 0.213480 0.387908 -0.119296
C12   C     C_R   0.501467 0.800419 0.546857 0.554995
C13   C     C_R   0.059037 0.786586 0.612415 -0.119294
C14   C     C_R   0.890959 0.216032 0.372008 0.392159
C15   C     C_R   0.109044 0.784036 0.628324 0.392178
C16   C     C_R   0.407282 0.497476 0.501718 0.552487
C17   C     C_R   0.592716 0.502570 0.498287 0.552450
C18   C     C_R   0.046381 0.209340 0.436566 -0.135939
C19   C     C_R   0.953625 0.790729 0.563601 -0.135953
C20   C     C_2   0.497824 0.031681 0.426656 -0.150009
C21   C     C_2   0.502177 0.968319 0.573344 -0.150021
C22   C     C_R   0.175246 0.351784 0.509409 0.412409
C23   C     C_R   0.102266 0.496626 0.536142 -0.087393
C24   C     C_R   0.824760 0.648293 0.490699 0.412343
C25   C     C_R   0.181926 0.634329 0.594394 0.429292
C26   C     C_R   0.818078 0.365741 0.405896 0.429293
C27   C     C_R   0.285900 0.537516 0.697872 -0.062040
C28   C     C_R   0.714105 0.462036 0.302274 -0.062074
C29   C     C_R   0.335503 0.539385 0.682405 -0.156631
C30   C     C_R   0.664500 0.460160 0.317698 -0.156713
C31   C     C_R   0.321145 0.443509 0.346362 -0.023047
C32   C     C_R   0.678837 0.557239 0.653610 -0.023188
C33   C     C_R   0.271378 0.442952 0.365225 -0.030193
C34   C     C_R   0.897739 0.503444 0.464089 -0.087386
C35   C     C_R   0.728607 0.557746 0.634803 -0.030263
C36   C     C_R   0.253777 0.489664 0.539334 0.219414
C37   C     C_R   0.746221 0.510435 0.460781 0.219282
C38   C     C_3   0.337225 0.388774 0.153750 -0.370183
C39   C     C_3   0.662737 0.612837 0.846081 -0.370198
C40   C     C_R   0.124693 0.351516 0.499804 0.033169
C41   C     C_R   0.875313 0.648556 0.500356 0.033176
C42   C     C_R   0.096383 0.209266 0.452096 -0.066213
C43   C     C_R   0.903624 0.790805 0.548034 -0.066236
C44   C     C_R   0.131286 0.639801 0.587850 0.030854
Cu1   Cu    Cu3+1 0.505380 0.517380 0.684380 0.951641
Cu2   Cu    Cu3+1 0.494620 0.482620 0.315620 0.951634
F1    F     F_    0.864659 0.075326 0.316251 -0.580095
F2    F     F_    0.135345 0.924741 0.684113 -0.580058
H1    H     H_    0.462037 0.378279 0.948243 0.237684
H2    H     H_    0.272398 0.573886 0.833132 0.138923
H3    H     H_    0.954619 0.097352 0.352716 0.132259
H4    H     H_    0.045383 0.902709 0.647655 0.132285
H5    H     H_    0.027839 0.093748 0.400987 0.100792
H6    H     H_    0.972169 0.906320 0.599139 0.100778
H7    H     H_    0.493723 0.959909 0.285353 0.134354
H8    H     H_    0.506277 0.040091 0.714646 0.134353
H9    H     H_    0.306142 0.347360 0.048263 0.135190
H10   H     H_    0.356771 0.488272 0.113167 0.149734
H11   H     H_    0.360759 0.287933 0.149006 0.158806
H12   H     H_    0.537963 0.621722 0.051757 0.237683
H13   H     H_    0.693804 0.654952 0.951443 0.135592
H14   H     H_    0.639127 0.713397 0.850020 0.158657
H15   H     H_    0.643268 0.513602 0.887459 0.149736
H16   H     H_    0.245748 0.406985 0.243906 0.139089
H17   H     H_    0.754227 0.594172 0.756100 0.139263
H18   H     H_    0.112797 0.096188 0.424895 0.210540
H19   H     H_    0.887211 0.903884 0.575191 0.210609
H20   H     H_    0.640574 0.420836 0.192152 0.131367
H21   H     H_    0.359435 0.578273 0.807991 0.131264
H22   H     H_    0.727613 0.425247 0.167078 0.139200
N1    N     N_R   0.202623 0.491871 0.552560 -0.422072
N2    N     N_R   0.797380 0.508208 0.447624 -0.422039
N3    N     N_2   0.486510 0.456430 0.038510 -0.259686
N4    N     N_2   0.513490 0.543570 0.961490 -0.259676
O1    O     O_R   0.503500 0.286120 0.619780 -0.502576
O2    O     O_2   0.803036 0.786912 0.525754 -0.431297
O3    O     O_2   0.789666 0.230190 0.362747 -0.380193
O4    O     O_2   0.210341 0.769875 0.637657 -0.380086
O5    O     O_R   0.496500 0.713880 0.380220 -0.502597
O6    O     O_R   0.494410 0.256780 0.308360 -0.497221
O7    O     O_R   0.505590 0.743220 0.691640 -0.497261
O8    O     O_R   0.434810 0.514700 0.655690 -0.508666
O9    O     O_R   0.565190 0.485300 0.344310 -0.508681
O10   O     O_R   0.425720 0.485350 0.344280 -0.504971
O11   O     O_R   0.574280 0.514650 0.655720 -0.504928
O12   O     O_2   0.196972 0.213174 0.474217 -0.431229

loop_
_geom_bond_atom_site_label_1
_geom_bond_atom_site_label_2
_ccdc_geom_bond_type
C27   C29   A    
C26   N2    A    
N3    N4    D    
Cu1   O8    S    
Cu1   Cu2   S    
C17   O11   A    
C35   C37   A    
C15   C44   A    
C5    C11   A    
C18   C42   A    
Cu2   O5    S    
C11   C14   A    
C35   H17   S    
C23   C40   A    
C38   H9    S    
C12   O5    A    
C16   O10   A    
C33   C36   A    
C32   C39   S    
C3    C29   A    
C18   H5    S    
C38   H10   S    
C31   C33   A    
C25   N1    A    
C36   N1    S    
C2    C34   A    
C40   C42   A    
C24   C41   A    
C41   C43   A    
C34   C41   A    
C15   F2    S    
C20   H7    S    
C25   C44   A    
C19   C43   A    
C6    C7    A    
C29   H21   S    
C39   H13   S    
Cu1   O7    S    
C26   O3    S    
C25   O4    S    
C1    O1    A    
C32   C35   A    
C24   O2    S    
C12   C21   S    
C8    C18   A    
C23   C44   A    
C38   H11   S    
Cu1   N4    S    
C17   O9    A    
Cu1   O11   S    
C5    C9    A    
C5    C8    A    
C13   H4    S    
C22   C40   A    
C16   O8    A    
C2    C26   A    
C3    C31   A    
C4    C32   A    
Cu2   O10   S    
C4    C17   S    
C19   H6    S    
C8    C10   A    
C7    C19   A    
C13   C15   A    
C9    C34   A    
C10   C23   A    
H1    N3    S    
C22   N1    A    
C24   N2    A    
C7    C9    A    
C39   H14   S    
C1    C20   S    
C28   H22   S    
C6    C10   A    
C21   H8    S    
C27   H2    S    
C14   F1    S    
C27   C36   A    
C39   H15   S    
C31   C38   S    
Cu1   O1    S    
C28   C30   A    
C6    C13   A    
Cu2   O6    S    
C28   C37   A    
C33   H16   S    
H12   N4    S    
C12   O7    A    
C22   O12   S    
C2    C14   A    
C30   H20   S    
C11   H3    S    
Cu2   O9    S    
C20   C21   D    
C43   H19   S    
C37   N2    S    
C42   H18   S    
C1    O6    A    
Cu2   N3    S    
C4    C30   A    
C3    C16   S    
