data_mof_unit_28922.cif
_audit_creation_date              2012-12-10T16:48:06-0500
_audit_creation_method            fapswitch 2.2
_symmetry_space_group_name_H-M    P1
_symmetry_Int_Tables_number       1
_space_group_crystal_system       triclinic
_cell_length_a                    15.81362
_cell_length_b                    8.697081
_cell_length_c                    7.438754
_cell_angle_alpha                 102.5053
_cell_angle_beta                  94.024391
_cell_angle_gamma                 92.44228
_cell_volume                      994.578195466

loop_
_atom_site_label
_atom_site_type_symbol
_atom_type_description
_atom_site_fract_x
_atom_site_fract_y
_atom_site_fract_z
_atom_type_partial_charge
C1    C     C_R   0.493912 0.200424 0.455093 0.838956
C2    C     C_R   0.506089 0.799576 0.544908 0.838938
C3    C     C_R   0.339937 0.500403 0.502604 0.826003
C4    C     C_R   0.660063 0.499596 0.497395 0.826005
C5    C     C_2   0.478313 0.034817 0.439765 -0.231626
C6    C     C_2   0.521685 0.965184 0.560242 -0.231636
C7    C     C_3   0.972832 0.425756 0.627762 -0.160629
C8    C     C_3   0.027167 0.574236 0.372232 -0.160636
C9    C     C_3   0.023891 0.350758 0.464154 -0.158731
C10   C     C_3   0.976109 0.649233 0.535840 -0.158735
C11   C     C_1   0.250390 0.501455 0.507899 -0.178667
C12   C     C_1   0.749610 0.498541 0.492100 -0.178664
C13   C     C_3   0.033410 0.575997 0.668591 -0.157958
C14   C     C_3   0.966589 0.423994 0.331403 -0.157956
C15   C     C_3   0.082890 0.501007 0.504963 0.196634
C16   C     C_3   0.917110 0.498984 0.495031 0.196633
C17   C     C_1   0.174741 0.501680 0.508425 -0.089792
C18   C     C_1   0.825259 0.498314 0.491571 -0.089774
Cu1   Cu    Cu3+1 0.509330 0.517380 0.684380 0.949713
Cu2   Cu    Cu3+1 0.490670 0.482620 0.315620 0.949695
H1    H     H_    0.044981 0.228318 0.435038 0.124547
H2    H     H_    0.955019 0.771673 0.564956 0.124544
H3    H     H_    0.949009 0.364794 0.732495 0.119072
H4    H     H_    0.050991 0.635197 0.267499 0.119068
H5    H     H_    0.937841 0.361758 0.192955 0.116899
H6    H     H_    0.062159 0.638233 0.807039 0.116900
H7    H     H_    0.434837 0.376845 0.948883 0.224434
H8    H     H_    0.565163 0.623155 0.051117 0.224441
N1    N     N_2   0.476600 0.456420 0.038510 -0.213802
N2    N     N_2   0.523400 0.543580 0.961490 -0.213787
O1    O     O_R   0.506070 0.286130 0.619780 -0.575360
O2    O     O_R   0.493930 0.713870 0.380220 -0.575340
O3    O     O_R   0.490300 0.256770 0.308360 -0.599418
O4    O     O_R   0.509700 0.743230 0.691640 -0.599395
O5    O     O_R   0.386960 0.514660 0.655680 -0.596278
O6    O     O_R   0.613040 0.485340 0.344320 -0.596317
O7    O     O_R   0.371190 0.485310 0.344260 -0.560962
O8    O     O_R   0.628810 0.514690 0.655740 -0.560961
C19   C     C_R   0.401389 0.958503 0.321995 0.126012
C20   C     C_R   0.325587 0.935062 0.402862 -0.164879
C21   C     C_R   0.253824 0.859936 0.293186 -0.132660
C22   C     C_R   0.257259 0.808235 0.102446 -0.114231
C23   C     C_R   0.332537 0.831120 0.021243 -0.122014
C24   C     C_R   0.404526 0.905350 0.130702 -0.073517
H9    H     H_    0.322395 0.974094 0.550618 0.111237
H10   H     H_    0.195637 0.841490 0.356102 0.123450
H11   H     H_    0.201730 0.749968 0.017715 0.115570
H12   H     H_    0.335259 0.790523 0.873716 0.140917
H13   H     H_    0.463101 0.917854 0.067609 0.117074
C25   C     C_R   0.598618 0.041491 0.677986 0.125997
C26   C     C_R   0.595480 0.094773 0.869261 -0.073465
C27   C     C_R   0.667478 0.169010 0.978680 -0.122044
C28   C     C_R   0.742766 0.191771 0.897453 -0.114242
C29   C     C_R   0.746202 0.139935 0.706731 -0.132670
C30   C     C_R   0.674431 0.064800 0.597097 -0.164955
H14   H     H_    0.536898 0.082370 0.932367 0.117073
H15   H     H_    0.664756 0.209710 0.126193 0.140984
H16   H     H_    0.798301 0.250048 0.982154 0.115565
H17   H     H_    0.804397 0.158284 0.643796 0.123450
H18   H     H_    0.677623 0.025661 0.449353 0.111287

loop_
_geom_bond_atom_site_label_1
_geom_bond_atom_site_label_2
_ccdc_geom_bond_type
C24   H13   S    
C7    C13   S    
C23   C24   A    
C4    O6    A    
C19   C24   A    
C28   H16   S    
H7    N1    S    
C21   C22   A    
C29   C30   A    
C25   C30   A    
C3    O5    A    
C9    C14   S    
C23   H12   S    
Cu1   O1    S    
C2    O4    A    
Cu1   Cu2   S    
H8    N2    S    
C25   C26   A    
C9    C15   S    
C1    O3    A    
C10   C16   S    
Cu1   O5    S    
C28   C29   A    
C10   H2    S    
Cu2   O7    S    
C9    H1    S    
N1    N2    D    
C21   H10   S    
C30   H18   S    
C1    C5    S    
Cu2   O3    S    
C16   C18   S    
C20   C21   A    
C8    H4    S    
C4    O8    A    
C8    C15   S    
C14   C16   S    
Cu2   N1    S    
C13   C15   S    
C14   H5    S    
C5    C6    D    
C7    H3    S    
C13   H6    S    
C3    C11   S    
C27   H15   S    
C26   C27   A    
Cu2   O6    S    
C7    C9    S    
C1    O1    A    
C22   H11   S    
C20   H9    S    
C3    O7    A    
C2    O2    A    
C26   H14   S    
Cu2   O2    S    
C12   C18   T    
C19   C20   A    
C15   C17   S    
C5    C19   S    
Cu1   O8    S    
C7    C16   S    
C8    C14   S    
C6    C25   S    
C4    C12   S    
C29   H17   S    
Cu1   N2    S    
C10   C13   S    
C8    C10   S    
C11   C17   T    
C2    C6    S    
C22   C23   A    
C27   C28   A    
Cu1   O4    S    
