data_mof_unit_21317.cif
_audit_creation_date              2012-12-10T17:25:22-0500
_audit_creation_method            fapswitch 2.2
_symmetry_space_group_name_H-M    P1
_symmetry_Int_Tables_number       1
_space_group_crystal_system       triclinic
_cell_length_a                    27.765517
_cell_length_b                    10.819313
_cell_length_c                    9.590035
_cell_angle_alpha                 89.085681
_cell_angle_beta                  89.983831
_cell_angle_gamma                 93.496091
_cell_volume                      2875.15330532

loop_
_atom_site_label
_atom_site_type_symbol
_atom_type_description
_atom_site_fract_x
_atom_site_fract_y
_atom_site_fract_z
_atom_type_partial_charge
C1    C     C_R   0.498557 0.262042 0.501055 0.854197
C2    C     C_R   0.279750 0.492205 0.362053 -0.085931
C3    C     C_R   0.252563 0.501828 0.483171 0.305958
C4    C     C_R   0.101084 0.497057 0.476618 -0.082991
C5    C     C_R   0.123846 0.384492 0.497203 -0.089731
C6    C     C_R   0.094426 0.273973 0.520766 0.221668
C7    C     C_R   0.128938 0.609072 0.454812 -0.019646
C8    C     C_R   0.353892 0.503820 0.499130 -0.098301
C9    C     C_R   0.645563 0.501331 0.498895 -0.038758
C10   C     C_R   0.971388 0.388868 0.457246 -0.012411
C11   C     C_R   0.977598 0.611383 0.505582 -0.027031
C12   C     C_R   0.407310 0.501504 0.500311 0.812675
C13   C     C_R   0.948957 0.500605 0.482857 0.027488
C14   C     C_R   0.943300 0.286905 0.402809 0.093084
C15   C     C_R   0.892433 0.286214 0.406138 0.192737
C16   C     C_R   0.869708 0.391527 0.455976 -0.102292
C17   C     C_R   0.898169 0.501407 0.486161 -0.108576
C18   C     C_R   0.875872 0.612043 0.519526 -0.098325
C19   C     C_R   0.825030 0.610837 0.511046 0.578055
C20   C     C_R   0.819247 0.393412 0.472740 0.580404
C21   C     C_R   0.720566 0.486230 0.371703 -0.091754
C22   C     C_R   0.670373 0.485944 0.373096 -0.192768
C23   C     C_R   0.494980 0.736269 0.498376 0.801940
C24   C     C_R   0.671937 0.517827 0.623038 -0.209643
C25   C     C_R   0.722216 0.518891 0.621162 -0.085968
C26   C     C_R   0.746639 0.502719 0.495580 0.342186
C27   C     C_R   0.021781 0.386387 0.480625 0.027104
C28   C     C_R   0.050182 0.498321 0.478141 0.083883
C29   C     C_R   0.027759 0.611804 0.477414 0.070170
C30   C     C_R   0.044260 0.276891 0.513231 -0.188316
C31   C     C_R   0.105860 0.719495 0.432864 -0.103836
C32   C     C_R   0.955673 0.714382 0.562278 0.090737
C33   C     C_R   0.904898 0.717309 0.563977 0.193723
C34   C     C_R   0.592513 0.500483 0.499887 0.792694
C35   C     C_R   0.055877 0.720569 0.443138 -0.148593
C36   C     C_R   0.434655 0.117689 0.698694 -0.132440
C37   C     C_R   0.408479 0.049228 0.800405 -0.099668
C38   C     C_R   0.409214 0.921102 0.804565 -0.079358
C39   C     C_R   0.435290 0.860608 0.705177 -0.120015
C40   C     C_R   0.463317 0.928174 0.602981 0.066368
C41   C     C_R   0.464176 0.059356 0.602175 0.071303
C42   C     C_R   0.493444 0.127128 0.501741 -0.194327
C43   C     C_R   0.514205 0.064835 0.391204 0.140689
C44   C     C_R   0.502925 0.939615 0.376362 0.131776
C45   C     C_R   0.174869 0.389030 0.496268 0.578493
C46   C     C_R   0.486616 0.868880 0.493230 -0.198354
C47   C     C_R   0.567102 0.658885 0.141636 -0.108762
C48   C     C_R   0.600408 0.735490 0.068086 -0.161973
C49   C     C_R   0.599858 0.737259 0.924327 -0.187382
C50   C     C_R   0.566254 0.661785 0.853266 -0.129966
C51   C     C_R   0.532675 0.579180 0.923924 0.204746
C52   C     C_R   0.532915 0.578380 0.073581 0.182421
C53   C     C_R   0.469360 0.422665 0.073254 0.268375
C54   C     C_R   0.469644 0.423478 0.926103 -0.035491
C55   C     C_R   0.179275 0.607827 0.454488 0.560544
C56   C     C_R   0.275574 0.514310 0.611936 -0.109137
C57   C     C_R   0.325823 0.516154 0.621774 0.127089
C58   C     C_R   0.329863 0.493501 0.369820 -0.197642
Cu1   Cu    Cu3+1 0.500000 0.499990 0.640660 0.953871
Cu2   Cu    Cu3+1 0.500000 0.500010 0.359340 0.998054
H1    H     H_    0.349722 0.486152 0.273552 0.204224
H2    H     H_    0.126342 0.805803 0.409730 0.210211
H3    H     H_    0.742237 0.531587 0.717278 0.146706
H4    H     H_    0.429534 0.215513 0.694011 0.151190
H5    H     H_    0.625978 0.796354 0.123343 0.176170
H6    H     H_    0.568227 0.672572 0.743166 0.196634
H7    H     H_    0.739296 0.473865 0.274322 0.147037
N1    N     N_R   0.200982 0.499326 0.476179 -0.471772
N2    N     N_R   0.798324 0.502293 0.493638 -0.476639
N3    N     N_R   0.500460 0.501210 0.147910 -0.214417
N4    N     N_R   0.500480 0.501290 0.852040 -0.214949
O1    O     O_R   0.500000 0.319640 0.618810 -0.587870
O2    O     O_2   0.790882 0.288001 0.472171 -0.479747
O3    O     O_2   0.206464 0.714309 0.434140 -0.503420
O4    O     O_2   0.801912 0.716407 0.516516 -0.483606
O5    O     O_R   0.500000 0.319660 0.381240 -0.525870
O6    O     O_R   0.430260 0.500010 0.618770 -0.571607
O7    O     O_R   0.430270 0.500030 0.381200 -0.558708
O8    O     O_R   0.500000 0.680340 0.618760 -0.608775
O9    O     O_R   0.500000 0.680360 0.381190 -0.571220
O10   O     O_R   0.569730 0.499970 0.618800 -0.597019
O11   O     O_R   0.569740 0.499990 0.381230 -0.598110
O12   O     O_2   0.198659 0.285299 0.514705 -0.475965
H8    H     H_    0.254028 0.523150 0.705009 0.165170
I1    I     I_    0.997877 0.845612 0.687080 -0.251893
H9    H     H_    0.653803 0.530333 0.721345 0.163381
I2    I     I_    0.874507 0.878797 0.649653 -0.124568
H10   H     H_    0.039261 0.806756 0.421919 0.189137
I3    I     I_    0.566850 0.150017 0.249609 -0.280765
H11   H     H_    0.386513 0.095689 0.874067 0.170155
H12   H     H_    0.262006 0.483394 0.261852 0.161516
H13   H     H_    0.387864 0.867968 0.881588 0.176970
H14   H     H_    0.430708 0.760945 0.705706 0.182233
I4    I     I_    0.488065 0.881457 0.167769 -0.297010
I5    I     I_    0.419065 0.289858 0.164791 -0.310077
H15   H     H_    0.568340 0.670821 0.251294 0.198557
H16   H     H_    0.625276 0.798778 0.867125 0.170423
H17   H     H_    0.444807 0.361265 0.870744 0.155532
I6    I     I_    0.119156 0.095307 0.568600 -0.190116
H18   H     H_    0.651044 0.473021 0.275817 0.173828
I7    I     I_    0.851994 0.129918 0.317084 -0.113999
I8    I     I_    0.976990 0.152974 0.275905 -0.252822
H19   H     H_    0.022595 0.192634 0.536744 0.197530
I9    I     I_    0.353112 0.542481 0.827297 -0.388697

loop_
_geom_bond_atom_site_label_1
_geom_bond_atom_site_label_2
_ccdc_geom_bond_type
C10   C27   A    
C21   C26   A    
C52   N3    A    
C53   I5    S    
C41   C42   A    
C3    N1    S    
C7    C55   A    
Cu1   O6    S    
C55   N1    A    
C53   C54   A    
C40   C46   A    
Cu2   O7    S    
C43   I3    S    
C37   H11   S    
C28   C29   A    
C25   H3    S    
C5    C6    A    
C9    C22   A    
C14   I8    S    
C15   C16   A    
C38   H13   S    
C56   C57   A    
C18   C19   A    
C35   H10   S    
C39   H14   S    
C8    C58   A    
C55   O3    S    
Cu2   O11   S    
C54   N4    A    
C16   C17   A    
C12   O7    A    
C30   H19   S    
C47   H15   S    
C34   O10   A    
C23   O9    A    
C8    C12   S    
Cu1   O1    S    
C58   H1    S    
Cu1   Cu2   S    
C23   C46   S    
C21   C22   A    
C21   H7    S    
C27   C30   A    
C31   H2    S    
C36   C41   A    
C45   O12   S    
C51   N4    A    
C4    C7    A    
C53   N3    A    
C4    C28   A    
C44   C46   A    
C56   H8    S    
C1    O1    A    
C7    C31   A    
C51   C52   A    
C22   H18   S    
C24   C25   A    
C10   C14   A    
Cu1   O8    S    
C39   C40   A    
C50   C51   A    
C25   C26   A    
C5    C45   A    
Cu2   O5    S    
C43   C44   A    
C37   C38   A    
C8    C57   A    
C3    C56   A    
C47   C48   A    
Cu2   N3    S    
C16   C20   A    
C12   O6    A    
C45   N1    A    
C17   C18   A    
C15   I7    S    
C50   H6    S    
C40   C41   A    
C6    C30   A    
C11   C32   A    
C9    C34   S    
C48   H5    S    
C31   C35   A    
C20   N2    A    
C19   N2    A    
C42   C43   A    
C57   I9    S    
Cu2   O9    S    
C1    O5    A    
Cu1   O10   S    
C4    C5    A    
C10   C13   A    
C2    C58   A    
C9    C24   A    
C47   C52   A    
C29   C35   A    
C13   C17   A    
C32   C33   A    
C19   O4    S    
C2    C3    A    
C33   I2    S    
C6    I6    S    
C11   C13   A    
C38   C39   A    
C48   C49   A    
C32   I1    S    
C20   O2    S    
C2    H12   S    
C18   C33   A    
C44   I4    S    
C49   H16   S    
C1    C42   S    
C11   C29   A    
C36   C37   A    
C49   C50   A    
C27   C28   A    
C26   N2    S    
C14   C15   A    
C54   H17   S    
C34   O11   A    
C23   O8    A    
C36   H4    S    
C24   H9    S    
Cu1   N4    S    
