data_mof_unit_52054.cif
_audit_creation_date              2012-12-11T21:29:16-0500
_audit_creation_method            fapswitch 2.2
_symmetry_space_group_name_H-M    P1
_symmetry_Int_Tables_number       1
_space_group_crystal_system       triclinic
_cell_length_a                    8.247602
_cell_length_b                    18.850751
_cell_length_c                    18.916124
_cell_angle_alpha                 104.017063
_cell_angle_beta                  92.345284
_cell_angle_gamma                 92.320419
_cell_volume                      2847.13913876

loop_
_atom_site_label
_atom_site_type_symbol
_atom_type_description
_atom_site_fract_x
_atom_site_fract_y
_atom_site_fract_z
_atom_type_partial_charge
Ba1   Ba    Ba6+2 0.844980 0.532260 0.467660 1.694867
Ba2   Ba    Ba6+2 0.344840 0.467800 0.532350 1.676503
C1    C     C_3   0.472422 0.701043 0.196211 -0.561557
C2    C     C_R   0.914288 0.417873 0.083548 0.056205
C3    C     C_R   0.759057 0.387953 0.056365 -0.060610
C4    C     C_3   0.068799 0.677565 0.283464 0.467623
C5    C     C_R   0.701331 0.389961 0.986440 -0.042596
C6    C     C_R   0.797553 0.422051 0.941922 0.062060
C7    C     C_R   0.954290 0.451632 0.967614 0.038090
C8    C     C_R   0.739166 0.424128 0.871986 -0.082752
C9    C     C_R   0.834640 0.455551 0.826086 -0.031425
C10   C     C_R   0.990301 0.488353 0.852391 0.019591
C11   C     C_R   0.050427 0.485193 0.923211 0.007444
C12   C     C_3   0.592205 0.716704 0.262609 0.271871
C13   C     C_R   0.779846 0.453686 0.754045 -0.020137
C14   C     C_R   0.880687 0.482331 0.708671 -0.278283
C15   C     C_R   0.027663 0.522005 0.734747 0.077144
C16   C     C_3   0.051986 0.701029 0.211552 -0.193772
C17   C     C_R   0.085608 0.523952 0.808269 -0.009614
C18   C     C_R   0.169906 0.477518 0.064407 0.012725
C19   C     C_R   0.223346 0.481409 0.137880 0.018520
C20   C     C_R   0.119725 0.454852 0.185361 -0.035553
C21   C     C_R   0.969132 0.419736 0.155702 -0.038834
C22   C     C_R   0.237272 0.557571 0.838600 -0.008639
C23   C     C_3   0.533047 0.364191 0.304274 0.248750
C24   C     C_R   0.305775 0.547454 0.905432 -0.019606
C25   C     C_R   0.208562 0.513134 0.948851 0.012937
C26   C     C_R   0.268947 0.507615 0.018696 0.013058
C27   C     C_R   0.469005 0.570646 0.930746 -0.055232
C28   C     C_3   0.176714 0.694840 0.636412 0.240695
C29   C     C_R   0.526513 0.563814 0.999481 -0.090804
C30   C     C_R   0.427303 0.534255 0.043957 0.000512
C31   C     C_R   0.378569 0.514514 0.164143 -0.048706
C32   C     C_R   0.483704 0.534014 0.114643 -0.128015
C33   C     C_R   0.420499 0.531221 0.239712 -0.028700
C34   C     C_3   0.537366 0.347814 0.221134 -0.267802
C35   C     C_R   0.313534 0.508827 0.286673 -0.257975
C36   C     C_R   0.169554 0.466614 0.260927 -0.005543
C37   C     C_R   0.686976 0.955627 0.544280 0.032758
C38   C     C_R   0.773363 0.909985 0.579955 -0.078171
C39   C     C_R   0.905503 0.054749 0.571032 -0.079143
C40   C     C_3   0.175709 0.778927 0.657098 -0.282512
C41   C     C_R   0.750629 0.026063 0.540264 0.033766
C42   C     C_R   0.965944 0.123091 0.566118 -0.093224
C43   C     C_R   0.875035 0.166743 0.530757 -0.031407
C44   C     C_R   0.723473 0.137938 0.495319 0.014327
C45   C     C_3   0.121274 0.324756 0.716975 0.290375
C46   C     C_R   0.659962 0.068155 0.501211 0.024258
C47   C     C_R   0.931337 0.238189 0.529587 0.034191
C48   C     C_R   0.833561 0.280719 0.495808 -0.243957
C49   C     C_R   0.687064 0.252342 0.457448 -0.034175
C50   C     C_R   0.637629 0.177744 0.452138 -0.096040
C51   C     C_R   0.531033 0.929539 0.511647 0.044416
C52   C     C_3   0.118019 0.288607 0.305037 0.205711
C53   C     C_R   0.470334 0.857438 0.511262 0.036748
C54   C     C_R   0.568026 0.810142 0.540709 0.013803
C55   C     C_R   0.715064 0.839346 0.578185 -0.019408
C56   C     C_3   0.144632 0.306708 0.791083 -0.247910
C57   C     C_R   0.510385 0.139763 0.403898 -0.010160
C58   C     C_R   0.436659 0.076219 0.416743 -0.046514
C59   C     C_R   0.506599 0.040783 0.467221 -0.016926
C60   C     C_R   0.436990 0.974049 0.477173 0.020909
C61   C     C_R   0.275347 0.950197 0.453321 -0.104442
C62   C     C_R   0.313787 0.831991 0.479388 -0.034373
C63   C     C_R   0.215100 0.880683 0.454482 -0.090118
C64   C     C_3   0.136626 0.260610 0.223050 -0.413408
C65   C     C_R   0.262449 0.758039 0.471492 -0.027960
C66   C     C_R   0.366656 0.710185 0.494073 -0.246864
C67   C     C_3   0.609076 0.276982 0.678038 0.276166
C68   C     C_R   0.517282 0.734892 0.529823 0.130760
C69   C     C_3   0.612189 0.670702 0.710028 0.196191
C70   C     C_3   0.529311 0.720689 0.773079 -0.233708
C71   C     C_2   0.692138 0.785591 0.260912 0.524825
C72   C     C_2   0.063634 0.807199 0.716962 0.608894
C73   C     C_2   0.067767 0.225071 0.335642 0.577635
C74   C     C_2   0.765443 0.643584 0.734053 0.553539
C75   C     C_2   0.507794 0.733836 0.332408 0.494845
C76   C     C_2   0.640468 0.284661 0.191208 0.559667
C77   C     C_2   0.017399 0.251059 0.800233 0.513463
C78   C     C_3   0.555747 0.199698 0.682523 -0.257146
C79   C     C_2   0.588204 0.189082 0.757771 0.559504
C80   C     C_2   0.587449 0.597931 0.885901 0.516534
C81   C     C_2   0.489171 0.150697 0.329315 0.565213
C82   C     C_2   0.046866 0.638182 0.146145 0.419017
C83   C     C_R   0.013456 0.448491 0.038325 0.057974
H1    H     H_    0.300923 0.802878 0.673340 0.092173
H2    H     H_    0.412029 0.751581 0.192204 0.096733
H3    H     H_    0.425322 0.394958 0.322624 -0.048496
H4    H     H_    0.639663 0.399266 0.327776 0.114818
H5    H     H_    0.412888 0.336409 0.195944 0.084791
H6    H     H_    0.378423 0.659252 0.200036 0.094494
H7    H     H_    0.202979 0.372826 0.716874 0.117497
H8    H     H_    0.266275 0.284729 0.796055 0.093979
H9    H     H_    0.588353 0.279987 0.620375 0.053187
H10   H     H_    0.622180 0.159498 0.642827 0.071444
H11   H     H_    0.981347 0.631104 0.282533 0.115900
H12   H     H_    0.135078 0.798237 0.608644 -0.007929
H13   H     H_    0.423940 0.189315 0.667491 0.109676
H14   H     H_    0.680747 0.363565 0.089166 0.070611
H15   H     H_    0.580312 0.366886 0.967389 0.075665
H16   H     H_    0.618589 0.400436 0.853956 0.091743
H17   H     H_    0.890715 0.396156 0.189051 0.073083
H18   H     H_    0.305032 0.589617 0.809014 0.075696
H19   H     H_    0.650588 0.581862 0.018803 0.150336
H20   H     H_    0.606430 0.554904 0.132229 0.154681
H21   H     H_    0.192933 0.659006 0.290651 -0.213502
H22   H     H_    0.347663 0.521141 0.344371 0.063241
H23   H     H_    0.028418 0.225834 0.196517 0.125928
H24   H     H_    0.873114 0.336873 0.498792 0.074227
H25   H     H_    0.790515 0.807821 0.605310 0.091427
H26   H     H_    0.091111 0.865450 0.434123 0.143172
H27   H     H_    0.328107 0.653050 0.485492 0.052540
H28   H     H_    0.985064 0.025724 0.599275 0.077565
H29   H     H_    0.889011 0.926353 0.608987 0.064905
H30   H     H_    0.337466 0.049347 0.379560 0.120775
H31   H     H_    0.081912 0.674030 0.592390 0.075746
H32   H     H_    0.697399 0.803925 0.210778 -0.021952
H33   H     H_    0.936095 0.789621 0.710423 0.023098
H34   H     H_    0.246034 0.227888 0.213031 0.179297
H35   H     H_    0.957961 0.191929 0.313811 -0.042250
H36   H     H_    0.232918 0.314151 0.332788 0.085526
H37   H     H_    0.825464 0.607530 0.691970 -0.123997
H38   H     H_    0.424813 0.745337 0.751710 0.123722
H39   H     H_    0.384370 0.751273 0.334441 -0.072615
H40   H     H_    0.586991 0.397072 0.205741 0.028288
H41   H     H_    0.766833 0.286445 0.209717 0.000026
H42   H     H_    0.151331 0.741184 0.208978 0.040688
H43   H     H_    0.993997 0.338960 0.708621 -0.080416
H44   H     H_    0.139944 0.357274 0.835130 0.071359
H45   H     H_    0.148320 0.307042 0.197060 0.082151
H46   H     H_    0.005484 0.197751 0.761919 0.057269
H47   H     H_    0.740527 0.286637 0.693939 -0.050147
H48   H     H_    0.535413 0.224486 0.804212 0.034723
H49   H     H_    0.838098 0.478356 0.652912 0.067305
H50   H     H_    0.572158 0.583323 0.827147 -0.019735
H51   H     H_    0.086334 0.140444 0.590031 0.110461
H52   H     H_    0.589692 0.174237 0.306003 0.005588
H53   H     H_    0.148352 0.630668 0.111011 0.025254
H54   H     H_    0.192183 0.985005 0.433940 0.091276
H55   H     H_    0.939798 0.729631 0.208476 0.126928
H56   H     H_    0.529959 0.623997 0.683262 0.039633
H57   H     H_    0.296231 0.678257 0.615787 -0.033987
H58   H     H_    0.537791 0.682477 0.145399 0.161870
H59   H     H_    0.614616 0.766081 0.803299 0.162737
H60   H     H_    0.482090 0.690291 0.811430 0.064512
O1    O     O_2   0.885040 0.450540 0.321170 -0.454650
O2    O     O_2   0.272340 0.248819 0.534240 -0.426981
O3    O     O_3   0.161523 0.264251 0.662409 -0.634644
O4    O     O_3   0.133000 0.456200 0.410860 -0.467348
O5    O     O_3   0.556800 0.589310 0.543550 -0.497931
O6    O     O_2   0.384750 0.321010 0.451130 -0.413803
O7    O     O_3   0.531006 0.299141 0.327481 -0.667361
O8    O     O_2   0.442235 0.464350 0.752955 -0.524143
O9    O     O_3   0.517977 0.328234 0.724664 -0.605683
O10   O     O_3   0.639000 0.584840 0.375630 -0.435595
O11   O     O_2   0.746352 0.523563 0.249021 -0.477456
O12   O     O_3   0.657665 0.712742 0.662904 -0.681918
O13   O     O_3   0.993130 0.337161 0.317271 -0.650090
O14   O     O_3   0.698743 0.658465 0.258778 -0.573031
O15   O     O_2   0.804950 0.679010 0.548920 -0.469073
O16   O     O_3   0.051170 0.624120 0.414780 -0.498589
O17   O     O_2   0.922901 0.751821 0.467855 -0.432505
O18   O     O_2   0.773156 0.820438 0.314580 -0.531191
O19   O     O_2   0.115469 0.849717 0.773525 -0.536694
O20   O     O_2   0.146854 0.210736 0.385752 -0.571603
O21   O     O_2   0.829928 0.666320 0.795033 -0.551578
O22   O     O_2   0.586019 0.734903 0.388526 -0.549996
O23   O     O_3   0.036817 0.738219 0.339875 -0.565311
O24   O     O_2   0.582539 0.230852 0.146272 -0.545926
O25   O     O_2   0.927254 0.265118 0.850797 -0.560487
O26   O     O_2   0.673174 0.140322 0.767250 -0.544820
O27   O     O_2   0.707493 0.635642 0.914554 -0.525690
O28   O     O_2   0.365715 0.128619 0.291181 -0.561721
O29   O     O_2   0.926970 0.596258 0.131163 -0.582357
O30   O     O_2   0.304650 0.549490 0.678880 -0.492162
O31   O     O_3   0.056690 0.543860 0.589150 -0.495863
O32   O     O_3   0.550690 0.415220 0.624380 -0.463291
O33   O     O_3   0.150247 0.666147 0.697016 -0.621241
O34   O     O_3   0.632900 0.410750 0.456460 -0.483088
O35   O     O_3   0.138520 0.375940 0.585230 -0.487636
P1    P     P_3+3 0.058010 0.429760 0.330690 0.973075
P2    P     P_3+3 0.631910 0.669560 0.569730 0.973324
P3    P     P_3+3 0.067726 0.718199 0.424825 1.010014
P4    P     P_3+3 0.131690 0.570300 0.669320 0.996441
P5    P     P_3+3 0.125363 0.281610 0.576469 0.993585
P6    P     P_3+3 0.617980 0.577834 0.280912 0.986410
P7    P     P_3+3 0.562221 0.318732 0.422427 0.962704
P8    P     P_3+3 0.575120 0.415859 0.715613 0.922828

loop_
_geom_bond_atom_site_label_1
_geom_bond_atom_site_label_2
_ccdc_geom_bond_type
C42   H51   S    
C53   C54   A    
C61   C63   A    
Ba1   O31   S    
Ba2   O5    S    
C45   H7    S    
C34   H40   S    
C14   H49   S    
C23   H4    S    
C5    C6    A    
O5    P2    S    
C28   H31   S    
C43   C44   A    
O2    P5    D    
O6    P7    D    
C37   C51   A    
C24   C25   A    
C35   C36   A    
C36   P1    S    
C23   O7    S    
C67   C78   S    
C77   O25   D    
C33   C35   A    
C56   H8    S    
C57   C81   S    
C35   H22   S    
C33   P6    S    
C69   C74   S    
Ba2   O30   S    
C21   H17   S    
O34   P7    S    
C56   H44   S    
C13   C14   A    
C20   C36   A    
C44   C50   A    
C54   C55   A    
C1    H6    S    
Ba1   Ba2   S    
C66   H27   S    
C12   C75   S    
C71   O18   D    
C80   H50   S    
Ba1   O10   S    
C7    C11   A    
C63   H26   S    
C7    C83   A    
C9    C13   A    
C68   P2    S    
C38   H29   S    
C3    H14   S    
C6    C7    A    
C16   C82   S    
C74   O21   D    
C40   H1    S    
Ba2   O32   S    
C43   C47   A    
C41   C46   A    
C69   H56   S    
Ba2   O31   S    
Ba2   O4    S    
C8    C9    A    
Ba1   O16   S    
C57   C58   A    
C19   C20   A    
C18   C83   A    
O4    P1    S    
C39   C41   A    
Ba1   O1    S    
Ba2   O35   S    
O7    P7    S    
C82   O29   D    
O15   P2    D    
C48   C49   A    
C44   C46   A    
C51   C53   A    
C4    H21   S    
C69   O12   S    
C4    C16   S    
C4    O23   S    
C40   C72   S    
C71   H32   S    
C5    H15   S    
C1    H2    S    
C49   C50   A    
C62   C65   A    
C45   H43   S    
C1    H58   S    
C67   H9    S    
O31   P4    S    
C40   H12   S    
C39   H28   S    
C37   C38   A    
C3    C5    A    
C2    C21   A    
Ba1   P1    S    
C14   C15   A    
C72   H33   S    
C37   C41   A    
C2    C83   A    
C18   C26   A    
O3    P5    S    
O9    P8    S    
C76   O24   D    
C65   C66   A    
C58   C59   A    
C30   C32   A    
O16   P3    S    
C12   C71   S    
C60   C61   A    
C50   C57   A    
C16   H42   S    
C52   O13   S    
C51   C60   A    
C29   C30   A    
C26   C30   A    
C9    C10   A    
O23   P3    S    
C77   H46   S    
C53   C62   A    
C31   C32   A    
C28   O33   S    
Ba1   O5    S    
C73   O20   D    
Ba2   P4    S    
C10   C11   A    
C78   H10   S    
C16   H55   S    
O32   P8    S    
C1    C12   S    
C65   P3    S    
C56   C77   S    
C80   O27   D    
C66   C68   A    
C52   H36   S    
C48   H24   S    
C54   C68   A    
C64   H34   S    
C81   O28   D    
C70   H38   S    
C39   C42   A    
Ba2   O34   S    
C15   C17   A    
C76   H41   S    
C81   H52   S    
C42   C43   A    
O14   P6    S    
C23   H3    S    
C34   H5    S    
Ba2   O6    S    
C70   H59   S    
C45   O3    S    
C38   C55   A    
O1    P1    D    
C78   H13   S    
C32   H20   S    
C61   H54   S    
C8    H16   S    
C28   C40   S    
C73   H35   S    
C22   C24   A    
C64   H23   S    
C78   C79   S    
C58   H30   S    
O10   P6    S    
Ba1   P2    S    
C55   H25   S    
C79   H48   S    
C52   C64   S    
O8    P8    D    
O11   P6    D    
C75   O22   D    
C13   P8    S    
C4    H11   S    
C67   O9    S    
C28   H57   S    
C12   O14   S    
C22   H18   S    
C74   H37   S    
C29   H19   S    
C19   C31   A    
C17   C22   A    
O17   P3    D    
C27   C29   A    
C75   H39   S    
C34   C76   S    
C62   C63   A    
C45   C56   S    
C72   O19   D    
Ba1   O34   S    
C15   P4    S    
C46   C59   A    
Ba1   O15   S    
C67   H47   S    
C10   C17   A    
C31   C33   A    
C79   O26   D    
C59   C60   A    
O13   P1    S    
C27   C80   S    
C49   P7    S    
O35   P5    S    
C23   C34   S    
C82   H53   S    
C52   C73   S    
C2    C3    A    
C47   P5    S    
C18   C19   A    
C24   C27   A    
C6    C8    A    
C47   C48   A    
O12   P2    S    
C25   C26   A    
C20   C21   A    
C11   C25   A    
Ba1   O4    S    
C69   C70   S    
O33   P4    S    
C70   H60   S    
O30   P4    D    
C64   H45   S    
