data_mof_unit_29903.cif
_audit_creation_date              2012-12-10T17:22:42-0500
_audit_creation_method            fapswitch 2.2
_symmetry_space_group_name_H-M    P1
_symmetry_Int_Tables_number       1
_space_group_crystal_system       triclinic
_cell_length_a                    10.631801
_cell_length_b                    10.900849
_cell_length_c                    9.619752
_cell_angle_alpha                 92.067533
_cell_angle_beta                  89.476261
_cell_angle_gamma                 95.900356
_cell_volume                      1108.24250939

loop_
_atom_site_label
_atom_site_type_symbol
_atom_type_description
_atom_site_fract_x
_atom_site_fract_y
_atom_site_fract_z
_atom_type_partial_charge
C1    C     C_R   0.505377 0.262697 0.497765 0.825879
C2    C     C_3   0.960235 0.494387 0.367045 -0.126976
C3    C     C_3   0.031560 0.397217 0.435281 0.390987
C4    C     C_3   0.122521 0.498272 0.503243 -0.090931
C5    C     C_R   0.608471 0.137335 0.731722 -0.259967
C6    C     C_R   0.603408 0.089235 0.865069 0.503970
C7    C     C_R   0.539254 0.973132 0.883621 -0.091889
C8    C     C_R   0.494598 0.900067 0.768960 -0.258580
C9    C     C_R   0.507900 0.944815 0.632817 0.093599
C10   C     C_R   0.545071 0.071460 0.618890 0.023859
C11   C     C_R   0.513119 0.128621 0.495182 -0.154892
C12   C     C_R   0.259460 0.498793 0.500802 0.854332
C13   C     C_R   0.470922 0.053667 0.378243 0.297797
C14   C     C_R   0.464588 0.926764 0.384743 -0.185543
C15   C     C_R   0.483689 0.870457 0.509887 -0.135589
C16   C     C_R   0.668015 0.695814 0.137646 0.208804
C17   C     C_R   0.728005 0.788024 0.051826 0.290578
C18   C     C_R   0.729982 0.769925 0.911372 -0.301910
C19   C     C_R   0.661497 0.670497 0.850773 -0.197003
C20   C     C_R   0.580682 0.586328 0.925519 0.157317
C21   C     C_R   0.582302 0.591168 0.076350 0.090407
C22   C     C_R   0.422062 0.419091 0.071173 0.033827
C23   C     C_R   0.491390 0.736685 0.503290 0.842998
C24   C     C_R   0.422363 0.418896 0.923819 0.008962
C25   C     C_R   0.739830 0.495880 0.499460 0.856186
C26   C     C_3   0.037026 0.498965 0.632811 0.285667
C27   C     C_3   0.945652 0.395068 0.564704 -0.271090
C28   C     C_3   0.876342 0.495127 0.498442 -0.098779
C29   C     C_3   0.965281 0.598796 0.568173 -0.141479
C30   C     C_3   0.051860 0.597715 0.437434 -0.222348
Cu1   Cu    Cu3+1 0.499990 0.499990 0.640660 0.963009
Cu2   Cu    Cu3+1 0.500010 0.500010 0.359340 1.027549
H1    H     H_    0.900210 0.311577 0.614991 0.166255
H2    H     H_    0.527709 0.937213 0.986907 0.188004
H3    H     H_    0.444494 0.811727 0.790601 0.202130
H4    H     H_    0.440045 0.871478 0.291131 0.186688
H5    H     H_    0.356464 0.353950 0.123939 0.191187
H6    H     H_    0.783286 0.836303 0.846468 0.205309
H7    H     H_    0.671411 0.669090 0.741893 0.237492
H8    H     H_    0.358214 0.352159 0.866908 0.168954
H9    H     H_    0.934653 0.681915 0.623527 0.174653
H10   H     H_    0.097555 0.680670 0.386345 0.189703
H11   H     H_    0.926625 0.490502 0.257876 0.193234
H12   H     H_    0.660872 0.226478 0.717572 0.152494
N1    N     N_R   0.501210 0.501210 0.147910 -0.192858
N2    N     N_R   0.501250 0.501290 0.852040 -0.202699
O1    O     O_R   0.499990 0.319640 0.618810 -0.598480
O2    O     O_R   0.500000 0.319660 0.381240 -0.530821
O3    O     O_R   0.316850 0.499960 0.618770 -0.558963
O4    O     O_R   0.316860 0.499980 0.381190 -0.567164
O5    O     O_R   0.500000 0.680340 0.618760 -0.621044
O6    O     O_R   0.500010 0.680360 0.381190 -0.559586
O7    O     O_R   0.683140 0.500020 0.618810 -0.615084
O8    O     O_R   0.683150 0.500040 0.381230 -0.542576
Br1   Br    Br    0.748087 0.732076 0.316449 -0.471551
Br2   Br    Br    0.818355 0.944178 0.114265 -0.384893
Br3   Br    Br    0.086572 0.504052 0.826564 -0.497037
O9    O     O_3   0.070428 0.292428 0.366202 -0.682770
H13   H     H_    0.991653 0.245033 0.331529 0.353264
Br4   Br    Br    0.414325 0.112546 0.206130 -0.470509
O10   O     O_3   0.655849 0.155124 0.979112 -0.660799
H14   H     H_    0.695168 0.236385 0.948956 0.328718

loop_
_geom_bond_atom_site_label_1
_geom_bond_atom_site_label_2
_ccdc_geom_bond_type
C12   O4    A    
C1    O2    A    
C29   C30   S    
C4    C12   S    
C11   C13   A    
Cu2   N1    S    
C23   O5    A    
C19   C20   A    
C1    C11   S    
C2    H11   S    
C2    C30   S    
C30   H10   S    
C24   N2    A    
C20   C21   A    
C15   C23   S    
C12   O3    A    
C18   H6    S    
C16   Br1   S    
C5    C10   A    
C13   Br4   S    
Cu1   O1    S    
C13   C14   A    
C27   H1    S    
C25   C28   S    
C14   H4    S    
Cu2   O2    S    
C17   Br2   S    
Cu2   O4    S    
C23   O6    A    
C6    C7    A    
C19   H7    S    
C25   O8    A    
Cu1   O3    S    
C21   N1    A    
C5    C6    A    
C6    O10   S    
Cu2   O8    S    
C28   C29   S    
C24   H8    S    
C5    H12   S    
C25   O7    A    
C17   C18   A    
C2    C3    S    
C3    C27   S    
C26   C27   S    
O10   H14   S    
C26   Br3   S    
C22   C24   A    
C4    C26   S    
Cu1   O7    S    
C16   C17   A    
C10   C11   A    
C3    C4    S    
C3    O9    S    
C20   N2    A    
C7    C8    A    
C22   N1    A    
C7    H2    S    
C26   C29   S    
C1    O1    A    
C18   C19   A    
C9    C10   A    
C27   C28   S    
C14   C15   A    
Cu2   O6    S    
C2    C28   S    
C29   H9    S    
O9    H13   S    
C9    C15   A    
C22   H5    S    
C16   C21   A    
C8    H3    S    
C4    C30   S    
Cu1   Cu2   S    
Cu1   O5    S    
C8    C9    A    
Cu1   N2    S    
