data_mof_unit_67821.cif
_audit_creation_date              2013-03-05T15:41:37-0500
_audit_creation_method            fapswitch 2.2
_symmetry_space_group_name_H-M    P1
_symmetry_Int_Tables_number       1
_space_group_crystal_system       triclinic
_cell_length_a                    7.998772
_cell_length_b                    9.013419
_cell_length_c                    15.670693
_cell_angle_alpha                 89.207463
_cell_angle_beta                  93.792044
_cell_angle_gamma                 92.859897
_cell_volume                      1125.85827688

loop_
_atom_site_label
_atom_site_type_symbol
_atom_site_description
_atom_site_fract_x
_atom_site_fract_y
_atom_site_fract_z
_atom_type_partial_charge
O1    O     O_R   0.389240 0.738570 0.505550 -0.550627
O2    O     O_R   0.678400 0.711630 0.491050 -0.621229
C1    C     C_R   0.543235 0.793202 0.496545 0.960867
O3    O     O_R   0.355360 0.513470 0.630110 -0.643369
O4    O     O_R   0.644510 0.486530 0.615610 -0.607509
C2    C     C_R   0.512590 0.497047 0.661228 0.854802
Zn1   Zn    Zn3+2 0.306930 0.517990 0.509680 0.980796
Zn2   Zn    Zn3+2 0.693070 0.482010 0.490320 0.959058
O5    O     O_R   0.321600 0.288370 0.508950 -0.599936
O6    O     O_R   0.610760 0.261430 0.494450 -0.644532
O7    O     O_R   0.355490 0.513470 0.384390 -0.654347
O8    O     O_R   0.644640 0.486530 0.369890 -0.625305
C3    C     C_R   0.455264 0.207191 0.500831 0.826352
C4    C     C_R   0.488344 0.511466 0.339190 0.900801
C5    C     C_3   0.336669 0.602142 0.920949 0.030862
C6    C     C_3   0.672612 0.655014 0.962184 0.217999
C7    C     C_3   0.649409 0.670746 0.065524 0.221798
C8    C     C_1   0.460034 0.549363 0.251284 -0.152566
C9    C     C_3   0.523696 0.542119 0.917344 -0.061700
C10   C     C_3   0.325271 0.629674 0.023072 0.065424
C11   C     C_3   0.481346 0.569643 0.083780 -0.170400
C12   C     C_3   0.493536 0.395340 0.065973 0.231991
C13   C     C_3   0.515699 0.382936 0.966263 0.119195
C14   C     C_1   0.454336 0.572776 0.175636 0.162683
C15   C     C_1   0.547912 0.519031 0.827006 0.138933
C16   C     C_1   0.543710 0.503394 0.751102 -0.231964
H1    H     H_    0.399300 0.331298 0.944027 0.082432
H2    H     H_    0.208814 0.573273 0.040059 0.156533
C17   C     C_2   0.562297 0.956461 0.496322 -0.480034
H3    H     H_    0.689558 0.004262 0.504673 0.178940
C18   C     C_2   0.428648 0.045657 0.492627 0.160112
N1    N     N_2   0.950340 0.457950 0.477370 -0.079429
N2    N     N_2   0.049660 0.542050 0.522630 -0.147834
H4    H     H_    0.994149 0.595886 0.570049 0.190473
N3    N     N_R   0.289538 0.779983 0.045400 0.255414
O9    O     O_R   0.215079 0.802065 0.115025 -0.418212
O10   O     O_R   0.357985 0.892289 0.006934 -0.467858
C19   C     C_3   0.190294 0.480857 0.888998 -0.338871
C20   C     C_3   0.205184 0.380794 0.810288 -0.468872
C21   C     C_3   0.048610 0.280209 0.794623 -0.782911
H5    H     H_    0.029460 0.212151 0.852949 0.282993
H6    H     H_    0.938248 0.347767 0.778739 0.305446
H7    H     H_    0.063595 0.206554 0.739761 0.252057
H8    H     H_    0.214605 0.448643 0.752377 0.266201
H9    H     H_    0.312303 0.307529 0.815972 0.246768
H10   H     H_    0.154264 0.406520 0.941824 0.225104
H11   H     H_    0.076482 0.537425 0.869968 0.297354
N4    N     N_R   0.632461 0.328869 0.120528 0.248937
O11   O     O_R   0.612402 0.294988 0.200331 -0.441553
O12   O     O_R   0.767150 0.283040 0.089794 -0.339919
N5    N     N_R   0.259732 0.988166 0.473184 0.230401
O13   O     O_R   0.141176 0.019861 0.521806 -0.440780
O14   O     O_R   0.220607 0.922848 0.400555 -0.402630
C22   C     C_3   0.007175 0.389843 0.401946 -0.171498
C23   C     C_3   0.909421 0.243087 0.380534 -0.338080
C24   C     C_3   0.973473 0.173553 0.301534 -0.780468
H12   H     H_    0.108807 0.152150 0.311821 0.273213
H13   H     H_    0.902036 0.066997 0.287322 0.291137
H14   H     H_    0.955860 0.249863 0.245787 0.279878
H15   H     H_    0.922577 0.164829 0.435482 0.266690
H16   H     H_    0.774743 0.259364 0.366580 0.288523
H17   H     H_    0.995241 0.467052 0.347441 0.164672
H18   H     H_    0.135969 0.362094 0.410423 0.246190
C25   C     C_3   0.289746 0.747159 0.863667 -0.284942
C26   C     C_3   0.228788 0.739315 0.768243 -0.464284
C27   C     C_3   0.195351 0.893606 0.731446 -0.846444
H19   H     H_    0.107079 0.949449 0.770398 0.263438
H20   H     H_    0.314033 0.962937 0.730177 0.264431
H21   H     H_    0.138363 0.882683 0.665291 0.301315
H22   H     H_    0.326021 0.696941 0.731240 0.257700
H23   H     H_    0.109913 0.671974 0.757327 0.238265
H24   H     H_    0.184964 0.799348 0.891830 0.283022
H25   H     H_    0.386776 0.833546 0.864431 0.229597
N6    N     N_R   0.838060 0.595337 0.952449 0.165716
O15   O     O_R   0.863543 0.455961 0.964236 -0.406817
O16   O     O_R   0.968938 0.686042 0.961820 -0.535955
C28   C     C_3   0.687811 0.813045 0.915177 -0.291644
C29   C     C_3   0.708481 0.815906 0.817532 -0.451752
C30   C     C_3   0.747730 0.971488 0.783702 -0.795189
H26   H     H_    0.635178 0.038340 0.785121 0.297034
H27   H     H_    0.852758 0.024149 0.823129 0.284483
H28   H     H_    0.783144 0.966254 0.716489 0.243726
H29   H     H_    0.810326 0.743307 0.801987 0.261159
H30   H     H_    0.591726 0.780526 0.781212 0.227020
H31   H     H_    0.594733 0.887166 0.932596 0.266671
H32   H     H_    0.801132 0.876549 0.941058 0.281679
N7    N     N_R   0.633822 0.828963 0.091470 0.256832
O17   O     O_R   0.540914 0.860738 0.153206 -0.330935
O18   O     O_R   0.756091 0.926040 0.079444 -0.373567
C31   C     C_3   0.815379 0.629752 0.121810 -0.313755
C32   C     C_3   0.822276 0.649491 0.219707 -0.438955
C33   C     C_3   0.990884 0.715434 0.256814 -0.704582
H33   H     H_    0.013200 0.829932 0.231680 0.306718
H34   H     H_    0.988821 0.722639 0.327397 0.268072
H35   H     H_    0.094156 0.644770 0.241032 0.266210
H36   H     H_    0.727679 0.723254 0.240684 0.282347
H37   H     H_    0.801221 0.538110 0.248032 0.263142
H38   H     H_    0.862894 0.521523 0.109451 0.249956
H39   H     H_    0.916178 0.706883 0.101240 0.295680
N8    N     N_R   0.623360 0.265343 0.939864 0.285319
O19   O     O_R   0.604461 0.134480 0.974274 -0.342305
O20   O     O_R   0.693742 0.272582 0.867514 -0.429449
C34   C     C_3   0.322483 0.311601 0.094858 -0.552519
C35   C     C_3   0.281873 0.153706 0.065956 -0.242296
C36   C     C_3   0.095126 0.109586 0.069189 -0.649068
H40   H     H_    0.058498 0.105080 0.136082 0.276074
H41   H     H_    0.019161 0.189070 0.030766 0.289118
H42   H     H_    0.066041 0.000052 0.039301 0.305301
H43   H     H_    0.308192 0.140430 0.998751 0.266569
H44   H     H_    0.357610 0.080542 0.108840 0.348072
H45   H     H_    0.320885 0.307481 0.165621 0.241625
H46   H     H_    0.208995 0.369146 0.078652 0.189574

loop_
_geom_bond_atom_site_label_1
_geom_bond_atom_site_label_2
_geom_bond_distance
_ccdc_geom_bond_type
C27   H20   1.111327 S    
C23   C24   1.524894 S    
C4    C8    1.420922 S    
C12   N4    1.500430 S    
N3    O9    1.299453 A    
N7    O17   1.301635 A    
C5    C25   1.620832 S    
C2    C16   1.415353 S    
C28   C29   1.549628 S    
Zn1   O7    2.027820 S    
C36   H41   1.108210 S    
N6    O16   1.297492 A    
C6    N6    1.471033 S    
N3    O10   1.288111 A    
O4    C2    1.321026 A    
O7    C4    1.316487 A    
C27   H21   1.108174 S    
C22   H18   1.071536 S    
C26   H22   1.087391 S    
C24   H12   1.109913 S    
C34   H45   1.109906 S    
C6    C28   1.597449 S    
C1    C17   1.471797 S    
O5    C3    1.339134 A    
N8    O19   1.296255 A    
C32   H36   1.100802 S    
C5    C9    1.620701 S    
C10   N3    1.450718 S    
C29   H29   1.111314 S    
C21   H7    1.109772 S    
C6    C7    1.650995 S    
C25   H25   1.071220 S    
C13   H1    1.059822 S    
C20   H9    1.105853 S    
C21   H6    1.110141 S    
C13   N8    1.478679 S    
C28   H31   1.075505 S    
O1    Zn1   2.064453 S    
C11   C12   1.608305 S    
Zn1   N2    2.103312 S    
C5    C10   1.632024 S    
O3    Zn1   1.901600 S    
N1    C22   1.448962 S    
C35   C36   1.530407 S    
C19   C20   1.552391 S    
C36   H42   1.106192 S    
N6    O15   1.291505 A    
N5    O13   1.300018 A    
Zn2   N1    2.103312 S    
O3    C2    1.332981 A    
C20   C21   1.517533 S    
C30   H27   1.101126 S    
C29   C30   1.517780 S    
C22   H17   1.096517 S    
C15   C16   1.197790 T    
C26   H23   1.107049 S    
C33   H35   1.110441 S    
C7    C11   1.625060 S    
C12   C34   1.617403 S    
C34   H46   1.081853 S    
O1    C1    1.319161 A    
C9    C13   1.617793 S    
C5    C19   1.620639 S    
C17   H3    1.085876 S    
C30   H28   1.110865 S    
Zn2   O8    1.901599 S    
C33   H34   1.110142 S    
N2    H4    1.029518 S    
C32   H37   1.101785 S    
C19   H11   1.088049 S    
C21   H5    1.108521 S    
O8    C4    1.338059 A    
C28   H32   1.104431 S    
N7    O18   1.300781 A    
C8    C14   1.199510 T    
C31   H39   1.099795 S    
C32   C33   1.528442 S    
N8    O20   1.298209 A    
Zn1   O5    2.079054 S    
C22   C23   1.532346 S    
N4    O11   1.301543 A    
C7    N7    1.501677 S    
C3    C18   1.467082 S    
O2    Zn2   2.079055 S    
C7    C31   1.600615 S    
C18   N5    1.437684 S    
O6    C3    1.323029 A    
O4    Zn2   2.027820 S    
C20   H8    1.091926 S    
C10   H2    1.085734 S    
C36   H40   1.106625 S    
C24   H14   1.110349 S    
N1    N2    1.260567 D    
O2    C1    1.345469 A    
C17   C18   1.367047 D    
C25   C26   1.543331 S    
C35   H44   1.107818 S    
C31   C32   1.543894 S    
C35   H43   1.096854 S    
C6    C9    1.654138 S    
C23   H16   1.101612 S    
N4    O12   1.296849 A    
C33   H33   1.109828 S    
C24   H13   1.110349 S    
C27   H19   1.106996 S    
C25   H24   1.101144 S    
C9    C15   1.460596 S    
C19   H10   1.101927 S    
C30   H26   1.109609 S    
C29   H30   1.096725 S    
C10   C11   1.628617 S    
Zn2   O6    2.064453 S    
C26   C27   1.527288 S    
C11   C14   1.470496 S    
C34   C35   1.512720 S    
C12   C13   1.590240 S    
N5    O14   1.301147 A    
C23   H15   1.108460 S    
C31   H38   1.088823 S    
