data_mof_unit_7906.cif
_audit_creation_date              2012-12-10T19:46:53-0500
_audit_creation_method            fapswitch 2.2
_symmetry_space_group_name_H-M    P1
_symmetry_Int_Tables_number       1
_space_group_crystal_system       triclinic
_cell_length_a                    10.910981
_cell_length_b                    10.910552
_cell_length_c                    13.129728
_cell_angle_alpha                 90.985487
_cell_angle_beta                  90.682797
_cell_angle_gamma                 90.007534
_cell_volume                      1562.68392433

loop_
_atom_site_label
_atom_site_type_symbol
_atom_type_description
_atom_site_fract_x
_atom_site_fract_y
_atom_site_fract_z
_atom_type_partial_charge
C1    C     C_R   0.494706 0.259563 0.498969 0.822609
C2    C     C_R   0.505293 0.740437 0.501031 0.822610
C3    C     C_R   0.872967 0.493414 0.501846 -0.097076
C4    C     C_R   0.127033 0.506586 0.498154 -0.097076
C5    C     C_R   0.941267 0.464569 0.590259 -0.003703
C6    C     C_R   0.058733 0.535431 0.409741 -0.003702
C7    C     C_R   0.292133 0.217852 0.200286 -0.175508
C8    C     C_R   0.707868 0.782150 0.799714 -0.175507
C9    C     C_R   0.324341 0.169736 0.294848 -0.117432
C10   C     C_R   0.675659 0.830266 0.705152 -0.117433
C11   C     C_R   0.438722 0.113246 0.308638 0.079506
C12   C     C_R   0.561277 0.886754 0.691361 0.079506
C13   C     C_R   0.520075 0.104947 0.226854 -0.158200
C14   C     C_R   0.479923 0.895051 0.773145 -0.158199
C15   C     C_R   0.488381 0.154007 0.132119 0.240139
C16   C     C_R   0.511617 0.845991 0.867881 0.240140
C17   C     C_R   0.373655 0.210198 0.119108 -0.117665
C18   C     C_R   0.626345 0.789802 0.880891 -0.117665
C19   C     C_R   0.479221 0.931544 0.410856 -0.251098
C20   C     C_R   0.520778 0.068456 0.589144 -0.251098
C21   C     C_R   0.505847 0.872972 0.502431 -0.094111
C22   C     C_R   0.494152 0.127028 0.497569 -0.094111
C23   C     C_R   0.259594 0.505687 0.499328 0.820078
C24   C     C_R   0.740406 0.494313 0.500672 0.820079
C25   C     C_R   0.528091 0.941943 0.592669 0.010722
C26   C     C_R   0.471907 0.058057 0.407331 0.010722
C27   C     C_1   0.500110 0.500054 0.173593 0.159045
C28   C     C_1   0.499890 0.499946 0.826407 0.159045
C29   C     C_1   0.500077 0.500040 0.050679 -0.096284
C30   C     C_1   0.499923 0.499960 0.949321 -0.096284
C31   C     C_R   0.236404 0.721964 0.220205 -0.128316
C32   C     C_R   0.763597 0.278037 0.779795 -0.128317
C33   C     C_R   0.183705 0.684907 0.311252 -0.100982
C34   C     C_R   0.816296 0.315093 0.688748 -0.100984
C35   C     C_R   0.115047 0.575947 0.313803 0.129497
C36   C     C_R   0.884953 0.424053 0.686197 0.129497
C37   C     C_R   0.097636 0.506470 0.223743 -0.160064
C38   C     C_R   0.902363 0.493531 0.776257 -0.160063
C39   C     C_R   0.150641 0.543703 0.133014 -0.147120
C40   C     C_R   0.849358 0.456298 0.866985 -0.147120
C41   C     C_R   0.220043 0.651189 0.131325 -0.114976
C42   C     C_R   0.779958 0.348811 0.868675 -0.114976
C43   C     C_R   0.932108 0.527181 0.412639 -0.242466
C44   C     C_R   0.067892 0.472820 0.587361 -0.242466
Cu1   Cu    Cu3+1 0.499990 0.499990 0.592680 0.977888
Cu2   Cu    Cu3+1 0.500010 0.500010 0.407320 0.977888
H1    H     H_    0.261121 0.679330 0.061080 0.132143
H2    H     H_    0.738879 0.320671 0.938920 0.132143
H3    H     H_    0.608288 0.060860 0.237130 0.132531
H4    H     H_    0.391709 0.939136 0.762869 0.132530
H5    H     H_    0.461166 0.878456 0.341684 0.154287
H6    H     H_    0.538832 0.121544 0.658316 0.154288
H7    H     H_    0.289878 0.805450 0.218476 0.124800
H8    H     H_    0.710124 0.194550 0.781524 0.124800
H9    H     H_    0.196882 0.740414 0.379710 0.103671
H10   H     H_    0.803120 0.259586 0.620290 0.103671
H11   H     H_    0.043837 0.423051 0.224130 0.116405
H12   H     H_    0.956162 0.576950 0.775870 0.116404
H13   H     H_    0.137985 0.489188 0.064025 0.125843
H14   H     H_    0.862013 0.510813 0.935974 0.125843
H15   H     H_    0.879252 0.550696 0.345234 0.158355
H16   H     H_    0.120748 0.449304 0.654766 0.158355
H17   H     H_    0.347370 0.248363 0.046453 0.129058
H18   H     H_    0.652630 0.751636 0.953546 0.129057
H19   H     H_    0.203648 0.260659 0.189718 0.134863
H20   H     H_    0.796354 0.739345 0.810281 0.134862
H21   H     H_    0.260187 0.175814 0.357061 0.117438
H22   H     H_    0.739813 0.824190 0.642940 0.117438
N1    N     N_1   0.500030 0.500030 0.268070 -0.132014
N2    N     N_1   0.499970 0.499970 0.731930 -0.132014
O1    O     O_R   0.499980 0.319630 0.578260 -0.588903
O2    O     O_R   0.500020 0.680370 0.421740 -0.588903
O3    O     O_R   0.500000 0.319650 0.421740 -0.567472
O4    O     O_R   0.500000 0.680350 0.578260 -0.567473
O5    O     O_R   0.319630 0.500000 0.578260 -0.588046
O6    O     O_R   0.680370 0.500000 0.421740 -0.588045
O7    O     O_R   0.319650 0.500020 0.421740 -0.567167
O8    O     O_R   0.680350 0.499980 0.578260 -0.567166
C45   C     C_3   0.577875 0.146553 0.046481 -0.931078
H23   H     H_    0.540690 0.189146 0.976343 0.232802
H24   H     H_    0.663508 0.194819 0.069728 0.230939
H25   H     H_    0.599979 0.049199 0.029043 0.247063
C46   C     C_3   0.422123 0.853442 0.953518 -0.931079
H26   H     H_    0.459308 0.810849 0.023655 0.232802
H27   H     H_    0.400017 0.950796 0.970957 0.247062
H28   H     H_    0.336491 0.805175 0.930270 0.230939

loop_
_geom_bond_atom_site_label_1
_geom_bond_atom_site_label_2
_ccdc_geom_bond_type
C33   H9    S    
C34   H10   S    
C40   H14   S    
Cu1   O1    S    
Cu2   O6    S    
C39   C41   A    
Cu1   Cu2   S    
C8    H20   S    
C3    C43   A    
C1    O1    A    
C19   C21   A    
C7    H19   S    
C20   C25   A    
C5    C36   S    
C6    C35   S    
C7    C9    A    
C19   C26   A    
Cu2   N1    S    
C38   H12   S    
C15   C45   S    
C7    C17   A    
C31   C33   A    
Cu1   O8    S    
Cu2   O2    S    
C27   N1    T    
C40   C42   A    
C1    C22   S    
C3    C24   S    
C2    O2    A    
C32   H8    S    
C4    C6    A    
C23   O5    A    
C45   H24   S    
C4    C23   S    
C24   O6    A    
C4    C44   A    
C11   C26   S    
C44   H16   S    
C16   C46   S    
C31   H7    S    
Cu1   O4    S    
C32   C34   A    
C9    H21   S    
C29   C30   T    
C45   H25   S    
C46   H26   S    
C39   H13   S    
C2    C21   S    
C41   H1    S    
C16   C18   A    
C42   H2    S    
C23   O7    A    
C9    C11   A    
C10   C12   A    
C13   H3    S    
C24   O8    A    
C46   H27   S    
C5    C44   A    
C12   C14   A    
C6    C43   A    
C13   C15   A    
C14   C16   A    
C43   H15   S    
C15   C17   A    
C21   C25   A    
C31   C41   A    
C35   C37   A    
Cu1   N2    S    
C28   N2    T    
C20   C22   A    
C3    C5    A    
C2    O4    A    
Cu2   O7    S    
C10   H22   S    
C20   H6    S    
C12   C25   S    
Cu1   O5    S    
C1    O3    A    
C28   C30   S    
C37   C39   A    
C17   H17   S    
C38   C40   A    
C11   C13   A    
C18   H18   S    
C14   H4    S    
C27   C29   S    
C36   C38   A    
C33   C35   A    
C34   C36   A    
C8    C18   A    
C45   H23   S    
C19   H5    S    
C46   H28   S    
C8    C10   A    
C22   C26   A    
C32   C42   A    
Cu2   O3    S    
C37   H11   S    
