data_mof_unit_12721.cif
_audit_creation_date              2013-03-05T15:45:46-0500
_audit_creation_method            fapswitch 2.2
_symmetry_space_group_name_H-M    P1
_symmetry_Int_Tables_number       1
_space_group_crystal_system       triclinic
_cell_length_a                    19.342876
_cell_length_b                    11.236497
_cell_length_c                    18.644873
_cell_angle_alpha                 89.729591
_cell_angle_beta                  91.929469
_cell_angle_gamma                 90.392606
_cell_volume                      4049.95818803

loop_
_atom_site_label
_atom_site_type_symbol
_atom_site_description
_atom_site_fract_x
_atom_site_fract_y
_atom_site_fract_z
_atom_type_partial_charge
O1    O     O_R   0.214270 0.709000 0.827470 -0.418707
O2    O     O_R   0.785730 0.709000 0.172530 -0.422795
O3    O     O_R   0.714270 0.209000 0.827470 -0.418916
O4    O     O_R   0.285730 0.209000 0.172530 -0.423454
O5    O     O_R   0.236160 0.958490 0.823130 -0.446139
O6    O     O_R   0.763840 0.958490 0.176870 -0.444671
O7    O     O_R   0.736160 0.458490 0.823130 -0.444388
O8    O     O_R   0.263840 0.458490 0.176870 -0.455912
C1    C     C_R   0.272928 0.044671 0.853035 0.576421
C2    C     C_R   0.725390 0.037204 0.144145 0.595927
C3    C     C_R   0.772920 0.544692 0.853021 0.581889
C4    C     C_R   0.225393 0.537208 0.144147 0.580091
O9    O     O_R   0.332080 0.075470 0.831280 -0.461122
O10   O     O_R   0.667920 0.075470 0.168720 -0.433395
O11   O     O_R   0.832080 0.575470 0.831280 -0.457142
O12   O     O_R   0.167920 0.575470 0.168720 -0.444826
O13   O     O_R   0.446300 0.918110 0.826620 -0.453748
O14   O     O_R   0.553700 0.918110 0.173380 -0.461053
O15   O     O_R   0.946300 0.418110 0.826620 -0.457216
O16   O     O_R   0.053700 0.418110 0.173380 -0.472829
C5    C     C_R   0.438246 0.815014 0.861525 0.553571
C6    C     C_R   0.531876 0.822222 0.144227 0.604351
C7    C     C_R   0.938240 0.315013 0.861526 0.552396
C8    C     C_R   0.031876 0.322222 0.144226 0.588735
O17   O     O_R   0.457110 0.716200 0.831760 -0.456810
O18   O     O_R   0.542890 0.716200 0.168240 -0.476744
O19   O     O_R   0.957110 0.216200 0.831760 -0.458568
O20   O     O_R   0.042890 0.216200 0.168240 -0.482973
O21   O     O_R   0.320980 0.624310 0.823030 -0.524622
O22   O     O_R   0.679020 0.624310 0.176970 -0.492181
O23   O     O_R   0.820980 0.124310 0.823030 -0.522093
O24   O     O_R   0.179020 0.124310 0.176970 -0.496264
C9    C     C_R   0.258823 0.631458 0.848474 0.574299
C10   C     C_R   0.738829 0.635387 0.148853 0.604250
C11   C     C_R   0.758821 0.131450 0.848469 0.575107
C12   C     C_R   0.238836 0.135371 0.148864 0.601362
O25   O     O_R   0.213890 0.710430 0.665540 -0.461859
O26   O     O_R   0.786110 0.710430 0.334460 -0.481994
O27   O     O_R   0.713890 0.210430 0.665540 -0.462679
O28   O     O_R   0.286110 0.210430 0.334460 -0.456018
O29   O     O_R   0.235810 0.959820 0.673020 -0.510339
O30   O     O_R   0.764190 0.959820 0.326980 -0.482902
O31   O     O_R   0.735810 0.459820 0.673020 -0.501974
O32   O     O_R   0.264190 0.459820 0.326980 -0.508382
C13   C     C_R   0.269805 0.047151 0.647627 0.574800
C14   C     C_R   0.710141 0.998071 0.361521 0.526061
C15   C     C_R   0.771445 0.543730 0.644919 0.590827
C16   C     C_R   0.230573 0.550291 0.351308 0.589466
O33   O     O_R   0.331700 0.076900 0.669350 -0.444534
O34   O     O_R   0.668300 0.076900 0.330650 -0.425148
O35   O     O_R   0.831700 0.576900 0.669350 -0.433985
O36   O     O_R   0.168300 0.576900 0.330650 -0.438019
O37   O     O_R   0.445950 0.919440 0.676520 -0.439598
O38   O     O_R   0.554050 0.919440 0.323480 -0.449997
O39   O     O_R   0.945950 0.419440 0.676520 -0.428492
O40   O     O_R   0.054050 0.419440 0.323480 -0.430971
C17   C     C_R   0.471015 0.824300 0.648810 0.598235
C18   C     C_R   0.557254 0.818737 0.360884 0.524114
C19   C     C_R   0.969985 0.322509 0.647651 0.590069
C20   C     C_R   0.031143 0.321801 0.353117 0.582153
O41   O     O_R   0.456730 0.717630 0.669840 -0.446918
O42   O     O_R   0.543270 0.717630 0.330160 -0.455248
O43   O     O_R   0.956730 0.217630 0.669840 -0.473499
O44   O     O_R   0.043270 0.217630 0.330160 -0.485663
O45   O     O_R   0.320620 0.625640 0.672920 -0.457104
O46   O     O_R   0.679380 0.625640 0.327080 -0.488826
O47   O     O_R   0.820620 0.125640 0.672920 -0.452643
O48   O     O_R   0.179380 0.125640 0.327080 -0.457078
C21   C     C_R   0.260481 0.639731 0.642676 0.567924
C22   C     C_R   0.742476 0.632850 0.353729 0.560655
C23   C     C_R   0.757099 0.130490 0.647546 0.579245
C24   C     C_R   0.240678 0.140739 0.357116 0.595760
Cr1   Cr    Cr6+3 0.229630 0.835900 0.747350 1.185178
Cr2   Cr    Cr6+3 0.770370 0.835900 0.252650 1.178581
Cr3   Cr    Cr6+3 0.729630 0.335900 0.747350 1.198461
Cr4   Cr    Cr6+3 0.270370 0.335900 0.252650 1.195649
Cr5   Cr    Cr6+3 0.387410 0.989850 0.750850 1.215658
Cr6   Cr    Cr6+3 0.612590 0.989850 0.249150 1.202606
Cr7   Cr    Cr6+3 0.887410 0.489850 0.750850 1.220300
Cr8   Cr    Cr6+3 0.112590 0.489850 0.249150 1.213612
Cr9   Cr    Cr6+3 0.385800 0.677120 0.749340 1.171944
Cr10  Cr    Cr6+3 0.614200 0.677120 0.250660 1.143458
Cr11  Cr    Cr6+3 0.885800 0.177120 0.749340 1.169151
Cr12  Cr    Cr6+3 0.114200 0.177120 0.250660 1.167952
O49   O     O_3   0.334280 0.834290 0.749180 -0.365327
O50   O     O_3   0.665720 0.834290 0.250820 -0.388946
O51   O     O_3   0.834280 0.334290 0.749180 -0.365286
O52   O     O_3   0.165720 0.334290 0.250820 -0.351842
C25   C     C_3   0.470937 0.936231 0.028830 -0.060541
C26   C     C_3   0.513680 0.895338 0.966088 -0.105299
C27   C     C_3   0.970931 0.436234 0.028833 -0.059832
C28   C     C_3   0.013671 0.395329 0.966093 -0.106069
C29   C     C_3   0.410942 0.854449 0.001110 0.025726
C30   C     C_3   0.544139 0.792885 0.010951 0.022902
C31   C     C_3   0.910931 0.354454 0.001117 0.025747
C32   C     C_3   0.044127 0.292879 0.010959 0.024897
H1    H     H_    0.477869 0.026978 0.047891 0.266252
H2    H     H_    0.541832 0.953877 0.929877 0.240112
H3    H     H_    0.977873 0.526987 0.047886 0.266433
H4    H     H_    0.041832 0.453860 0.929885 0.239998
C33   C     C_3   0.455476 0.814137 0.939573 -0.017242
C34   C     C_3   0.500531 0.832842 0.072578 0.000088
C35   C     C_3   0.955464 0.314130 0.939579 -0.017558
C36   C     C_3   0.000522 0.332844 0.072583 0.003710
C37   C     C_3   0.484549 0.710619 0.985536 0.111436
C38   C     C_3   0.440147 0.752992 0.049016 0.094885
C39   C     C_3   0.984536 0.210614 0.985548 0.111565
C40   C     C_3   0.940136 0.252997 0.049026 0.094838
C41   C     C_R   0.296249 0.521902 0.956623 -0.126183
C42   C     C_R   0.692499 0.547597 0.033239 -0.096696
C43   C     C_R   0.796249 0.021895 0.956616 -0.124396
C44   C     C_R   0.192523 0.047552 0.033269 -0.096564
H5    H     H_    0.341001 0.493418 0.928600 0.223066
H6    H     H_    0.643209 0.527390 0.056526 0.212629
H7    H     H_    0.841002 0.993411 0.928597 0.223779
H8    H     H_    0.143235 0.027336 0.056559 0.212565
C45   C     C_R   0.294481 0.509741 0.031253 0.151117
C46   C     C_R   0.697006 0.549203 0.958179 0.176627
C47   C     C_R   0.794477 0.009740 0.031248 0.149840
C48   C     C_R   0.197024 0.049153 0.958213 0.177966
C49   C     C_R   0.238991 0.564077 0.067889 -0.015164
C50   C     C_R   0.757996 0.587507 0.926347 -0.006425
C51   C     C_R   0.738985 0.064070 0.067881 -0.019143
C52   C     C_R   0.258009 0.087473 0.926370 -0.006283
C53   C     C_R   0.184954 0.620052 0.026120 0.170172
C54   C     C_R   0.814245 0.629529 0.971117 0.157641
C55   C     C_R   0.684947 0.120034 0.026105 0.167780
C56   C     C_R   0.314261 0.129496 0.971137 0.158654
C57   C     C_R   0.181820 0.606091 0.951093 0.195887
C58   C     C_R   0.812459 0.611530 0.046093 0.202460
C59   C     C_R   0.681816 0.106068 0.951076 0.194582
C60   C     C_R   0.312478 0.111501 0.046114 0.200956
C61   C     C_R   0.242790 0.573845 0.916961 -0.025109
C62   C     C_R   0.749058 0.585629 0.076930 -0.008308
C63   C     C_R   0.742788 0.073828 0.916951 -0.023104
C64   C     C_R   0.249078 0.085595 0.076953 -0.008814
C65   C     C_R   0.546806 0.743154 0.557265 0.065032
C66   C     C_R   0.553395 0.727475 0.483551 0.031789
C67   C     C_R   0.008476 0.218751 0.538650 0.061819
C68   C     C_R   0.995525 0.217996 0.464427 0.071014
C69   C     C_R   0.537497 0.822853 0.435953 -0.078227
C70   C     C_R   0.505856 0.836668 0.580792 -0.020565
C71   C     C_R   0.005093 0.325472 0.426144 -0.042267
C72   C     C_R   0.999012 0.326673 0.575857 -0.044392
C73   C     C_R   0.502104 0.921723 0.460990 0.144908
C74   C     C_R   0.483080 0.924991 0.531800 0.193487
C75   C     C_R   0.012282 0.430932 0.465467 0.219762
C76   C     C_R   0.994091 0.432043 0.535748 0.225066
C77   C     C_R   0.198247 0.654134 0.527585 0.164186
C78   C     C_R   0.808817 0.644967 0.465632 0.158402
C79   C     C_R   0.671067 0.075034 0.550665 0.153943
C80   C     C_R   0.296566 0.179181 0.476320 0.187411
C81   C     C_R   0.205669 0.671434 0.454981 -0.031985
C82   C     C_R   0.795253 0.658512 0.537348 -0.098474
C83   C     C_R   0.664207 0.053892 0.477698 -0.112115
C84   C     C_R   0.282893 0.181328 0.548489 -0.081000
H9    H     H_    0.162833 0.710743 0.425517 0.262707
H10   H     H_    0.829477 0.714013 0.569553 0.244088
H11   H     H_    0.616522 0.076424 0.450210 0.220196
H12   H     H_    0.312739 0.239099 0.583854 0.227884
C85   C     C_R   0.254098 0.603915 0.419109 -0.020995
C86   C     C_R   0.753823 0.573433 0.570319 -0.023872
C87   C     C_R   0.718690 0.008116 0.439683 -0.068551
C88   C     C_R   0.245873 0.088799 0.577979 -0.029720
C89   C     C_R   0.309859 0.554584 0.457711 -0.103192
C90   C     C_R   0.718543 0.486567 0.527909 -0.090256
C91   C     C_R   0.777481 0.966070 0.477654 -0.139693
C92   C     C_R   0.207426 0.009988 0.533830 -0.092102
H13   H     H_    0.349801 0.507818 0.430132 0.207092
H14   H     H_    0.691612 0.413461 0.553043 0.206578
H15   H     H_    0.817016 0.919038 0.449973 0.205601
H16   H     H_    0.180402 0.934712 0.556260 0.198984
C93   C     C_R   0.310869 0.556306 0.532462 0.155689
C94   C     C_R   0.722626 0.488187 0.453124 0.171345
C95   C     C_R   0.785412 0.986553 0.551598 0.144225
C96   C     C_R   0.209640 0.019677 0.460032 0.169469
C97   C     C_R   0.253416 0.603843 0.567998 -0.008427
C98   C     C_R   0.761787 0.578655 0.422432 0.022828
C99   C     C_R   0.735980 0.055971 0.585666 0.014795
C100  C     C_R   0.253787 0.104824 0.430642 0.038666
I1    I     I_    0.304560 0.831437 0.982593 -0.341366
I2    I     I_    0.651885 0.815553 0.008039 -0.390269
I3    I     I_    0.804543 0.331458 0.982613 -0.341818
I4    I     I_    0.151879 0.315519 0.008081 -0.391480
N1    N     N_R   0.131876 0.674323 0.558308 0.124391
O53   O     O_R   0.092179 0.760192 0.535313 -0.209812
O54   O     O_R   0.107727 0.598124 0.604121 -0.269016
N2    N     N_R   0.874771 0.681312 0.438379 0.124334
O55   O     O_R   0.912319 0.762592 0.470347 -0.207177
O56   O     O_R   0.902184 0.619948 0.387658 -0.245969
N3    N     N_R   0.612752 0.119714 0.587626 0.090351
O57   O     O_R   0.572551 0.199040 0.557350 -0.198012
O58   O     O_R   0.597011 0.075337 0.649635 -0.279492
N4    N     N_R   0.357371 0.243645 0.453185 0.106716
O59   O     O_R   0.389817 0.315551 0.496942 -0.238365
O60   O     O_R   0.392151 0.207457 0.399416 -0.171247
N5    N     N_R   0.370018 0.509398 0.571189 0.132042
O61   O     O_R   0.362831 0.430876 0.622018 -0.283549
O62   O     O_R   0.431748 0.541371 0.553543 -0.253961
N6    N     N_R   0.692982 0.393385 0.409954 0.103942
O63   O     O_R   0.711471 0.378591 0.344118 -0.265412
O64   O     O_R   0.653587 0.313151 0.438524 -0.274388
N7    N     N_R   0.842909 0.937326 0.591895 0.075909
O65   O     O_R   0.834070 0.891409 0.655218 -0.306565
O66   O     O_R   0.903438 0.932310 0.564383 -0.227370
N8    N     N_R   0.169974 0.939218 0.415237 0.061595
O67   O     O_R   0.196745 0.893330 0.358545 -0.314131
O68   O     O_R   0.105167 0.919523 0.427461 -0.241546
I5    I     I_    0.487648 0.528182 0.960826 0.041012
I6    I     I_    0.380155 0.716133 0.143697 -0.093160
I7    I     I_    0.987644 0.028163 0.960874 0.040884
I8    I     I_    0.880171 0.216119 0.143725 -0.095485
N9    N     N_R   0.348402 0.438022 0.064881 0.105356
O69   O     O_R   0.376553 0.459173 0.127700 -0.242522
O70   O     O_R   0.381242 0.366461 0.024634 -0.234798
N10   N     N_R   0.639778 0.511586 0.913846 0.104627
O71   O     O_R   0.617724 0.579769 0.861333 -0.278202
O72   O     O_R   0.623110 0.399602 0.913319 -0.208667
N11   N     N_R   0.848390 0.938012 0.064880 0.104681
O73   O     O_R   0.876558 0.959187 0.127689 -0.239891
O74   O     O_R   0.881213 0.866421 0.024637 -0.235122
N12   N     N_R   0.139796 0.011484 0.913900 0.104886
O75   O     O_R   0.117710 0.079631 0.861384 -0.286707
O76   O     O_R   0.123129 0.899496 0.913418 -0.208843
N13   N     N_R   0.137239 0.698668 0.058985 0.148889
O77   O     O_R   0.074750 0.662741 0.071357 -0.241552
O78   O     O_R   0.160773 0.793989 0.090949 -0.284435
N14   N     N_R   0.872551 0.686987 0.939796 0.159035
O79   O     O_R   0.933435 0.639925 0.945364 -0.250895
O80   O     O_R   0.862406 0.774312 0.894540 -0.268564
N15   N     N_R   0.637226 0.198644 0.058965 0.148650
O81   O     O_R   0.574734 0.162717 0.071321 -0.241157
O82   O     O_R   0.660750 0.293978 0.090924 -0.279989
N16   N     N_R   0.372564 0.186961 0.939813 0.159673
O83   O     O_R   0.433448 0.139899 0.945366 -0.250299
O84   O     O_R   0.362412 0.274299 0.894569 -0.275501
N17   N     N_R   0.118938 0.626733 0.908639 0.102312
O85   O     O_R   0.108771 0.571401 0.847872 -0.300909
O86   O     O_R   0.068719 0.689809 0.932413 -0.168116
N18   N     N_R   0.873893 0.607940 0.092256 0.083544
O87   O     O_R   0.878441 0.527363 0.142629 -0.312954
O88   O     O_R   0.920099 0.692186 0.092620 -0.176977
N19   N     N_R   0.618939 0.126714 0.908613 0.101937
O89   O     O_R   0.608775 0.071387 0.847842 -0.288691
O90   O     O_R   0.568741 0.189869 0.932359 -0.168175
N20   N     N_R   0.373914 0.107956 0.092278 0.083361
O91   O     O_R   0.378473 0.027409 0.142669 -0.301106
O92   O     O_R   0.420116 0.192205 0.092614 -0.175447
I9    I     I_    0.592120 0.619327 0.632702 -0.125067
I10   I     I_    0.555010 0.547586 0.447458 -0.028426
I11   I     I_    0.046063 0.060738 0.590869 -0.052081
I12   I     I_    0.955796 0.059149 0.414504 -0.008575
N21   N     N_R   0.471855 0.005919 0.411818 0.144408
O93   O     O_R   0.506126 0.102028 0.396094 -0.226363
O94   O     O_R   0.418798 0.973888 0.371418 -0.235802
N22   N     N_R   0.426761 0.999268 0.547898 0.112241
O95   O     O_R   0.364479 0.959508 0.534782 -0.379444
O96   O     O_R   0.437396 0.107214 0.570590 -0.186836
N23   N     N_R   0.064521 0.512420 0.448148 0.101737
O97   O     O_R   0.127169 0.471633 0.449483 -0.412254
O98   O     O_R   0.049088 0.612859 0.416811 -0.196351
N24   N     N_R   0.941814 0.513297 0.551069 0.105079
O99   O     O_R   0.879579 0.469946 0.549817 -0.403392
O100  O     O_R   0.956390 0.613241 0.583264 -0.179015

loop_
_geom_bond_atom_site_label_1
_geom_bond_atom_site_label_2
_geom_bond_distance
_ccdc_geom_bond_type
C18   O42   1.297499 A    
C33   C37   1.539707 S    
Cr11  O51   2.033688 S    
N7    O65   1.302297 A    
O4    C12   1.291568 A    
C30   C37   1.536349 S    
N24   O100  1.300612 A    
C47   N11   1.446724 S    
O39   C19   1.312042 A    
C25   C34   1.520316 S    
O20   Cr12  2.077520 S    
O29   C13   1.275617 A    
C70   C74   1.408449 A    
C87   C91   1.402711 A    
C75   C76   1.368322 A    
C68   I12   2.142769 S    
C68   C71   1.414164 A    
O8    Cr4   1.970207 S    
C27   C36   1.520320 S    
C72   C76   1.399471 A    
C31   I3    2.089556 S    
C42   C46   1.405145 A    
N14   O80   1.302679 A    
C73   C74   1.383175 A    
O1    C9    1.280443 A    
O27   Cr3   2.095268 S    
N9    O69   1.297208 A    
C44   C48   1.405062 A    
C71   C75   1.400073 A    
C80   C100  1.434538 A    
N7    O66   1.295650 A    
C58   N18   1.444299 S    
C67   I11   2.140720 S    
C17   C70   1.461660 S    
O24   C12   1.291121 A    
C43   C47   1.399088 A    
C13   C88   1.440951 S    
N10   O72   1.296817 A    
C9    C61   1.470354 S    
C82   H10   1.076475 S    
C59   C63   1.409096 A    
C20   C71   1.468509 S    
O30   C14   1.321575 A    
N21   O93   1.300743 A    
N8    O68   1.298955 A    
C60   C64   1.400096 A    
N1    O54   1.302074 A    
C44   H8    1.083079 S    
O46   Cr10  1.958459 S    
C54   C58   1.413063 A    
C89   C93   1.393429 A    
N19   O89   1.303447 A    
C38   I6    2.181490 S    
O21   C9    1.310391 A    
C27   H3    1.087391 S    
C28   C32   1.529397 S    
C1    C52   1.489566 S    
O23   Cr11  1.977366 S    
N2    O56   1.302255 A    
C46   C50   1.402509 A    
C96   N8    1.434596 S    
C91   H15   1.079417 S    
O32   Cr4   1.976220 S    
C77   C81   1.378804 A    
O44   Cr12  2.106785 S    
C1    O9    1.271975 A    
C28   C35   1.515648 S    
C21   C97   1.453172 S    
C49   C53   1.429739 A    
C86   C90   1.416148 A    
C15   C86   1.458591 S    
C29   I1    2.089501 S    
C7    C35   1.481973 S    
C4    C49   1.483905 S    
C4    O12   1.293565 A    
N6    O63   1.301761 A    
N19   O90   1.297604 A    
N22   O96   1.299264 A    
C56   C60   1.413072 A    
C48   N12   1.422123 S    
C39   C40   1.563496 S    
C26   C30   1.529416 S    
O6    Cr2   1.970207 S    
C7    O19   1.303465 A    
O3    Cr3   2.087341 S    
Cr4   O52   2.023329 S    
C78   C82   1.380601 A    
O2    Cr2   2.099717 S    
C41   H5    1.077293 S    
C52   C56   1.427968 A    
C57   N17   1.448123 S    
Cr9   O49   2.033688 S    
Cr6   O50   2.033319 S    
C79   N3    1.436209 S    
N4    O59   1.295029 A    
O42   Cr10  2.106785 S    
C65   C66   1.396646 A    
Cr5   O49   2.021431 S    
O18   Cr10  2.077520 S    
N17   O85   1.303413 A    
C81   H9    1.074940 S    
C73   N21   1.428711 S    
C58   C62   1.400079 A    
N16   O84   1.302667 A    
C44   C64   1.407020 A    
C53   N13   1.435973 S    
O34   Cr6   2.077578 S    
O13   Cr5   1.958728 S    
N14   O79   1.295025 A    
C40   I8    2.181513 S    
C31   C35   1.529879 S    
C20   O44   1.274201 A    
O7    C3    1.312767 A    
O9    Cr5   2.110833 S    
C94   N6    1.442226 S    
N9    O70   1.287631 A    
C89   H13   1.082723 S    
O24   Cr12  1.986393 S    
N20   O92   1.297298 A    
C90   C94   1.399265 A    
C65   C70   1.401102 A    
O30   Cr2   1.976220 S    
O16   Cr8   1.957792 S    
C93   N5    1.434296 S    
N3    O57   1.301156 A    
O48   Cr12  1.958459 S    
C80   C84   1.380388 A    
C88   C92   1.404097 A    
O32   C16   1.302027 A    
N10   O71   1.302635 A    
N6    O64   1.300230 A    
C2    C51   1.483984 S    
C2    O10   1.293556 A    
C29   C33   1.529848 S    
N11   O73   1.297220 A    
N21   O94   1.302158 A    
O22   C10   1.291100 A    
N8    O67   1.302670 A    
C22   C98   1.454203 S    
O7    Cr3   1.978304 S    
C16   C85   1.460432 S    
O26   Cr2   2.088378 S    
C83   C87   1.392387 A    
Cr10  O50   2.021817 S    
C83   H11   1.071288 S    
O11   Cr7   2.110833 S    
C66   C69   1.416992 A    
C25   C29   1.551712 S    
O13   C5    1.336790 A    
O40   C20   1.307459 A    
C25   H1    1.087366 S    
O48   C24   1.304484 A    
O12   Cr8   2.097653 S    
C50   C54   1.427939 A    
O15   C7    1.336830 A    
N3    O58   1.301612 A    
C26   C33   1.515617 S    
O5    C1    1.312786 A    
C53   C57   1.407603 A    
C29   C38   1.543325 S    
N11   O74   1.287610 A    
O39   Cr7   1.989236 S    
C67   C72   1.415932 A    
C96   C100  1.400064 A    
O45   Cr9   1.957330 S    
N5    O61   1.302019 A    
C10   C62   1.475275 S    
O3    C11   1.280458 A    
O8    C4    1.296546 A    
N22   O95   1.297913 A    
N18   O88   1.297298 A    
C13   O33   1.293171 A    
N15   O82   1.300272 A    
O47   Cr11  1.957330 S    
Cr2   O50   2.023329 S    
N5    O62   1.297103 A    
C45   N9    1.446745 S    
O35   Cr7   2.077779 S    
Cr1   O49   2.023574 S    
Cr7   O51   2.021431 S    
C31   C40   1.543353 S    
C57   C61   1.409132 A    
C37   I5    2.104910 S    
Cr3   O51   2.023574 S    
O26   C22   1.268346 A    
C32   C39   1.536341 S    
O21   Cr9   1.977366 S    
C90   H14   1.082915 S    
C3    O11   1.271958 A    
C14   C87   1.465927 S    
N17   O86   1.297613 A    
C95   C99   1.407809 A    
O37   Cr5   1.989236 S    
O25   C21   1.289908 A    
O23   C11   1.310379 A    
C41   C45   1.399069 A    
C56   N16   1.435493 S    
N16   O83   1.295028 A    
C24   C100  1.441958 S    
C65   I9    2.144238 S    
C11   C63   1.470300 S    
N23   O97   1.297911 A    
N4    O60   1.294601 A    
C51   C55   1.429770 A    
C36   C40   1.522175 S    
C8    O20   1.287289 A    
C28   H4    1.095744 S    
O31   Cr3   1.965821 S    
O14   Cr6   1.957792 S    
O38   C18   1.327100 A    
C92   H16   1.081156 S    
C92   C96   1.381812 A    
C5    O17   1.303436 A    
N20   O91   1.302742 A    
N12   O76   1.296850 A    
O37   C17   1.293827 A    
O22   Cr10  1.986393 S    
O28   C24   1.255532 A    
N18   O87   1.302735 A    
C74   N22   1.417823 S    
O2    C10   1.291616 A    
O14   C6    1.272158 A    
C19   O43   1.274394 A    
C82   C86   1.396831 A    
C94   C98   1.395632 A    
C54   N14   1.435492 S    
C77   N1    1.443072 S    
Cr12  O52   2.021817 S    
C26   H2    1.095750 S    
C66   I10   2.134172 S    
O17   Cr9   2.076590 S    
O40   Cr8   1.977828 S    
C19   C72   1.469331 S    
C15   O35   1.290237 A    
C67   C68   1.398100 A    
C17   O41   1.290370 A    
N24   O99   1.295046 A    
C84   H12   1.078300 S    
C47   C51   1.433053 A    
O5    Cr1   1.978304 S    
C37   C38   1.563505 S    
C14   O34   1.320807 A    
O25   Cr1   2.095268 S    
C79   C83   1.383953 A    
C6    C34   1.453058 S    
C78   C98   1.406607 A    
C12   C64   1.475206 S    
C35   C39   1.539753 S    
O1    Cr1   2.087341 S    
C42   H6    1.083076 S    
C32   C36   1.519383 S    
C77   C97   1.405679 A    
C25   C26   1.529230 S    
C95   N7    1.433723 S    
C5    C33   1.481906 S    
Cr8   O52   2.033319 S    
N23   O98   1.300321 A    
O41   Cr9   2.099686 S    
C79   C99   1.412612 A    
C78   N2    1.444648 S    
C18   C69   1.464283 S    
C43   C63   1.381841 A    
N1    O53   1.299411 A    
O46   C22   1.304289 A    
C32   I4    2.100426 S    
C23   C99   1.473707 S    
O45   C21   1.285975 A    
O19   Cr11  2.076590 S    
C69   C73   1.399155 A    
N13   O78   1.300267 A    
O38   Cr6   1.977828 S    
O33   Cr5   2.077779 S    
C34   C38   1.522190 S    
C91   C95   1.401984 A    
O47   C23   1.303057 A    
C80   N4    1.453832 S    
O10   Cr6   2.097653 S    
C41   C61   1.381838 A    
C75   N23   1.403631 S    
C48   C52   1.402560 A    
C55   C59   1.407648 A    
C76   N24   1.404370 S    
O4    Cr4   2.099717 S    
C42   C62   1.407106 A    
O6    C2    1.296562 A    
O29   Cr1   1.965821 S    
C3    C50   1.489502 S    
O28   Cr4   2.088378 S    
C16   O36   1.288904 A    
C59   N19   1.448142 S    
C39   I7    2.104919 S    
C84   C88   1.380941 A    
C27   C31   1.551738 S    
C43   H7    1.077296 S    
C55   N15   1.435957 S    
C6    O18   1.287282 A    
O43   Cr11  2.099686 S    
N15   O81   1.299369 A    
C60   N20   1.444309 S    
O27   C23   1.284515 A    
N2    O55   1.297601 A    
C46   N10   1.422162 S    
C45   C49   1.433068 A    
C30   I2    2.100378 S    
C8    C36   1.453028 S    
C93   C97   1.421401 A    
O36   Cr8   2.077578 S    
O31   C15   1.284266 A    
N12   O75   1.302625 A    
O16   C8    1.272165 A    
C81   C85   1.398994 A    
C85   C89   1.393108 A    
C27   C28   1.529223 S    
O15   Cr7   1.958728 S    
C30   C34   1.519420 S    
N13   O77   1.299373 A    
