data_mof_unit_48536.cif
_audit_creation_date              2012-12-10T20:48:48-0500
_audit_creation_method            fapswitch 2.2
_symmetry_space_group_name_H-M    P1
_symmetry_Int_Tables_number       1
_space_group_crystal_system       triclinic
_cell_length_a                    15.773575
_cell_length_b                    8.930143
_cell_length_c                    8.108973
_cell_angle_alpha                 89.974408
_cell_angle_beta                  89.978862
_cell_angle_gamma                 89.994016
_cell_volume                      1142.23201242

loop_
_atom_site_label
_atom_site_type_symbol
_atom_type_description
_atom_site_fract_x
_atom_site_fract_y
_atom_site_fract_z
_atom_type_partial_charge
C1    C     C_R   0.499999 0.217988 0.500024 0.933514
C2    C     C_3   0.048970 0.557426 0.340579 -0.441103
C3    C     C_3   0.951181 0.356227 0.536291 -0.341879
C4    C     C_3   0.952023 0.576168 0.345852 -0.434552
C5    C     C_1   0.750804 0.505393 0.501021 -0.159869
C6    C     C_1   0.249195 0.504946 0.501449 -0.095663
C7    C     C_3   0.082719 0.517286 0.515681 0.185220
C8    C     C_3   0.917315 0.518517 0.513611 0.204193
C9    C     C_3   0.948728 0.623671 0.659651 -0.094584
C10   C     C_3   0.050919 0.637086 0.647635 -0.087019
C11   C     C_2   0.091533 0.616975 0.818519 0.580893
C12   C     C_1   0.825840 0.511349 0.505296 -0.120739
C13   C     C_2   0.079244 0.792618 0.586633 0.388407
C14   C     C_2   0.916388 0.558384 0.823972 0.367769
C15   C     C_2   0.906376 0.777762 0.647725 0.229942
C16   C     C_1   0.174154 0.510462 0.506620 0.012664
C17   C     C_R   0.337840 0.500051 0.500117 0.902288
C18   C     C_R   0.662162 0.500073 0.500042 0.899906
C19   C     C_1   0.499994 0.934787 0.499970 -0.171181
C20   C     C_1   0.499995 0.065183 0.500036 -0.171897
C21   C     C_R   0.499995 0.781985 0.499978 0.934533
C22   C     C_3   0.048035 0.359091 0.558191 -0.340410
H1    H     H_    0.935322 0.288173 0.425372 0.182559
H2    H     H_    0.047698 0.844323 0.482266 0.080954
H3    H     H_    0.860519 0.605620 0.882808 0.106319
H4    H     H_    0.864481 0.805493 0.546145 0.102089
H5    H     H_    0.923502 0.512239 0.241828 0.229402
H6    H     H_    0.076799 0.273122 0.475874 0.177441
H7    H     H_    0.065301 0.466237 0.252365 0.231972
H8    H     H_    0.079022 0.660515 0.290581 0.176505
H9    H     H_    0.064550 0.326425 0.686233 0.258298
H10   H     H_    0.935247 0.695591 0.325898 0.165229
H11   H     H_    0.920706 0.297950 0.641877 0.230006
H12   H     H_    0.074058 0.693794 0.916645 0.082564
N1    N     N_1   0.500000 0.500030 0.073640 -0.021722
N2    N     N_1   0.500000 0.500030 0.926360 -0.020999
O1    O     O_R   0.500000 0.285340 0.636850 -0.613376
O2    O     O_2   0.137638 0.860987 0.651165 -0.560146
O3    O     O_2   0.949115 0.449211 0.888666 -0.595575
O4    O     O_2   0.918888 0.872711 0.753484 -0.559178
O5    O     O_R   0.500000 0.285340 0.363150 -0.615023
O6    O     O_R   0.377140 0.500000 0.636930 -0.592409
O7    O     O_R   0.377140 0.500000 0.363070 -0.614793
O8    O     O_R   0.622860 0.500000 0.636930 -0.619069
O9    O     O_R   0.622860 0.500000 0.363070 -0.616436
O10   O     O_R   0.500000 0.714650 0.636900 -0.613140
O11   O     O_R   0.500000 0.714650 0.363100 -0.615749
O12   O     O_2   0.142882 0.518379 0.848784 -0.578307
Zn1   Zn    Zn3+2 0.500000 0.499990 0.682780 1.020628
Zn2   Zn    Zn3+2 0.500000 0.499990 0.317220 1.011523

loop_
_geom_bond_atom_site_label_1
_geom_bond_atom_site_label_2
_ccdc_geom_bond_type
O8    Zn1   S    
C8    C9    S    
C7    C10   S    
C2    C4    S    
C9    C14   S    
C17   O7    A    
O7    Zn2   S    
C18   O8    A    
C7    C22   S    
O1    Zn1   S    
C9    C10   S    
C19   C20   T    
C3    H1    S    
N1    N2    T    
C8    C12   S    
C2    H8    S    
N1    Zn2   S    
C9    C15   S    
C22   H6    S    
O10   Zn1   S    
C11   O12   D    
C4    H10   S    
O9    Zn2   S    
C2    H7    S    
C1    O5    A    
C7    C16   S    
C19   C21   S    
C13   O2    D    
C3    C8    S    
O11   Zn2   S    
C14   H3    S    
C15   O4    D    
C10   C11   S    
C3    H11   S    
O6    Zn1   S    
C6    C16   T    
C18   O9    A    
O5    Zn2   S    
C4    H5    S    
C5    C12   T    
C21   O10   A    
C22   H9    S    
C4    C8    S    
C6    C17   S    
C17   O6    A    
C15   H4    S    
C3    C22   S    
C5    C18   S    
C21   O11   A    
C14   O3    D    
C11   H12   S    
N2    Zn1   S    
C2    C7    S    
C13   H2    S    
C1    O1    A    
C1    C20   S    
C10   C13   S    
