data_mof_unit_22072.cif
_audit_creation_date              2012-12-10T17:23:45-0500
_audit_creation_method            fapswitch 2.2
_symmetry_space_group_name_H-M    P1
_symmetry_Int_Tables_number       1
_space_group_crystal_system       triclinic
_cell_length_a                    9.628059
_cell_length_b                    10.813347
_cell_length_c                    17.182198
_cell_angle_alpha                 89.40537
_cell_angle_beta                  86.222659
_cell_angle_gamma                 87.34687
_cell_volume                      1783.01745579

loop_
_atom_site_label
_atom_site_type_symbol
_atom_type_description
_atom_site_fract_x
_atom_site_fract_y
_atom_site_fract_z
_atom_type_partial_charge
C1    C     C_R   0.497054 0.737586 0.493097 0.793234
C2    C     C_R   0.340369 0.531376 0.777686 0.532739
C3    C     C_R   0.502040 0.396189 0.143520 -0.122027
C4    C     C_R   0.504470 0.389931 0.224418 0.105251
C5    C     C_R   0.560469 0.606892 0.226124 -0.193949
C6    C     C_R   0.561082 0.611634 0.145199 -0.078982
C7    C     C_R   0.524835 0.507972 0.104010 0.126858
C8    C     C_2   0.448268 0.598955 0.979582 0.228735
C9    C     C_2   0.518131 0.510900 0.019182 -0.254445
C10   C     C_R   0.528443 0.497336 0.265943 -0.045477
C11   C     C_R   0.229168 0.903485 0.502283 0.525094
C12   C     C_R   0.481521 0.508547 0.649994 0.898665
C13   C     C_R   0.118523 0.963139 0.545424 -0.375613
C14   C     C_R   0.143033 0.063014 0.592235 0.620924
C15   C     C_R   0.274565 0.113631 0.587926 0.079098
C16   C     C_R   0.381497 0.063891 0.535231 -0.144609
C17   C     C_R   0.365961 0.944640 0.506077 -0.040507
C18   C     C_R   0.489032 0.872803 0.484143 -0.032083
C19   C     C_R   0.612730 0.932716 0.465492 -0.195448
C20   C     C_R   0.615461 0.059876 0.472660 -0.099870
C21   C     C_R   0.502814 0.126665 0.509754 0.007836
C22   C     C_R   0.895066 0.274249 0.481415 0.648671
C23   C     C_R   0.501475 0.262155 0.505229 0.827327
C24   C     C_R   0.969608 0.182535 0.436913 -0.274219
C25   C     C_R   0.095206 0.209443 0.397502 -0.255137
C26   C     C_R   0.154992 0.320630 0.412802 -0.126762
C27   C     C_R   0.082636 0.408838 0.461756 0.149946
C28   C     C_R   0.937423 0.396883 0.476949 0.104058
C29   C     C_R   0.917796 0.596147 0.528990 0.016507
C30   C     C_R   0.065342 0.592406 0.533256 0.102041
C31   C     C_R   0.518304 0.497725 0.350420 0.798382
C32   C     C_R   0.470423 0.532916 0.734626 -0.352170
C33   C     C_R   0.588915 0.564616 0.772681 0.594168
C34   C     C_R   0.577796 0.591531 0.851701 -0.251869
C35   C     C_R   0.449870 0.585588 0.894779 -0.140763
C36   C     C_R   0.330434 0.554396 0.857774 0.151025
Cu1   Cu    Cu3+1 0.359340 0.500010 0.500010 1.041035
Cu2   Cu    Cu3+1 0.640660 0.499990 0.499990 1.042091
H1    H     H_    0.588965 0.696129 0.114969 0.171331
H2    H     H_    0.706386 0.881612 0.443536 0.160967
H3    H     H_    0.014449 0.929604 0.544222 0.195566
H4    H     H_    0.704572 0.106126 0.448145 0.160599
H5    H     H_    0.856812 0.674530 0.553393 0.157609
H6    H     H_    0.938159 0.087835 0.438739 0.172321
H7    H     H_    0.153456 0.139198 0.362845 0.218601
H8    H     H_    0.257280 0.333652 0.387306 0.219513
H9    H     H_    0.112884 0.666397 0.562135 0.158384
H10   H     H_    0.583319 0.688897 0.257796 0.153978
H11   H     H_    0.565110 0.431061 0.987619 0.169282
H12   H     H_    0.481157 0.314052 0.111450 0.171759
H13   H     H_    0.670437 0.614375 0.880115 0.212583
N1    N     N_R   0.852190 0.498790 0.499250 -0.200891
N2    N     N_R   0.148060 0.498710 0.499220 -0.185802
O1    O     O_R   0.381190 0.680360 0.500010 -0.536753
O2    O     O_R   0.618760 0.680340 0.500000 -0.611012
O3    O     O_R   0.367440 0.500030 0.613600 -0.523564
O4    O     O_R   0.605010 0.500010 0.613590 -0.493488
O5    O     O_R   0.381240 0.319660 0.500000 -0.600535
O6    O     O_R   0.618810 0.319640 0.499990 -0.540465
O7    O     O_R   0.394990 0.499990 0.386410 -0.580226
O8    O     O_R   0.632560 0.499970 0.386400 -0.587608
F1    F     F_    0.715942 0.571048 0.733913 -0.596140
F2    F     F_    0.199146 0.817090 0.449982 -0.652376
F3    F     F_    0.038863 0.110395 0.641702 -0.559336
I1    I     I_    0.320160 0.225368 0.682159 -0.099776
F4    F     F_    0.825467 0.235529 0.547783 -0.594127
I2    I     I_    0.480374 0.214892 0.279295 -0.410639
I3    I     I_    0.135430 0.528442 0.920229 -0.125027
F5    F     F_    0.222706 0.505635 0.742714 -0.582228
I4    I     I_    0.334332 0.754835 0.031158 -0.252254

loop_
_geom_bond_atom_site_label_1
_geom_bond_atom_site_label_2
_ccdc_geom_bond_type
C31   O7    A    
C26   C27   A    
C4    I2    S    
C20   H4    S    
C1    O1    A    
C27   N2    A    
C24   C25   A    
C22   F4    S    
C16   C21   A    
C23   O5    A    
C2    F5    S    
C11   C13   A    
C31   O8    A    
C8    I4    S    
Cu1   O5    S    
C8    C35   S    
Cu2   O8    S    
Cu1   N2    S    
C32   C33   A    
C19   C20   A    
C36   I3    S    
C17   C18   A    
C1    C18   S    
C14   F3    S    
C5    C10   A    
Cu1   O3    S    
C22   C28   A    
C13   C14   A    
C12   C32   S    
C15   I1    S    
C23   O6    A    
C28   N1    A    
C34   H13   S    
C29   C30   A    
C12   O4    A    
C13   H3    S    
C12   O3    A    
Cu1   Cu2   S    
C33   C34   A    
C6    C7    A    
C3    C7    A    
C21   C23   S    
C1    O2    A    
C5    C6    A    
C24   H6    S    
C30   N2    A    
C22   C24   A    
Cu1   O7    S    
Cu2   N1    S    
C19   H2    S    
Cu1   O1    S    
C4    C10   A    
C15   C16   A    
Cu2   O4    S    
C16   C17   A    
C25   H7    S    
C30   H9    S    
C9    H11   S    
C20   C21   A    
C2    C32   A    
C34   C35   A    
C2    C36   A    
C27   C28   A    
C7    C9    S    
C26   H8    S    
C14   C15   A    
C18   C19   A    
C35   C36   A    
C25   C26   A    
C6    H1    S    
C11   F2    S    
C33   F1    S    
C10   C31   S    
C3    H12   S    
C29   H5    S    
Cu2   O2    S    
C3    C4    A    
Cu2   O6    S    
C5    H10   S    
C8    C9    D    
C29   N1    A    
C11   C17   A    
