data_mof_unit_66678.cif
_audit_creation_date              2012-12-11T15:31:43-0500
_audit_creation_method            fapswitch 2.2
_symmetry_space_group_name_H-M    P1
_symmetry_Int_Tables_number       1
_space_group_crystal_system       triclinic
_cell_length_a                    6.948214
_cell_length_b                    15.013889
_cell_length_c                    21.435816
_cell_angle_alpha                 74.304871
_cell_angle_beta                  90.057931
_cell_angle_gamma                 91.143629
_cell_volume                      2152.3505243

loop_
_atom_site_label
_atom_site_type_symbol
_atom_type_description
_atom_site_fract_x
_atom_site_fract_y
_atom_site_fract_z
_atom_type_partial_charge
O1    O     O_R   0.648150 0.130050 0.214300 -0.542927
O2    O     O_R   0.351850 0.869950 0.785700 -0.535477
O3    O     O_R   0.320490 0.006660 0.340150 -0.530371
O4    O     O_R   0.679510 0.993340 0.659850 -0.532300
O5    O     O_R   0.146100 0.869940 0.285700 -0.514745
O6    O     O_R   0.853900 0.130060 0.714300 -0.502539
C1    C     C_R   0.488813 0.001897 0.367017 0.818074
C2    C     C_R   0.510393 0.995425 0.633463 0.805463
O7    O     O_R   0.318690 0.137980 0.218120 -0.541433
O8    O     O_R   0.681310 0.862020 0.781880 -0.527695
O9    O     O_R   0.144280 0.002190 0.162800 -0.498861
O10   O     O_R   0.855720 0.997810 0.837200 -0.497131
C3    C     C_R   0.491588 0.175374 0.205503 0.900396
C4    C     C_R   0.509348 0.824873 0.794752 0.915012
O11   O     O_R   0.649960 0.997790 0.337200 -0.541698
O12   O     O_R   0.350040 0.002210 0.662800 -0.562281
O13   O     O_3   0.479300 0.955290 0.231990 -0.340552
O14   O     O_3   0.520700 0.044710 0.768010 -0.353437
V1    V     V_3+5 0.206040 0.008290 0.253340 1.768286
V2    V     V_3+5 0.793960 0.991710 0.746660 1.739947
O15   O     O_R   0.814320 0.993320 0.159850 -0.551431
O16   O     O_R   0.185680 0.006680 0.840150 -0.548638
C5    C     C_R   0.982717 0.000016 0.132589 0.798659
C6    C     C_R   0.017036 0.001645 0.867081 0.846841
O17   O     O_R   0.816120 0.862000 0.281880 -0.531069
O18   O     O_R   0.183880 0.138000 0.718120 -0.553161
C7    C     C_R   0.984953 0.824401 0.293721 0.824043
C8    C     C_R   0.015401 0.175565 0.704498 0.801010
V3    V     V_3+5 0.705540 0.991700 0.246660 1.724840
V4    V     V_3+5 0.294460 0.008300 0.753340 1.649071
O19   O     O_3   0.982150 0.044700 0.268010 -0.379043
O20   O     O_3   0.017850 0.955300 0.731990 -0.391389
C9    C     C_R   0.002701 0.722898 0.317661 -0.192063
C10   C     C_R   0.998780 0.276939 0.675971 -0.248620
C11   C     C_R   0.148997 0.581403 0.310495 -0.043116
C12   C     C_R   0.839246 0.419166 0.675500 -0.081316
C13   C     C_R   0.117277 0.674879 0.283613 0.269744
C14   C     C_R   0.873108 0.326777 0.705513 0.395506
C15   C     C_R   0.929747 0.675844 0.379408 0.354798
C16   C     C_R   0.078850 0.321644 0.613598 0.347705
C17   C     C_R   0.004992 0.587198 0.412939 -0.029058
C18   C     C_R   0.016941 0.412333 0.579157 0.042399
C19   C     C_R   0.107125 0.538364 0.375855 -0.087872
C20   C     C_R   0.917258 0.464053 0.614748 -0.155893
C21   C     C_R   0.990527 0.547200 0.481800 -0.037780
C22   C     C_R   0.045198 0.453709 0.510541 0.044280
C23   C     C_R   0.120316 0.404641 0.469142 -0.217537
C24   C     C_R   0.936272 0.600082 0.523284 -0.228864
C25   C     C_R   0.169211 0.448091 0.405094 0.398809
C26   C     C_R   0.895124 0.559848 0.588269 0.493986
H1    H     H_    0.216118 0.544127 0.280228 0.247492
H2    H     H_    0.739552 0.454230 0.698714 0.235420
H3    H     H_    0.145265 0.331794 0.485031 0.235379
H4    H     H_    0.924743 0.674051 0.505649 0.255270
C27   C     C_3   0.057098 0.917847 0.994958 -0.172744
C28   C     C_3   0.941617 0.084909 0.004388 -0.172818
C29   C     C_3   0.170274 0.984410 0.025723 0.460132
C30   C     C_3   0.828674 0.018304 0.973584 0.441304
H5    H     H_    0.109012 0.850033 0.991364 0.249109
H6    H     H_    0.888368 0.152752 0.007565 0.214372
C31   C     C_3   0.990352 0.000848 0.062011 -0.111274
C32   C     C_3   0.008719 0.001865 0.937364 -0.157575
C33   C     C_3   0.872877 0.934711 0.031293 -0.154285
C34   C     C_3   0.126030 0.068117 0.968027 -0.134472
H7    H     H_    0.766701 0.881349 0.057090 0.173764
H8    H     H_    0.231876 0.121985 0.942510 0.206120
C35   C     C_3   0.679651 0.994392 0.478801 -0.218960
C36   C     C_3   0.316440 0.999497 0.522156 -0.223024
C37   C     C_3   0.598793 0.068642 0.508715 0.505823
C38   C     C_3   0.398464 0.925752 0.491929 0.522412
H9    H     H_    0.829502 0.994231 0.461012 0.209463
H10   H     H_    0.166501 0.999345 0.539932 0.197001
C39   C     C_3   0.501530 0.993668 0.563315 -0.195615
C40   C     C_3   0.495369 0.000920 0.437614 -0.233572
C41   C     C_3   0.580964 0.918320 0.533835 -0.182896
C42   C     C_3   0.414708 0.076181 0.467082 -0.238451
H11   H     H_    0.640902 0.851354 0.559561 0.231523
H12   H     H_    0.340573 0.139610 0.440273 0.250007
C43   C     C_R   0.524796 0.275280 0.173980 -0.321155
C44   C     C_R   0.482834 0.724459 0.824154 -0.345646
C45   C     C_R   0.747095 0.406278 0.167836 0.351176
C46   C     C_R   0.308281 0.582228 0.822127 0.427774
C47   C     C_R   0.654163 0.324659 0.204291 0.322125
C48   C     C_R   0.377140 0.671487 0.789863 0.369069
C49   C     C_R   0.482300 0.311868 0.107303 0.240090
C50   C     C_R   0.525974 0.685705 0.890333 0.348918
C51   C     C_R   0.543428 0.404701 0.075128 -0.034789
C52   C     C_R   0.478217 0.590672 0.919326 -0.099990
C53   C     C_R   0.697561 0.446006 0.102353 -0.111425
C54   C     C_R   0.337819 0.546787 0.889434 -0.247777
C55   C     C_R   0.463023 0.457075 0.015464 0.087240
C56   C     C_R   0.558399 0.538030 0.978377 0.114406
C57   C     C_R   0.737734 0.561473 0.998628 -0.109464
C58   C     C_R   0.283428 0.434801 0.993571 -0.102758
C59   C     C_R   0.801189 0.523204 0.061361 0.424068
C60   C     C_R   0.227624 0.472111 0.929440 0.425117
H13   H     H_    0.824913 0.613823 0.965843 0.186692
H14   H     H_    0.189378 0.385244 0.025704 0.202038
S1    S     S_3+6 0.330432 0.390092 0.366596 0.091388
O21   O     O_2   0.222862 0.348579 0.320134 -0.252032
O22   O     O_2   0.482602 0.456738 0.330473 -0.293335
O23   O     O_3   0.438117 0.306243 0.422679 -0.460340
H15   H     H_    0.503010 0.339211 0.451313 0.363224
S2    S     S_3+6 0.805752 0.633229 0.632827 0.108042
O24   O     O_2   0.591719 0.632431 0.625421 -0.287020
O25   O     O_2   0.857117 0.601527 0.703450 -0.251964
O26   O     O_3   0.893368 0.741064 0.601949 -0.457423
H16   H     H_    0.850706 0.775180 0.632828 0.377837
S3    S     S_3+6 0.004957 0.579835 0.084364 0.102367
O27   O     O_2   0.939955 0.624884 0.135027 -0.244113
O28   O     O_2   0.159908 0.511951 0.111650 -0.319046
O29   O     O_3   0.097015 0.662799 0.021716 -0.452224
H17   H     H_    0.163748 0.629167 0.994524 0.338030
S4    S     S_3+6 0.010760 0.427153 0.905443 0.072722
O30   O     O_2   0.897830 0.502508 0.860786 -0.273305
O31   O     O_2   0.060818 0.354996 0.871707 -0.270280
O32   O     O_3   0.875054 0.376660 0.970816 -0.524321
H18   H     H_    0.793016 0.330708 0.957237 0.411793
S5    S     S_3+6 0.584684 0.761826 0.939768 -0.018427
O33   O     O_2   0.794983 0.787696 0.931364 -0.363261
O34   O     O_2   0.470048 0.848689 0.919491 -0.343144
O35   O     O_3   0.534890 0.711915 0.018492 -0.462276
H19   H     H_    0.633104 0.737050 0.042978 0.387350
S6    S     S_3+6 0.402733 0.232713 0.061993 -0.020427
O36   O     O_2   0.445474 0.270050 0.990900 -0.318742
O37   O     O_2   0.502788 0.141922 0.084951 -0.338303
O38   O     O_3   0.164203 0.212910 0.072403 -0.505875
H20   H     H_    0.130006 0.232138 0.111593 0.308599
S7    S     S_3+6 0.310733 0.721092 0.708048 0.134701
O39   O     O_2   0.477108 0.777281 0.672059 -0.372982
O40   O     O_2   0.251723 0.648390 0.675240 -0.191623
O41   O     O_3   0.124312 0.790751 0.706864 -0.488024
H21   H     H_    0.138129 0.839665 0.665437 0.349297
S8    S     S_3+6 0.726245 0.277755 0.286153 0.103854
O42   O     O_2   0.899576 0.219239 0.286916 -0.334926
O43   O     O_2   0.779037 0.352793 0.317678 -0.234781
O44   O     O_3   0.548183 0.212313 0.328537 -0.483149
H22   H     H_    0.613619 0.176831 0.368008 0.370703
O45   O     O_3   0.883432 0.448417 0.197204 -0.529907
H23   H     H_    0.981164 0.401547 0.215888 0.370980
O46   O     O_3   0.224237 0.528880 0.786201 -0.522940
H24   H     H_    0.280480 0.466623 0.801252 0.359016
O47   O     O_3   0.226873 0.282158 0.588107 -0.614839
H25   H     H_    0.225401 0.214437 0.606477 0.330507
O48   O     O_3   0.782891 0.716964 0.403963 -0.603652
H26   H     H_    0.696998 0.666889 0.429654 0.317923
S9    S     S_3+6 0.749247 0.277497 0.779817 0.071273
O49   O     O_2   0.869707 0.206553 0.825275 -0.342039
O50   O     O_2   0.698717 0.351672 0.811735 -0.269721
O51   O     O_3   0.543549 0.227778 0.763569 -0.486406
H27   H     H_    0.471392 0.210504 0.805099 0.366248
S10   S     S_3+6 0.233585 0.729124 0.208752 0.117662
O52   O     O_2   0.405579 0.782928 0.222135 -0.302952
O53   O     O_2   0.303562 0.658526 0.176456 -0.217254
O54   O     O_3   0.085012 0.801507 0.158352 -0.491950
H28   H     H_    0.953352 0.776883 0.170981 0.324912
O55   O     O_3   0.350894 0.966523 0.054796 -0.577674
H29   H     H_    0.412189 0.922328 0.034399 0.339025
O56   O     O_3   0.648069 0.035867 0.944442 -0.593726
H30   H     H_    0.586204 0.079865 0.964882 0.337123
S11   S     S_3+6 0.747450 0.160528 0.521352 -0.021865
O57   O     O_2   0.631481 0.219243 0.553492 -0.353930
O58   O     O_2   0.913089 0.120862 0.564284 -0.371233
O59   O     O_3   0.835112 0.224367 0.449879 -0.460396
H31   H     H_    0.826789 0.289341 0.451530 0.380560
S12   S     S_3+6 0.269454 0.828754 0.478444 0.016363
O60   O     O_2   0.064660 0.854280 0.460961 -0.338960
O61   O     O_2   0.362545 0.799792 0.423915 -0.361872
O62   O     O_3   0.274183 0.740865 0.546103 -0.417956
H32   H     H_    0.310076 0.685960 0.531803 0.383927

loop_
_geom_bond_atom_site_label_1
_geom_bond_atom_site_label_2
_ccdc_geom_bond_type
C30   C32   S    
V4    O20   S    
C3    C43   S    
C26   S2    S    
O55   H29   S    
O11   V3    S    
C27   H5    S    
O13   V3    S    
O62   H32   S    
S9    O49   D    
O4    C2    A    
V1    O19   S    
S8    O44   S    
C33   H7    S    
S11   O57   D    
C23   C25   A    
C21   C22   A    
C7    C9    S    
C24   H4    S    
O9    V1    S    
C9    C15   A    
C40   C42   S    
C49   S6    S    
C10   C16   A    
C56   C57   A    
O59   H31   S    
C11   C13   A    
C42   H12   S    
O3    C1    A    
C30   O56   S    
C38   S12   S    
C50   C52   A    
S5    O35   S    
C58   H14   S    
O12   V4    S    
O47   H25   S    
C27   C32   S    
C48   S7    S    
C37   S11   S    
C37   C42   S    
C18   C22   A    
C29   C31   S    
C31   C33   S    
O7    C3    A    
O29   H17   S    
C47   S8    S    
C44   C50   A    
S11   O58   D    
O5    C7    A    
O46   H24   S    
O7    V1    S    
O6    C8    A    
C52   C56   A    
O8    V2    S    
O41   H21   S    
C27   C33   S    
C38   C40   S    
C32   C34   S    
O26   H16   S    
C28   C34   S    
C37   C39   S    
C50   S5    S    
O14   V4    S    
C4    C44   S    
C11   C19   A    
C35   H9    S    
C12   H2    S    
C44   C48   A    
C23   H3    S    
S7    O41   S    
C45   C53   A    
C16   C18   A    
C8    C10   S    
C2    O12   A    
S12   O61   D    
C17   C19   A    
C60   S4    S    
C18   C20   A    
C15   O48   S    
C46   O46   S    
S2    O25   D    
S2    O24   D    
C45   C47   A    
O48   H26   S    
C1    C40   S    
S5    O34   D    
O15   C5    A    
O17   V3    S    
O45   H23   S    
O54   H28   S    
C51   C55   A    
C49   C51   A    
S9    O51   S    
C15   C17   A    
C59   S3    S    
S3    O29   S    
C55   C56   A    
C19   C25   A    
S8    O43   D    
C1    O11   A    
C36   C39   S    
O15   V3    S    
C9    C13   A    
C28   H6    S    
C35   C37   S    
C34   H8    S    
C53   C59   A    
C58   C60   A    
C25   S1    S    
O56   H30   S    
S10   O54   S    
C36   H10   S    
O10   V2    S    
O1    V3    S    
C28   C31   S    
C35   C40   S    
O3    V1    S    
C24   C26   A    
C41   H11   S    
S6    O38   S    
C36   C38   S    
S1    O22   D    
C52   C54   A    
O18   V4    S    
C46   C48   A    
C27   C29   S    
C11   H1    S    
S12   O60   D    
O16   C6    A    
C12   C20   A    
C35   C41   S    
C39   C41   S    
C13   S10   S    
O38   H20   S    
C57   H13   S    
C43   C49   A    
S11   O59   S    
C29   C34   S    
S6    O37   D    
S7    O39   D    
V2    O20   S    
C21   C24   A    
C20   C26   A    
C30   C33   S    
C45   O45   S    
C29   O55   S    
C22   C23   A    
C6    C32   S    
O16   V4    S    
S9    O50   D    
C10   C14   A    
S10   O53   D    
S4    O31   D    
S5    O33   D    
C54   C60   A    
S8    O42   D    
O5    V1    S    
C36   C42   S    
O6    V2    S    
O44   H22   S    
O10   C6    A    
O18   C8    A    
C46   C54   A    
S1    O21   D    
O2    V4    S    
S3    O28   D    
V3    O19   S    
O32   H18   S    
C12   C14   A    
C43   C47   A    
O9    C5    A    
C2    C39   S    
O13   V1    S    
C28   C30   S    
O14   V2    S    
S4    O30   D    
O23   H15   S    
O2    C4    A    
C14   S9    S    
S4    O32   S    
O4    V2    S    
C5    C31   S    
S1    O23   S    
O1    C3    A    
S10   O52   D    
S12   O62   S    
C57   C59   A    
C16   O47   S    
C38   C41   S    
C51   C53   A    
C17   C21   A    
O51   H27   S    
S7    O40   D    
O35   H19   S    
S3    O27   D    
S2    O26   S    
O8    C4    A    
S6    O36   D    
C55   C58   A    
O17   C7    A    
