data_mof_unit_64203.cif
_audit_creation_date              2012-12-10T16:42:43-0500
_audit_creation_method            fapswitch 2.2
_symmetry_space_group_name_H-M    P1
_symmetry_Int_Tables_number       1
_space_group_crystal_system       triclinic
_cell_length_a                    19.161798
_cell_length_b                    18.951497
_cell_length_c                    18.934739
_cell_angle_alpha                 109.172586
_cell_angle_beta                  109.877946
_cell_angle_gamma                 109.640792
_cell_volume                      5274.81549956

loop_
_atom_site_label
_atom_site_type_symbol
_atom_type_description
_atom_site_fract_x
_atom_site_fract_y
_atom_site_fract_z
_atom_type_partial_charge
C1    C     C_R   0.386707 0.382323 0.503534 0.840298
C2    C     C_R   0.759665 0.580473 0.753848 0.019239
C3    C     C_R   0.812795 0.498744 0.809636 -0.150680
C4    C     C_R   0.740115 0.419115 0.735835 -0.005436
C5    C     C_R   0.670780 0.422598 0.682315 0.046477
C6    C     C_R   0.684006 0.501861 0.686175 -0.130877
C7    C     C_R   0.732084 0.335503 0.712207 0.165261
C8    C     C_R   0.651093 0.260044 0.653068 0.230521
C9    C     C_R   0.579504 0.266588 0.612890 -0.232187
C10   C     C_R   0.589547 0.346302 0.624927 -0.170995
C11   C     C_2   0.261085 0.244726 0.573353 -0.201948
C12   C     C_R   0.618690 0.501477 0.618410 0.784106
C13   C     C_2   0.179378 0.194927 0.506872 -0.023107
C14   C     C_2   0.324058 0.321084 0.579120 0.197949
C15   C     C_2   0.328115 0.313171 0.507548 -0.267783
C16   C     C_2   0.174591 0.425068 0.180167 -0.155835
C17   C     C_2   0.183800 0.496620 0.175793 -0.309573
C18   C     C_2   0.247858 0.425028 0.240734 -0.152342
C19   C     C_2   0.310066 0.496476 0.316952 -0.309290
C20   C     C_2   0.742941 0.819440 0.494500 -0.166559
C21   C     C_2   0.822923 0.833718 0.520855 -0.325269
C22   C     C_2   0.685686 0.758949 0.509469 -0.210010
C23   C     C_R   0.614868 0.617186 0.497003 0.832091
C24   C     C_2   0.674540 0.678812 0.486072 0.018932
C25   C     C_R   0.995925 0.382128 0.878736 0.847758
C26   C     C_R   0.878847 0.499142 0.877645 0.781459
C27   C     C_R   0.999139 0.618247 0.115857 0.837821
C28   C     C_R   0.115075 0.498196 0.113131 0.836349
C29   C     C_R   0.001638 0.119228 0.617309 0.855225
C30   C     C_R   0.116906 0.120303 0.502258 0.807297
C31   C     C_R   0.995375 0.878335 0.382899 0.858562
C32   C     C_R   0.883644 0.887776 0.505422 0.849982
C33   C     C_2   0.986547 0.246313 0.671827 -0.209487
C34   C     C_R   0.380004 0.498042 0.381621 0.843042
C35   C     C_2   0.008966 0.190320 0.685895 -0.340727
C36   C     C_2   0.998370 0.320661 0.743107 0.186751
C37   C     C_2   0.989398 0.313352 0.808308 -0.286760
C38   C     C_2   0.011970 0.751714 0.325370 -0.171792
C39   C     C_2   0.979775 0.801913 0.313311 -0.327912
C40   C     C_2   0.995779 0.679008 0.249354 -0.205190
C41   C     C_2   0.009150 0.689372 0.186935 0.021550
C42   C     C_R   0.775735 0.660522 0.757439 -0.185367
C43   C     C_R   0.844527 0.739093 0.830277 0.165250
C44   C     C_R   0.898492 0.738335 0.902195 0.161650
C45   C     C_R   0.885701 0.659347 0.896922 -0.159549
C46   C     C_R   0.819927 0.579374 0.820673 0.018123
Cu1   Cu    Cu3+1 0.500390 0.438990 0.439360 0.963365
Cu2   Cu    Cu3+1 0.499610 0.561010 0.560640 0.961168
Cu3   Cu    Cu3+1 0.935830 0.439030 0.996840 0.944349
Cu4   Cu    Cu3+1 0.057850 0.561040 0.996790 0.977168
Cu5   Cu    Cu3+1 0.061410 0.000010 0.561410 0.944767
Cu6   Cu    Cu3+1 0.938590 0.999990 0.438590 0.943723
H1    H     H_    0.290585 0.249765 0.449555 0.144449
H2    H     H_    0.246705 0.554610 0.213552 0.154298
H3    H     H_    0.719862 0.852235 0.463310 0.172894
H4    H     H_    0.847461 0.808495 0.561221 0.158439
H5    H     H_    0.040059 0.200688 0.751105 0.151567
H6    H     H_    0.968124 0.251306 0.805843 0.123405
H7    H     H_    0.934949 0.783153 0.247925 0.163710
H8    H     H_    0.977904 0.617289 0.247378 0.152849
H9    H     H_    0.927683 0.662288 0.954302 0.179300
O1    O     O_R   0.411310 0.359450 0.448800 -0.605113
O2    O     O_R   0.048900 0.462510 0.908320 -0.547609
O3    O     O_R   0.855710 0.448510 0.907250 -0.584746
O4    O     O_R   0.958760 0.551540 0.907200 -0.586189
O5    O     O_R   0.944780 0.537560 0.085320 -0.600456
O6    O     O_R   0.047820 0.640590 0.085270 -0.562111
O7    O     O_R   0.034920 0.448530 0.086440 -0.582666
O8    O     O_R   0.137970 0.551560 0.086390 -0.589147
O9    O     O_R   0.051300 0.089020 0.640330 -0.591358
O10   O     O_R   0.947570 0.089010 0.536620 -0.585674
O11   O     O_R   0.140880 0.089030 0.551840 -0.591882
O12   O     O_R   0.410660 0.462490 0.551220 -0.563803
O13   O     O_R   0.037150 0.089020 0.448130 -0.592205
O14   O     O_R   0.052430 0.910990 0.463380 -0.580128
O15   O     O_R   0.948700 0.910980 0.359670 -0.588437
O16   O     O_R   0.962850 0.910980 0.551870 -0.593914
O17   O     O_R   0.859120 0.910970 0.448160 -0.582175
O18   O     O_R   0.589930 0.448490 0.538390 -0.585369
O19   O     O_R   0.589280 0.551530 0.640800 -0.580965
O20   O     O_R   0.589340 0.537510 0.448780 -0.553774
O21   O     O_R   0.588690 0.640550 0.551200 -0.610093
O22   O     O_R   0.410720 0.448470 0.359200 -0.580701
O23   O     O_R   0.410070 0.551510 0.461610 -0.589394
O24   O     O_R   0.945860 0.359480 0.908360 -0.613008
H10   H     H_    0.516485 0.209319 0.568220 0.144611
N1    N     N_3   0.149041 0.219641 0.443536 -0.589116
H11   H     H_    0.121181 0.167089 0.381941 0.219947
H12   H     H_    0.101438 0.232996 0.447691 0.234907
N2    N     N_3   0.383361 0.399737 0.661199 -0.571130
H13   H     H_    0.379390 0.388531 0.710580 0.209212
H14   H     H_    0.362438 0.443918 0.660272 0.236197
H15   H     H_    0.114022 0.364464 0.135487 0.161255
H16   H     H_    0.247708 0.364417 0.224709 0.161064
H17   H     H_    0.305167 0.554430 0.337186 0.152922
H18   H     H_    0.648791 0.778687 0.535637 0.157035
H19   H     H_    0.735181 0.663534 0.703844 0.165133
N3    N     N_3   0.709514 0.644404 0.436234 -0.570646
H20   H     H_    0.774408 0.667698 0.476545 0.218218
H21   H     H_    0.700816 0.659629 0.386719 0.244786
H22   H     H_    0.963711 0.240651 0.608166 0.167754
N4    N     N_3   0.013377 0.398034 0.738488 -0.563589
H23   H     H_    0.962241 0.381498 0.680777 0.209853
H24   H     H_    0.069147 0.420616 0.734817 0.221680
H25   H     H_    0.048712 0.762771 0.389863 0.173029
N5    N     N_3   0.049265 0.773435 0.195275 -0.570769
H26   H     H_    0.100415 0.819049 0.258489 0.242820
H27   H     H_    0.004047 0.792540 0.177413 0.223123
N6    N     N_3   0.855546 0.817666 0.829425 -0.593534
H28   H     H_    0.905523 0.872604 0.888379 0.212935
H29   H     H_    0.872693 0.819011 0.782830 0.212818
N7    N     N_3   0.967448 0.816236 0.980969 -0.599764
H30   H     H_    0.010139 0.852103 0.966992 0.216791
H31   H     H_    0.942091 0.852133 0.006143 0.220553
N8    N     N_3   0.804745 0.323537 0.735782 -0.593516
H32   H     H_    0.859913 0.376986 0.752341 0.214643
H33   H     H_    0.812181 0.309290 0.785571 0.268943
N9    N     N_3   0.642965 0.176679 0.633270 -0.578277
H34   H     H_    0.578396 0.127858 0.593041 0.205984
H35   H     H_    0.673446 0.165701 0.597764 0.232863
H36   H     H_    0.532728 0.347549 0.589202 0.155923
H37   H     H_    0.281376 0.231787 0.626395 0.143793

loop_
_geom_bond_atom_site_label_1
_geom_bond_atom_site_label_2
_ccdc_geom_bond_type
N1    H11   S    
C40   H8    S    
C23   O21   A    
Cu5   O11   S    
C28   O8    A    
Cu1   O18   S    
C10   H36   S    
C1    O1    A    
Cu1   O1    S    
N7    H31   S    
C31   O15   A    
C8    N9    S    
C7    C8    A    
C45   C46   A    
C2    C46   A    
C16   H15   S    
C33   H22   S    
C15   H1    S    
C36   C37   D    
Cu3   O7    S    
Cu4   O8    S    
Cu5   O14   S    
Cu6   O13   S    
C4    C7    A    
C6    C12   S    
C5    C6    A    
C30   O13   A    
C11   C14   S    
N5    H26   S    
N8    H32   S    
C12   O18   A    
C33   C36   S    
C36   N4    S    
C18   C19   D    
C25   O2    A    
C7    N8    S    
C26   O3    A    
N9    H34   S    
C14   N2    S    
C25   C37   S    
C32   O16   A    
C31   O14   A    
Cu2   O21   S    
C16   C17   D    
N8    H33   S    
C23   C24   S    
C1    C15   S    
Cu5   O9    S    
Cu1   O22   S    
Cu4   O6    S    
C37   H6    S    
Cu3   O3    S    
Cu4   O2    S    
C26   O4    A    
C2    C6    A    
C34   O23   A    
C20   H3    S    
Cu6   O17   S    
N7    H30   S    
C21   C32   S    
C41   N5    S    
Cu5   Cu6   S    
Cu3   O24   S    
C13   C30   S    
Cu3   O5    S    
C42   H19   S    
C8    C9    A    
Cu2   O23   S    
C43   C44   A    
Cu5   O16   S    
C9    H10   S    
C27   C41   S    
N2    H14   S    
Cu1   Cu2   S    
C39   H7    S    
C13   N1    S    
C25   O24   A    
N4    H24   S    
C44   N7    S    
C40   C41   D    
C20   C22   S    
N3    H20   S    
N3    H21   S    
N1    H12   S    
C18   H16   S    
C22   C24   D    
C11   H37   S    
C42   C43   A    
C3    C4    A    
C19   H17   S    
C44   C45   A    
C29   O9    A    
C9    C10   A    
C23   O20   A    
C28   O7    A    
C17   C28   S    
C22   H18   S    
Cu2   O12   S    
C3    C26   S    
C4    C5    A    
Cu6   O15   S    
C19   C34   S    
C21   H4    S    
C30   O11   A    
C29   C35   S    
C3    C46   A    
C35   H5    S    
C1    O12   A    
Cu2   O19   S    
C38   H25   S    
N6    H29   S    
C5    C10   A    
C27   O5    A    
N6    H28   S    
C38   C40   S    
C11   C13   D    
N2    H13   S    
C38   C39   D    
N5    H27   S    
C2    C42   A    
C12   O19   A    
C45   H9    S    
C33   C35   D    
C31   C39   S    
Cu1   O20   S    
N4    H23   S    
Cu4   O4    S    
N9    H35   S    
C27   O6    A    
C32   O17   A    
C24   N3    S    
C20   C21   D    
C16   C18   S    
Cu3   Cu4   S    
C34   O22   A    
Cu6   O10   S    
C14   C15   D    
C43   N6    S    
C17   H2    S    
C29   O10   A    
