data_mof_unit_49403.cif
_audit_creation_date              2012-12-10T18:57:44-0500
_audit_creation_method            fapswitch 2.2
_symmetry_space_group_name_H-M    P1
_symmetry_Int_Tables_number       1
_space_group_crystal_system       triclinic
_cell_length_a                    10.92938
_cell_length_b                    10.852519
_cell_length_c                    9.570548
_cell_angle_alpha                 90.40939
_cell_angle_beta                  89.329268
_cell_angle_gamma                 90.705149
_cell_volume                      1134.98360881

loop_
_atom_site_label
_atom_site_type_symbol
_atom_type_description
_atom_site_fract_x
_atom_site_fract_y
_atom_site_fract_z
_atom_type_partial_charge
C1    C     C_R   0.498921 0.262238 0.499285 0.826472
C2    C     C_R   0.429501 0.419441 0.075574 -0.129418
C3    C     C_R   0.425271 0.421705 0.926849 0.526566
C4    C     C_R   0.265377 0.498846 0.500579 0.831650
C5    C     C_R   0.561641 0.589671 0.926264 0.167107
C6    C     C_3   0.695135 0.618681 0.918904 -0.483294
C7    C     C_3   0.694600 0.619393 0.077561 -0.476614
C8    C     C_R   0.502622 0.737367 0.500224 0.824571
C9    C     C_R   0.734531 0.501311 0.499522 0.840512
C10   C     C_2   0.934000 0.486756 0.385992 -0.156854
C11   C     C_2   0.866443 0.507949 0.501038 -0.315231
C12   C     C_R   0.505600 0.128595 0.496138 -0.213291
C13   C     C_2   0.068052 0.492008 0.385786 -0.152211
C14   C     C_2   0.133182 0.494765 0.503639 -0.333680
C15   C     C_R   0.540555 0.065326 0.615672 0.056236
C16   C     C_3   0.227552 0.378190 0.862273 0.094608
C17   C     C_3   0.151012 0.311366 0.972917 -0.924817
C18   C     C_3   0.319991 0.089125 0.226420 0.064118
C19   C     C_3   0.308991 0.030354 0.082434 -0.820503
C20   C     C_R   0.482613 0.060868 0.372220 0.449578
C21   C     C_R   0.492194 0.932614 0.372979 -0.305560
C22   C     C_R   0.512026 0.870281 0.498169 -0.165827
C23   C     C_R   0.542558 0.938158 0.617162 0.118549
C24   C     C_3   0.490479 0.931647 0.761744 -0.476629
C25   C     C_3   0.487353 0.071294 0.759921 -0.400511
C26   C     C_R   0.561019 0.590172 0.073307 0.230255
Cu1   Cu    Cu3+1 0.499990 0.499980 0.640670 0.961425
Cu2   Cu    Cu3+1 0.500010 0.500020 0.359330 0.953067
H1    H     H_    0.890327 0.465184 0.287408 0.155892
H2    H     H_    0.090909 0.491133 0.606111 0.128314
H3    H     H_    0.473738 0.882107 0.277440 0.182765
H4    H     H_    0.397961 0.887887 0.765754 0.201182
H5    H     H_    0.556956 0.894957 0.837481 0.198211
H6    H     H_    0.392914 0.108179 0.760887 0.223940
H7    H     H_    0.186431 0.353536 0.760393 0.175011
H8    H     H_    0.217944 0.479957 0.875705 0.125116
H9    H     H_    0.178756 0.339045 0.079512 0.229977
H10   H     H_    0.053334 0.335869 0.961050 0.219245
H11   H     H_    0.159009 0.210391 0.959088 0.263770
H12   H     H_    0.551019 0.115392 0.835550 0.216338
H13   H     H_    0.266978 0.175646 0.228560 0.154749
H14   H     H_    0.275148 0.026790 0.304715 0.123414
H15   H     H_    0.362747 0.944387 0.076098 0.240315
H16   H     H_    0.211670 0.007835 0.060744 0.200385
H17   H     H_    0.344118 0.095740 0.002834 0.276979
H18   H     H_    0.377592 0.351064 0.132776 0.181354
H19   H     H_    0.749770 0.542315 0.873252 0.214249
H20   H     H_    0.714058 0.710897 0.873132 0.190487
H21   H     H_    0.748767 0.543388 0.121628 0.208881
H22   H     H_    0.713342 0.711979 0.123504 0.193506
H23   H     H_    0.906250 0.532262 0.600537 0.140478
H24   H     H_    0.113874 0.490870 0.284445 0.161601
N1    N     N_R   0.500780 0.500930 0.147930 -0.217263
N2    N     N_R   0.500780 0.500890 0.852020 -0.231574
O1    O     O_R   0.500000 0.319640 0.618810 -0.545231
O2    O     O_3   0.444533 0.118808 0.252246 -0.565187
O3    O     O_R   0.500010 0.319680 0.381230 -0.541443
O4    O     O_R   0.321940 0.499980 0.618760 -0.587100
O5    O     O_R   0.321950 0.500020 0.381180 -0.586363
O6    O     O_R   0.499990 0.680320 0.618770 -0.582077
O7    O     O_R   0.500000 0.680360 0.381190 -0.587368
O8    O     O_R   0.678050 0.499980 0.618820 -0.590456
O9    O     O_R   0.678060 0.500020 0.381240 -0.579110
O10   O     O_3   0.350637 0.337778 0.858255 -0.583263

loop_
_geom_bond_atom_site_label_1
_geom_bond_atom_site_label_2
_ccdc_geom_bond_type
C1    C12   S    
C8    C22   S    
Cu2   N1    S    
C24   H4    S    
C6    C7    S    
Cu1   O8    S    
C1    O3    A    
C13   H24   S    
C9    C11   S    
C25   H6    S    
C24   H5    S    
C12   C15   A    
C20   O2    S    
C8    O7    A    
C23   C24   S    
C9    O8    A    
Cu2   O7    S    
C12   C20   A    
C15   C23   A    
C2    C3    A    
C1    O1    A    
Cu1   N2    S    
C10   C13   S    
C25   H12   S    
C17   H9    S    
Cu2   O3    S    
C8    O6    A    
C18   O2    S    
C21   H3    S    
C10   H1    S    
C16   H8    S    
C7    C26   S    
C6    H20   S    
C14   H2    S    
C4    O5    A    
C21   C22   A    
C19   H15   S    
Cu1   O6    S    
C18   H14   S    
C16   H7    S    
C4    C14   S    
C5    C6    S    
C3    N2    A    
Cu1   O1    S    
C15   C25   S    
C11   H23   S    
C10   C11   D    
C5    C26   A    
Cu2   O9    S    
C19   H16   S    
C5    N2    A    
C26   N1    A    
C24   C25   S    
C7    H21   S    
C18   C19   S    
C6    H19   S    
Cu2   O5    S    
C4    O4    A    
Cu1   Cu2   S    
C17   H11   S    
C22   C23   A    
C16   C17   S    
C16   O10   S    
C13   C14   D    
C20   C21   A    
C3    O10   S    
C9    O9    A    
Cu1   O4    S    
C2    H18   S    
C19   H17   S    
C18   H13   S    
C7    H22   S    
C17   H10   S    
C2    N1    A    
