data_mof_unit_9470.cif
_audit_creation_date              2012-12-10T20:40:55-0500
_audit_creation_method            fapswitch 2.2
_symmetry_space_group_name_H-M    P1
_symmetry_Int_Tables_number       1
_space_group_crystal_system       triclinic
_cell_length_a                    27.125927
_cell_length_b                    10.692831
_cell_length_c                    9.85124
_cell_angle_alpha                 89.306803
_cell_angle_beta                  91.099503
_cell_angle_gamma                 91.503315
_cell_volume                      2855.67966216

loop_
_atom_site_label
_atom_site_type_symbol
_atom_type_description
_atom_site_fract_x
_atom_site_fract_y
_atom_site_fract_z
_atom_type_partial_charge
Br1   Br    Br    0.326638 0.309218 0.633615 -0.412482
Br2   Br    Br    0.636844 0.754277 0.380236 -0.445776
Br3   Br    Br    0.518763 0.872866 0.191821 -0.421347
Br4   Br    Br    0.424239 0.116959 0.749194 -0.393458
Br5   Br    Br    0.531903 0.138025 0.897570 -0.428149
Br6   Br    Br    0.585244 0.665917 0.845428 -0.406910
Br7   Br    Br    0.380874 0.289204 0.151962 -0.353804
Br8   Br    Br    0.017754 0.438569 0.026791 -0.563486
C1    C     C_R   0.501639 0.260038 0.500768 0.953197
C2    C     C_R   0.978556 0.516841 0.333567 0.062013
C3    C     C_R   0.979663 0.691939 0.494972 0.032569
C4    C     C_R   0.405675 0.503112 0.498210 0.944913
C5    C     C_R   0.953983 0.592524 0.426587 0.037194
C6    C     C_R   0.954870 0.405417 0.289854 -0.226080
C7    C     C_R   0.905413 0.378548 0.316166 0.240973
C8    C     C_R   0.878478 0.463178 0.392555 -0.056113
C9    C     C_R   0.903680 0.565836 0.454233 -0.100014
C10   C     C_R   0.878602 0.641147 0.544740 -0.044320
C11   C     C_R   0.828081 0.620105 0.563529 0.541601
C12   C     C_R   0.266992 0.497062 0.512838 -0.123156
C13   C     C_R   0.827189 0.449024 0.410319 0.532899
C14   C     C_R   0.726910 0.413825 0.554011 -0.079833
C15   C     C_R   0.675427 0.405554 0.556874 0.128378
C16   C     C_R   0.502594 0.740360 0.498677 0.927765
C17   C     C_R   0.671969 0.612759 0.449466 0.230735
C18   C     C_R   0.723112 0.618983 0.447355 -0.116506
C19   C     C_R   0.750662 0.520176 0.499341 0.192360
C20   C     C_R   0.028091 0.545344 0.300079 -0.045678
C21   C     C_R   0.054496 0.637462 0.375034 0.034958
C22   C     C_R   0.029723 0.718549 0.461684 0.041760
C23   C     C_R   0.256924 0.604449 0.435140 0.247611
C24   C     C_R   0.052513 0.487227 0.192500 0.207116
C25   C     C_R   0.107078 0.837043 0.498810 0.230562
C26   C     C_R   0.955057 0.753469 0.601366 0.173455
C27   C     C_R   0.904553 0.732818 0.618385 -0.190654
C28   C     C_R   0.594248 0.499393 0.501267 0.913045
C29   C     C_R   0.055783 0.826593 0.506610 -0.259670
C30   C     C_R   0.516974 0.062364 0.621029 0.019995
C31   C     C_R   0.510522 0.129728 0.500681 -0.177983
C32   C     C_R   0.516289 0.070009 0.376481 -0.205615
C33   C     C_R   0.516980 0.941062 0.371922 0.316734
C34   C     C_R   0.106344 0.647109 0.365438 -0.124007
C35   C     C_R   0.512531 0.872225 0.495476 -0.145505
C36   C     C_R   0.518830 0.935105 0.618278 0.034059
C37   C     C_3   0.494219 0.919315 0.752313 -0.430987
C38   C     C_3   0.491652 0.061038 0.754822 0.483622
C39   C     C_R   0.466341 0.427954 0.070591 0.189637
C40   C     C_R   0.182835 0.551855 0.308295 0.529169
C41   C     C_R   0.535743 0.562137 0.074037 -0.093736
C42   C     C_R   0.535609 0.563775 0.930521 0.293120
C43   C     C_R   0.466239 0.428167 0.927812 0.190477
C44   C     C_3   0.411545 0.440021 0.920365 -0.471568
C45   C     C_R   0.131578 0.560937 0.286465 -0.134402
C46   C     C_3   0.411793 0.438757 0.074432 0.069168
C47   C     C_R   0.184212 0.727151 0.456394 0.525568
C48   C     C_R   0.295433 0.681512 0.388585 -0.061435
C49   C     C_R   0.343897 0.648894 0.415487 -0.248230
C50   C     C_R   0.315574 0.463603 0.539883 0.245742
C51   C     C_3   0.146050 0.036232 0.445864 -0.670474
C52   C     C_3   0.005637 0.750554 0.805278 -0.682806
C53   C     C_3   0.129821 0.286843 0.108062 -0.626516
C54   C     C_3   0.647996 0.192660 0.516537 -0.670766
C55   C     C_3   0.884516 0.163827 0.370725 -0.688693
C56   C     C_R   0.104247 0.486976 0.191381 0.190613
C57   C     C_R   0.132997 0.739338 0.439862 -0.037882
C58   C     C_R   0.354303 0.539102 0.489249 -0.108686
C59   C     C_R   0.647812 0.505983 0.503861 -0.150803
H1    H     H_    0.287784 0.764291 0.328193 0.166164
H2    H     H_    0.400169 0.530967 0.875475 0.195521
H3    H     H_    0.392976 0.356697 0.874591 0.291995
H4    H     H_    0.400031 0.528060 0.118871 0.151783
H5    H     H_    0.748537 0.337519 0.594031 0.168045
H6    H     H_    0.975283 0.333779 0.241034 0.180125
H7    H     H_    0.373505 0.707737 0.375527 0.170401
H8    H     H_    0.114127 0.987582 0.628829 0.226986
H9    H     H_    0.167339 0.115057 0.492996 0.253860
H10   H     H_    0.112733 0.073744 0.393889 0.202198
H11   H     H_    0.169708 0.992425 0.369862 0.255774
H12   H     H_    0.886241 0.784232 0.696143 0.192961
H13   H     H_    0.960849 0.895226 0.743262 0.227699
H14   H     H_    0.027293 0.813041 0.874585 0.234694
H15   H     H_    0.031406 0.685266 0.758461 0.265274
H16   H     H_    0.978056 0.696190 0.865500 0.266269
H17   H     H_    0.158676 0.462414 0.046335 0.275049
H18   H     H_    0.146020 0.243275 0.018023 0.240869
H19   H     H_    0.092306 0.245242 0.122423 0.235566
H20   H     H_    0.153082 0.265353 0.198932 0.253455
H21   H     H_    0.620138 0.308713 0.661881 0.260071
H22   H     H_    0.631924 0.108834 0.568612 0.262258
H23   H     H_    0.741718 0.700831 0.404693 0.180658
H24   H     H_    0.684870 0.168781 0.478695 0.268280
H25   H     H_    0.623426 0.218048 0.429438 0.227837
H26   H     H_    0.897405 0.234894 0.178124 0.238135
H27   H     H_    0.864809 0.079789 0.329576 0.248712
H28   H     H_    0.865573 0.192537 0.463942 0.253604
H29   H     H_    0.923107 0.139077 0.397157 0.208463
H30   H     H_    0.036895 0.905765 0.545360 0.176315
H31   H     H_    0.516510 0.122109 0.281432 0.228413
H32   H     H_    0.457688 0.870091 0.743665 0.209412
H33   H     H_    0.236856 0.437412 0.548008 0.163265
H34   H     H_    0.519255 0.880411 0.831613 0.260439
H35   H     H_    0.563838 0.614515 0.130234 0.224106
N1    N     N_R   0.207098 0.630355 0.396974 -0.349658
N2    N     N_R   0.803298 0.528073 0.493241 -0.347648
N3    N     N_R   0.499670 0.499140 0.142800 -0.154905
N4    N     N_R   0.499670 0.499180 0.857150 -0.140976
N5    N     N_2   0.131847 0.946303 0.549855 -0.249229
N6    N     N_2   0.981015 0.824987 0.702118 -0.342510
N7    N     N_2   0.127441 0.420743 0.086467 -0.256418
N8    N     N_2   0.652319 0.295082 0.610885 -0.302930
N9    N     N_2   0.884046 0.263317 0.269841 -0.245492
O1    O     O_R   0.500010 0.316790 0.614690 -0.584411
O2    O     O_R   0.571250 0.500000 0.614690 -0.584167
O3    O     O_R   0.571240 0.499960 0.385340 -0.600877
O4    O     O_2   0.208247 0.462284 0.247368 -0.549634
O5    O     O_2   0.800936 0.360464 0.341854 -0.515427
O6    O     O_2   0.210589 0.806040 0.537203 -0.505557
O7    O     O_2   0.803631 0.691838 0.650305 -0.533675
O8    O     O_R   0.500000 0.316760 0.385350 -0.610732
O9    O     O_R   0.428760 0.500040 0.614660 -0.605082
O10   O     O_R   0.428750 0.500000 0.385310 -0.608858
O11   O     O_R   0.500000 0.683240 0.614650 -0.603436
O12   O     O_R   0.499990 0.683210 0.385310 -0.583696
Zn1   Zn    Zn3+2 0.500000 0.500020 0.653130 1.028500
Zn2   Zn    Zn3+2 0.500000 0.499980 0.346870 1.018684

loop_
_geom_bond_atom_site_label_1
_geom_bond_atom_site_label_2
_ccdc_geom_bond_type
H8    N5    S    
C8    C13   A    
C55   H28   S    
C21   C34   A    
C17   C59   A    
C49   C58   A    
C53   N7    S    
C51   H10   S    
C29   H30   S    
C28   C59   S    
C25   C57   A    
Br4   C38   S    
C37   C38   S    
C30   C36   A    
C55   H27   S    
C18   C19   A    
C3    C22   A    
C20   C21   A    
O1    Zn1   S    
C34   C45   A    
C32   H31   S    
C30   C31   A    
C45   C56   A    
O12   Zn2   S    
C7    C8    A    
C54   H22   S    
C47   N1    A    
C19   N2    S    
C1    C31   S    
C48   C49   A    
C26   C27   A    
C52   H14   S    
C15   C59   A    
C44   H2    S    
C53   H20   S    
C4    O9    A    
C13   N2    A    
C52   H15   S    
C50   C58   A    
C46   H4    S    
C11   O7    S    
C8    C9    A    
C39   N3    A    
C54   H25   S    
C34   C57   A    
C23   C48   A    
C10   C27   A    
C52   N6    S    
H21   N8    S    
C1    O1    A    
C28   O3    A    
C25   N5    S    
C33   C35   A    
C13   O5    S    
C28   O2    A    
C51   H11   S    
C14   H5    S    
C47   C57   A    
C44   C46   S    
C40   C45   A    
C4    O10   A    
C43   C44   S    
Br8   C24   S    
C6    H6    S    
C7    N9    S    
C20   C24   A    
C24   C56   A    
C37   H32   S    
C41   H35   S    
O3    Zn2   S    
C10   C11   A    
C39   C43   A    
C17   C18   A    
C48   H1    S    
C40   N1    A    
C4    C58   S    
C55   H29   S    
C16   O12   A    
C25   C29   A    
C22   C29   A    
C23   N1    S    
C49   H7    S    
C35   C36   A    
O10   Zn2   S    
C21   C22   A    
C11   N2    A    
C12   H33   S    
C54   H24   S    
C16   O11   A    
C9    C10   A    
Br6   C42   S    
C53   H18   S    
H26   N9    S    
C40   O4    S    
O8    Zn2   S    
C32   C33   A    
C14   C19   A    
C39   C46   S    
C2    C6    A    
C1    O8    A    
C12   C50   A    
C31   C32   A    
C36   C37   S    
C47   O6    S    
C2    C20   A    
C15   N8    S    
Br3   C33   S    
C6    C7    A    
C3    C26   A    
C2    C5    A    
C41   N3    A    
C5    C9    A    
C18   H23   S    
Br5   C38   S    
H13   N6    S    
H17   N7    S    
N3    Zn2   S    
C26   N6    S    
Br1   C50   S    
C3    C5    A    
C56   N7    S    
O2    Zn1   S    
C54   N8    S    
C43   N4    A    
C27   H12   S    
C52   H16   S    
Br2   C17   S    
C55   N9    S    
C51   N5    S    
C30   C38   S    
C44   H3    S    
C53   H19   S    
C41   C42   A    
N4    Zn1   S    
C42   N4    A    
C16   C35   S    
C14   C15   A    
Br7   C46   S    
O11   Zn1   S    
C51   H9    S    
O9    Zn1   S    
C12   C23   A    
C37   H34   S    
