data_mof_unit_61807.cif
_audit_creation_date              2012-12-10T17:07:16-0500
_audit_creation_method            fapswitch 2.2
_symmetry_space_group_name_H-M    P1
_symmetry_Int_Tables_number       1
_space_group_crystal_system       triclinic
_cell_length_a                    30.797414
_cell_length_b                    30.512974
_cell_length_c                    21.187658
_cell_angle_alpha                 90.117205
_cell_angle_beta                  43.419121
_cell_angle_gamma                 89.905537
_cell_volume                      13684.8986948

loop_
_atom_site_label
_atom_site_type_symbol
_atom_type_description
_atom_site_fract_x
_atom_site_fract_y
_atom_site_fract_z
_atom_type_partial_charge
C1    C     C_R   0.307697 0.810064 0.504421 0.932717
C2    C     C_R   0.695455 0.189804 0.490337 0.906859
C3    C     C_R   0.694416 0.810193 0.491512 0.916521
C4    C     C_R   0.305536 0.189803 0.508601 0.872653
C5    C     C_R   0.807697 0.310064 0.504421 0.932717
C6    C     C_R   0.195455 0.689804 0.490337 0.906859
C7    C     C_R   0.194416 0.310193 0.491512 0.916520
C8    C     C_R   0.805536 0.689803 0.508601 0.872653
C9    C     C_R   0.334239 0.910085 0.575425 0.057200
C10   C     C_R   0.667880 0.088269 0.421121 0.062853
C11   C     C_R   0.648708 0.920522 0.477338 0.053494
C12   C     C_R   0.352969 0.079643 0.519305 0.072791
C13   C     C_R   0.834239 0.410085 0.575425 0.057200
C14   C     C_R   0.167880 0.588269 0.421121 0.062852
C15   C     C_R   0.148708 0.420522 0.477338 0.053495
C16   C     C_R   0.852969 0.579643 0.519305 0.072791
C17   C     C_R   0.302759 0.873171 0.584513 0.067437
C18   C     C_R   0.702552 0.121632 0.415525 0.052232
C19   C     C_R   0.689979 0.887648 0.455614 0.077200
C20   C     C_R   0.310334 0.112066 0.543454 0.025909
C21   C     C_R   0.802759 0.373171 0.584513 0.067437
C22   C     C_R   0.202552 0.621632 0.415525 0.052232
C23   C     C_R   0.189979 0.387649 0.455615 0.077199
C24   C     C_R   0.810334 0.612066 0.543454 0.025909
C25   C     C_R   0.337802 0.843156 0.510029 -0.106901
C26   C     C_R   0.666976 0.155176 0.484723 -0.102100
C27   C     C_R   0.667176 0.843781 0.480191 -0.134816
C28   C     C_R   0.331783 0.156294 0.521927 -0.145221
C29   C     C_R   0.837802 0.343156 0.510029 -0.106901
C30   C     C_R   0.166976 0.655176 0.484723 -0.102100
C31   C     C_R   0.167176 0.343781 0.480191 -0.134816
C32   C     C_R   0.831783 0.656294 0.521927 -0.145221
C33   C     C_R   0.402930 0.846897 0.434133 -0.223835
C34   C     C_R   0.601175 0.154521 0.556400 -0.208934
C35   C     C_R   0.611892 0.832679 0.505907 -0.204178
C36   C     C_R   0.385553 0.167857 0.500011 -0.182089
C37   C     C_R   0.902930 0.346897 0.434133 -0.223836
C38   C     C_R   0.101175 0.654521 0.556400 -0.208934
C39   C     C_R   0.111892 0.332679 0.505907 -0.204178
C40   C     C_R   0.885553 0.667857 0.500011 -0.182089
C41   C     C_R   0.434560 0.880332 0.430426 -0.197067
C42   C     C_R   0.568370 0.121365 0.562500 -0.207412
C43   C     C_R   0.577026 0.864554 0.512981 -0.218832
C44   C     C_R   0.420833 0.136126 0.492373 -0.222655
C45   C     C_R   0.934560 0.380332 0.430426 -0.197067
C46   C     C_R   0.068370 0.621365 0.562500 -0.207412
C47   C     C_R   0.077026 0.364554 0.512981 -0.218832
C48   C     C_R   0.920833 0.636126 0.492373 -0.222655
C49   C     C_R   0.400924 0.911373 0.500986 -0.119539
C50   C     C_R   0.600709 0.088936 0.495343 -0.113218
C51   C     C_R   0.594779 0.908049 0.500137 -0.083380
C52   C     C_R   0.405438 0.092415 0.500042 -0.080508
C53   C     C_R   0.900924 0.411373 0.500986 -0.119539
C54   C     C_R   0.100709 0.588936 0.495343 -0.113217
C55   C     C_R   0.094779 0.408049 0.500137 -0.083380
C56   C     C_R   0.905438 0.592415 0.500042 -0.080508
C57   C     C_R   0.939855 0.561107 0.499887 0.896965
C58   C     C_R   0.060445 0.439257 0.500129 0.902376
C59   C     C_R   0.063235 0.558357 0.499378 0.884662
C60   C     C_R   0.936705 0.442149 0.499986 0.887258
C61   C     C_R   0.439855 0.061107 0.499887 0.896965
C62   C     C_R   0.560445 0.939257 0.500129 0.902375
C63   C     C_R   0.563235 0.058357 0.499378 0.884662
C64   C     C_R   0.436704 0.942149 0.499986 0.887258
C65   C     C_R   0.336069 0.750278 0.328490 0.882137
C66   C     C_R   0.663000 0.248733 0.671388 0.914775
C67   C     C_R   0.664291 0.750080 0.671467 0.874134
C68   C     C_R   0.335847 0.249695 0.328523 0.908061
C69   C     C_R   0.836069 0.250278 0.328490 0.882137
C70   C     C_R   0.163000 0.748733 0.671388 0.914775
C71   C     C_R   0.164291 0.250080 0.671467 0.874134
C72   C     C_R   0.835847 0.749695 0.328523 0.908061
C73   C     C_1   0.387037 0.750314 0.226841 -0.225311
C74   C     C_1   0.611186 0.247851 0.773104 -0.233481
C75   C     C_1   0.613657 0.750065 0.773093 -0.213496
C76   C     C_1   0.386575 0.249102 0.226868 -0.216593
C77   C     C_1   0.887037 0.250314 0.226841 -0.225311
C78   C     C_1   0.111186 0.747851 0.773104 -0.233481
C79   C     C_1   0.113657 0.250065 0.773093 -0.213496
C80   C     C_1   0.886574 0.749102 0.226868 -0.216593
C81   C     C_1   0.429372 0.750235 0.142219 -0.005883
C82   C     C_1   0.568881 0.247703 0.857736 -0.007573
C83   C     C_1   0.571449 0.750046 0.857716 -0.000139
C84   C     C_1   0.428452 0.248655 0.142235 -0.008249
C85   C     C_1   0.929372 0.250235 0.142219 -0.005883
C86   C     C_1   0.068881 0.747703 0.857736 -0.007574
C87   C     C_1   0.071449 0.250046 0.857716 -0.000139
C88   C     C_1   0.928452 0.748655 0.142235 -0.008249
C89   C     C_1   0.479309 0.750131 0.042284 0.002377
C90   C     C_1   0.519434 0.247908 0.957672 0.003056
C91   C     C_1   0.521570 0.750071 0.957654 0.002267
C92   C     C_1   0.477713 0.248214 0.042299 0.002900
C93   C     C_1   0.979309 0.250131 0.042284 0.002377
C94   C     C_1   0.019434 0.747908 0.957672 0.003056
C95   C     C_1   0.021570 0.250071 0.957654 0.002267
C96   C     C_1   0.977713 0.748214 0.042299 0.002900
C97   C     C_R   0.238252 0.867038 0.669021 0.205865
C98   C     C_R   0.770442 0.119784 0.340047 0.172701
C99   C     C_R   0.751753 0.900389 0.410027 0.242253
C100  C     C_R   0.249002 0.098485 0.587760 0.248968
C101  C     C_R   0.738252 0.367038 0.669021 0.205865
C102  C     C_R   0.270442 0.619784 0.340047 0.172701
C103  C     C_R   0.251753 0.400389 0.410027 0.242253
C104  C     C_R   0.749002 0.598485 0.587759 0.248968
C105  C     C_R   0.203609 0.901671 0.732368 -0.196736
C106  C     C_R   0.800241 0.088600 0.269960 -0.187810
C107  C     C_R   0.764328 0.944758 0.408795 -0.219209
C108  C     C_R   0.239380 0.053905 0.583377 -0.155679
C109  C     C_R   0.703609 0.401671 0.732368 -0.196735
C110  C     C_R   0.300241 0.588600 0.269960 -0.187810
C111  C     C_R   0.264328 0.444759 0.408796 -0.219210
C112  C     C_R   0.739380 0.553905 0.583376 -0.155678
C113  C     C_R   0.233323 0.940486 0.717155 -0.178952
C114  C     C_R   0.766009 0.055975 0.277287 -0.183180
C115  C     C_R   0.718827 0.976588 0.444672 -0.159247
C116  C     C_R   0.286740 0.023095 0.543719 -0.190840
C117  C     C_R   0.733323 0.440487 0.717155 -0.178952
C118  C     C_R   0.266009 0.555975 0.277287 -0.183180
C119  C     C_R   0.218827 0.476588 0.444672 -0.159247
C120  C     C_R   0.786740 0.523095 0.543718 -0.190840
C121  C     C_R   0.298310 0.944214 0.641370 -0.187129
C122  C     C_R   0.701214 0.054695 0.353153 -0.188496
C123  C     C_R   0.662265 0.964851 0.475636 -0.199325
C124  C     C_R   0.342156 0.035438 0.515336 -0.203461
C125  C     C_R   0.798310 0.444214 0.641370 -0.187129
C126  C     C_R   0.201214 0.554695 0.353153 -0.188495
C127  C     C_R   0.162264 0.464851 0.475636 -0.199325
C128  C     C_R   0.842156 0.535438 0.515336 -0.203462
H1    H     H_    0.429356 0.823733 0.377560 0.149582
H2    H     H_    0.574835 0.179669 0.609322 0.153579
H3    H     H_    0.594591 0.799336 0.522525 0.174596
H4    H     H_    0.401497 0.201467 0.486532 0.172823
H5    H     H_    0.929357 0.323733 0.377560 0.149582
H6    H     H_    0.074835 0.679669 0.609322 0.153579
H7    H     H_    0.094592 0.299337 0.522524 0.174596
H8    H     H_    0.901497 0.701467 0.486533 0.172823
H9    H     H_    0.154107 0.897653 0.796061 0.136295
H10   H     H_    0.851227 0.088105 0.211685 0.140824
H11   H     H_    0.810444 0.954817 0.376683 0.133348
H12   H     H_    0.194402 0.042134 0.613997 0.141437
H13   H     H_    0.654107 0.397653 0.796061 0.136296
H14   H     H_    0.351227 0.588105 0.211685 0.140824
H15   H     H_    0.310444 0.454817 0.376684 0.133348
H16   H     H_    0.694403 0.542134 0.613996 0.141436
H17   H     H_    0.206463 0.966989 0.766645 0.153688
H18   H     H_    0.790089 0.030516 0.225385 0.151581
H19   H     H_    0.728775 0.010698 0.443979 0.166134
H20   H     H_    0.278817 0.989010 0.540357 0.166586
H21   H     H_    0.706463 0.466989 0.766645 0.153688
H22   H     H_    0.290089 0.530516 0.225385 0.151581
H23   H     H_    0.228775 0.510697 0.443979 0.166134
H24   H     H_    0.778817 0.489010 0.540357 0.166586
H25   H     H_    0.319341 0.974531 0.634629 0.168325
H26   H     H_    0.678913 0.026130 0.357088 0.175890
H27   H     H_    0.628744 0.990456 0.499580 0.125764
H28   H     H_    0.376821 0.010371 0.489328 0.128154
H29   H     H_    0.819341 0.474531 0.634629 0.168325
H30   H     H_    0.178913 0.526130 0.357088 0.175890
H31   H     H_    0.128744 0.490456 0.499581 0.125764
H32   H     H_    0.876822 0.510371 0.489328 0.128155
H33   H     H_    0.485592 0.881573 0.372871 0.164161
H34   H     H_    0.517187 0.121916 0.618419 0.161336
H35   H     H_    0.535420 0.855418 0.530155 0.144648
H36   H     H_    0.461154 0.145560 0.478251 0.142480
H37   H     H_    0.985592 0.381573 0.372871 0.164161
H38   H     H_    0.017187 0.621916 0.618419 0.161336
H39   H     H_    0.035420 0.355417 0.530155 0.144648
H40   H     H_    0.961154 0.645560 0.478252 0.142480
O1    O     O_R   0.321660 0.769950 0.500020 -0.615095
O2    O     O_R   0.678340 0.230050 0.499980 -0.623269
O3    O     O_R   0.678340 0.769950 0.499980 -0.626793
O4    O     O_R   0.321660 0.230050 0.500020 -0.622312
O5    O     O_R   0.821660 0.269950 0.500020 -0.615095
O6    O     O_R   0.178340 0.730050 0.499980 -0.623269
O7    O     O_R   0.178340 0.269950 0.499980 -0.626793
O8    O     O_R   0.821660 0.730050 0.500020 -0.622312
O9    O     O_R   0.269950 0.821670 0.500000 -0.612788
O10   O     O_R   0.730050 0.178330 0.500000 -0.594289
O11   O     O_R   0.730050 0.821670 0.500000 -0.599207
O12   O     O_R   0.269950 0.178330 0.500000 -0.603706
O13   O     O_R   0.769950 0.321670 0.500000 -0.612789
O14   O     O_R   0.230050 0.678330 0.500000 -0.594289
O15   O     O_R   0.230050 0.321670 0.500000 -0.599206
O16   O     O_R   0.769950 0.678330 0.500000 -0.603706
O17   O     O_R   0.339000 0.724150 0.373720 -0.605278
O18   O     O_R   0.661000 0.275850 0.626280 -0.601851
O19   O     O_R   0.661000 0.724150 0.626280 -0.608399
O20   O     O_R   0.339000 0.275850 0.373720 -0.594630
O21   O     O_R   0.839000 0.224150 0.373720 -0.605278
O22   O     O_R   0.161000 0.775850 0.626280 -0.601851
O23   O     O_R   0.161000 0.224150 0.626280 -0.608399
O24   O     O_R   0.839000 0.775850 0.373720 -0.594630
O25   O     O_R   0.287290 0.775870 0.373700 -0.598607
O26   O     O_R   0.712710 0.224130 0.626300 -0.596122
O27   O     O_R   0.712710 0.775870 0.626300 -0.597365
O28   O     O_R   0.287290 0.224130 0.373700 -0.599467
O29   O     O_R   0.787290 0.275870 0.373700 -0.598607
O30   O     O_R   0.212710 0.724130 0.626300 -0.596122
O31   O     O_R   0.212710 0.275870 0.626300 -0.597365
O32   O     O_R   0.787290 0.724130 0.373700 -0.599467
O33   O     O_R   0.989830 0.545820 0.428700 -0.619216
O34   O     O_R   0.010170 0.454180 0.571300 -0.618698
O35   O     O_R   0.010170 0.545820 0.571300 -0.621782
O36   O     O_R   0.989830 0.454180 0.428700 -0.624392
O37   O     O_R   0.489830 0.045820 0.428700 -0.619216
O38   O     O_R   0.510170 0.954180 0.571300 -0.618698
O39   O     O_R   0.510170 0.045820 0.571300 -0.621782
O40   O     O_R   0.489830 0.954180 0.428700 -0.624392
O41   O     O_R   0.918540 0.545810 0.571290 -0.626966
O42   O     O_R   0.081460 0.454190 0.428710 -0.628332
O43   O     O_R   0.081460 0.545810 0.428710 -0.632441
O44   O     O_R   0.918540 0.454190 0.571290 -0.625208
O45   O     O_R   0.418540 0.045810 0.571290 -0.626966
O46   O     O_R   0.581460 0.954190 0.428710 -0.628332
O47   O     O_R   0.581460 0.045810 0.428710 -0.632441
O48   O     O_R   0.418540 0.954190 0.571290 -0.625208
Zn1   Zn    Zn3+2 0.284530 0.715470 0.500010 0.940970
Zn2   Zn    Zn3+2 0.715470 0.284530 0.499990 0.961857
Zn3   Zn    Zn3+2 0.715470 0.715470 0.499990 0.937700
Zn4   Zn    Zn3+2 0.284530 0.284530 0.500010 0.953824
Zn5   Zn    Zn3+2 0.784530 0.215470 0.500010 0.940970
Zn6   Zn    Zn3+2 0.215470 0.784530 0.499990 0.961857
Zn7   Zn    Zn3+2 0.215470 0.215470 0.499990 0.937701
Zn8   Zn    Zn3+2 0.784530 0.784530 0.500010 0.953824
Zn9   Zn    Zn3+2 0.047600 0.500000 0.404790 0.952052
Zn10  Zn    Zn3+2 0.952400 0.500000 0.595210 0.956464
Zn11  Zn    Zn3+2 0.547600 1.000000 0.404790 0.952052
Zn12  Zn    Zn3+2 0.452400 1.000000 0.595210 0.956464
N1    N     N_2   0.211038 0.824665 0.697974 -0.318947
H41   H     H_    0.162424 0.825484 0.746703 0.220711
C129  C     C_3   0.232969 0.797721 0.726776 -0.769081
H42   H     H_    0.211492 0.764727 0.746735 0.244972
H43   H     H_    0.219394 0.812868 0.786941 0.236623
H44   H     H_    0.285101 0.793586 0.669950 0.249598
N2    N     N_2   0.810548 0.146374 0.334953 -0.289806
H45   H     H_    0.843580 0.162501 0.273069 0.210536
C130  C     C_3   0.840438 0.122578 0.354768 -0.691245
H46   H     H_    0.868547 0.145258 0.354685 0.243171
H47   H     H_    0.872988 0.096934 0.301874 0.198354
H48   H     H_    0.804172 0.106915 0.423398 0.238780
N3    N     N_2   0.803500 0.870432 0.354425 -0.283465
H49   H     H_    0.840449 0.879183 0.344539 0.223463
C131  C     C_3   0.824625 0.859052 0.269232 -0.806290
H50   H     H_    0.786946 0.841289 0.283117 0.241978
H51   H     H_    0.866831 0.837542 0.227646 0.242598
H52   H     H_    0.837857 0.889051 0.228754 0.238609
N4    N     N_2   0.195302 0.126828 0.650934 -0.303862
H53   H     H_    0.201089 0.156530 0.667248 0.211042
C132  C     C_3   0.144427 0.123991 0.659058 -0.701976
H54   H     H_    0.163018 0.128121 0.590794 0.243293
H55   H     H_    0.108922 0.150028 0.706155 0.237779
H56   H     H_    0.119355 0.092327 0.689752 0.208136
N5    N     N_2   0.711038 0.324665 0.697974 -0.318947
H57   H     H_    0.662424 0.325484 0.746703 0.220711
C133  C     C_3   0.732969 0.297721 0.726776 -0.769082
H58   H     H_    0.711492 0.264727 0.746735 0.244971
H59   H     H_    0.719393 0.312868 0.786942 0.236624
H60   H     H_    0.785101 0.293586 0.669951 0.249599
N6    N     N_2   0.310548 0.646374 0.334953 -0.289806
H61   H     H_    0.343580 0.662501 0.273069 0.210536
C134  C     C_3   0.340438 0.622578 0.354768 -0.691246
H62   H     H_    0.368547 0.645258 0.354684 0.243171
H63   H     H_    0.372988 0.596934 0.301874 0.198355
H64   H     H_    0.304172 0.606915 0.423398 0.238780
N7    N     N_2   0.303500 0.370432 0.354426 -0.283465
H65   H     H_    0.340448 0.379183 0.344539 0.223463
C135  C     C_3   0.324625 0.359052 0.269232 -0.806288
H66   H     H_    0.286946 0.341289 0.283116 0.241978
H67   H     H_    0.366830 0.337542 0.227647 0.242598
H68   H     H_    0.337858 0.389051 0.228753 0.238608
N8    N     N_2   0.695302 0.626828 0.650934 -0.303861
H69   H     H_    0.701089 0.656530 0.667248 0.211042
C136  C     C_3   0.644427 0.623991 0.659058 -0.701976
H70   H     H_    0.663018 0.628121 0.590794 0.243293
H71   H     H_    0.608922 0.650028 0.706155 0.237779
H72   H     H_    0.619355 0.592327 0.689751 0.208136

loop_
_geom_bond_atom_site_label_1
_geom_bond_atom_site_label_2
_ccdc_geom_bond_type
C99   C107  A    
O1    Zn1   S    
C133  H59   S    
O15   Zn4   S    
C41   H33   S    
C70   C78   S    
N2    C130  S    
C129  H42   S    
C69   C77   S    
C81   C89   S    
O6    Zn6   S    
C36   H4    S    
C108  C116  A    
O5    Zn5   S    
C110  C118  A    
C71   C79   S    
C45   H37   S    
C109  C117  A    
O34   Zn10  S    
C100  N4    S    
C39   H7    S    
C102  N6    S    
O33   Zn9   S    
C40   H8    S    
C84   C92   S    
C11   C19   A    
C132  H54   S    
O48   Zn12  S    
C121  H25   S    
C106  C114  A    
C42   H34   S    
C105  C113  A    
C4    O12   A    
C134  H63   S    
C52   C61   S    
O22   Zn6   S    
O40   Zn11  S    
O43   Zn9   S    
C134  H62   S    
C135  H68   S    
O21   Zn5   S    
C106  H10   S    
C100  C108  A    
C101  C109  A    
N8    H69   S    
C66   C74   S    
C130  H47   S    
C115  H19   S    
C136  H72   S    
C65   C73   S    
C56   C57   S    
C30   C38   A    
O12   Zn7   S    
N8    C136  S    
N3    H49   S    
C5    O13   A    
C110  H14   S    
C3    O11   A    
C93   C95   T    
C34   H2    S    
C86   C94   S    
C131  H50   S    
C66   O26   A    
C85   C93   S    
C26   C34   A    
O16   Zn3   S    
C23   C103  A    
C98   N2    S    
C59   O43   A    
C34   C42   A    
C131  H51   S    
C87   C95   S    
C47   H39   S    
C29   C37   A    
C9    C121  A    
N2    H45   S    
O10   Zn5   S    
O37   Zn11  S    
C98   C106  A    
N3    C131  S    
O9    Zn6   S    
C89   C91   T    
C35   C43   A    
N7    H65   S    
C5    C29   S    
C46   C54   A    
O4    Zn4   S    
C111  H15   S    
C43   H35   S    
C13   C125  A    
C117  H21   S    
C8    O16   A    
C58   O42   A    
C133  H60   S    
C77   C85   T    
C16   C24   A    
C49   C64   S    
C15   C127  A    
C130  H46   S    
C80   C88   T    
C1    C25   S    
C50   C63   S    
C122  H26   S    
C76   C84   T    
C51   C62   S    
C61   O45   A    
C16   C56   A    
C74   C82   T    
C67   O27   A    
C11   C51   A    
C41   C49   A    
C4    C28   S    
C53   C60   S    
C67   O19   A    
O23   Zn7   S    
C13   C53   A    
C54   C59   S    
N4    C132  S    
C119  H23   S    
C10   C18   A    
C65   O17   A    
C132  H55   S    
C7    C31   S    
C62   O46   A    
C4    O4    A    
C13   C21   A    
C8    C32   S    
C115  C123  A    
O24   Zn8   S    
C2    C26   S    
C130  H48   S    
C69   O21   A    
C112  C120  A    
C19   C99   A    
O29   Zn2   S    
C103  N7    S    
C123  H27   S    
C6    O6    A    
O27   Zn8   S    
C27   C35   A    
C39   C47   A    
C21   C29   A    
C45   C53   A    
O44   Zn10  S    
C72   C80   S    
C7    O7    A    
C88   C96   S    
C24   C104  A    
C15   C55   A    
C99   N3    S    
C104  C112  A    
C101  N5    S    
C24   C32   A    
N1    H41   S    
C22   C30   A    
C72   O32   A    
O18   Zn2   S    
C108  H12   S    
C126  H30   S    
C90   C92   T    
C48   H40   S    
C124  H28   S    
O20   Zn4   S    
N4    H53   S    
C131  H52   S    
C69   O29   A    
C18   C26   A    
C12   C20   A    
C8    O8    A    
C136  H70   S    
C9    C49   A    
C68   O28   A    
O8    Zn8   S    
C82   C90   S    
C94   C96   T    
O46   Zn11  S    
C60   O44   A    
C114  H18   S    
C79   C87   T    
O17   Zn1   S    
C73   C81   T    
O26   Zn5   S    
C10   C122  A    
C63   O47   A    
C111  C119  A    
C9    C17   A    
C60   O36   A    
C6    C30   S    
C6    O14   A    
O28   Zn7   S    
C120  H24   S    
C113  H17   S    
C66   O18   A    
O38   Zn12  S    
O19   Zn3   S    
O42   Zn9   S    
C37   H5    S    
C36   C44   A    
O30   Zn1   S    
C67   C75   S    
O41   Zn10  S    
C37   C45   A    
C133  H58   S    
C10   C50   A    
C20   C28   A    
C35   H3    S    
C75   C83   T    
C32   C40   A    
C19   C27   A    
C128  H32   S    
C47   C55   A    
C33   H1    S    
C48   C56   A    
C68   O20   A    
C40   C48   A    
O25   Zn6   S    
C132  H56   S    
C97   N1    S    
C46   H38   S    
C42   C50   A    
C14   C54   A    
C2    O2    A    
C127  H31   S    
C5    O5    A    
C97   C105  A    
C64   O48   A    
C70   O22   A    
C11   C123  A    
O31   Zn4   S    
C112  H16   S    
C17   C25   A    
N6    C134  S    
C14   C126  A    
C44   C52   A    
C134  H64   S    
C109  H13   S    
C135  H66   S    
C120  C128  A    
C71   O31   A    
C103  C111  A    
C118  C126  A    
C68   C76   S    
C61   O37   A    
C57   O41   A    
C12   C52   A    
C22   C102  A    
C7    O15   A    
O11   Zn8   S    
C33   C41   A    
C14   C22   A    
C3    C27   S    
C104  N8    S    
C118  H22   S    
C21   C101  A    
N1    C129  S    
N7    C135  S    
C2    O10   A    
C135  H67   S    
C116  H20   S    
C3    O3    A    
N5    H57   S    
C17   C97   A    
C43   C51   A    
C102  C110  A    
C83   C91   S    
C15   C23   A    
C136  H71   S    
O47   Zn11  S    
C31   C39   A    
C107  C115  A    
C129  H44   S    
C125  H29   S    
C38   H6    S    
C65   O25   A    
C107  H11   S    
C18   C98   A    
C62   O38   A    
C38   C46   A    
C16   C128  A    
C25   C33   A    
C129  H43   S    
C105  H9    S    
C114  C122  A    
C59   O35   A    
O39   Zn12  S    
C113  C121  A    
C28   C36   A    
O14   Zn1   S    
C70   O30   A    
C78   C86   T    
N5    C133  S    
C55   C58   S    
C57   O33   A    
O13   Zn2   S    
O45   Zn12  S    
O32   Zn3   S    
O7    Zn7   S    
C64   O40   A    
C1    O1    A    
C63   O39   A    
C44   H36   S    
C71   O23   A    
O36   Zn9   S    
C116  C124  A    
C117  C125  A    
C1    O9    A    
C12   C124  A    
C72   O24   A    
O35   Zn10  S    
O3    Zn3   S    
N6    H61   S    
C58   O34   A    
C23   C31   A    
O2    Zn2   S    
C20   C100  A    
C119  C127  A    
