data_mof_unit_14185.cif
_audit_creation_date              2012-12-10T18:45:08-0500
_audit_creation_method            fapswitch 2.2
_symmetry_space_group_name_H-M    P1
_symmetry_Int_Tables_number       1
_space_group_crystal_system       triclinic
_cell_length_a                    10.716814
_cell_length_b                    9.808278
_cell_length_c                    10.666791
_cell_angle_alpha                 89.942392
_cell_angle_beta                  90.013529
_cell_angle_gamma                 89.998094
_cell_volume                      1121.22304101

loop_
_atom_site_label
_atom_site_type_symbol
_atom_type_description
_atom_site_fract_x
_atom_site_fract_y
_atom_site_fract_z
_atom_type_partial_charge
C1    C     C_R   0.259795 0.499959 0.499949 0.881610
C2    C     C_R   0.486309 0.500555 0.739894 0.928899
C3    C     C_R   0.573100 0.753506 0.107146 0.481341
C4    C     C_R   0.422211 0.751878 0.891855 0.482966
C5    C     C_R   0.536749 0.876782 0.050527 -0.332970
C6    C     C_R   0.456407 0.875922 0.948145 -0.330155
C7    C     C_R   0.471552 0.628001 0.940191 -0.021487
C8    C     C_R   0.525644 0.628591 0.059366 -0.020980
C9    C     C_R   0.526634 0.503242 0.125820 -0.068953
C10   C     C_R   0.472739 0.502682 0.874038 -0.069006
C11   C     C_R   0.511559 0.379349 0.063176 -0.228894
C12   C     C_R   0.740208 0.499956 0.500144 0.880485
C13   C     C_R   0.489719 0.379113 0.936935 -0.227546
C14   C     C_R   0.063912 0.378925 0.473905 -0.193830
C15   C     C_R   0.936083 0.378918 0.473966 -0.191288
C16   C     C_R   0.872604 0.499969 0.500180 -0.008292
C17   C     C_R   0.127408 0.499968 0.500117 -0.014564
C18   C     C_R   0.936096 0.621018 0.526440 -0.181040
C19   C     C_R   0.063941 0.621005 0.526464 -0.171612
C20   C     C_R   0.562790 0.071936 0.590433 -0.090096
C21   C     C_R   0.437195 0.072138 0.409577 -0.093218
C22   C     C_R   0.562782 0.927832 0.590436 -0.068046
C23   C     C_R   0.437210 0.928035 0.409571 -0.067016
C24   C     C_R   0.513486 0.500726 0.260038 0.927523
H1    H     H_    0.515701 0.282243 0.111597 0.166100
H2    H     H_    0.386961 0.126966 0.337430 0.130796
H3    H     H_    0.612924 0.872968 0.662628 0.132821
H4    H     H_    0.387075 0.873332 0.337375 0.135414
H5    H     H_    0.684285 0.847440 0.223055 0.326265
H6    H     H_    0.310238 0.843423 0.774923 0.324628
H7    H     H_    0.487252 0.281939 0.888697 0.166608
H8    H     H_    0.568594 0.973625 0.087281 0.154376
H9    H     H_    0.423081 0.972069 0.910996 0.155154
H10   H     H_    0.112636 0.284947 0.452579 0.157276
H11   H     H_    0.887351 0.284927 0.452722 0.158741
H12   H     H_    0.887356 0.714998 0.547720 0.156241
H13   H     H_    0.112701 0.714962 0.547805 0.166969
H14   H     H_    0.612997 0.126605 0.662593 0.132635
N1    N     N_R   0.500000 0.857200 0.500000 -0.071001
N2    N     N_R   0.500000 0.142810 0.500000 -0.078192
O1    O     O_R   0.316770 0.614620 0.499990 -0.612917
O2    O     O_3   0.334338 0.748747 0.796966 -0.758307
O3    O     O_R   0.683230 0.614620 0.500010 -0.610961
O4    O     O_R   0.316800 0.385290 0.500000 -0.630216
O5    O     O_R   0.683200 0.385290 0.500000 -0.631751
O6    O     O_R   0.500010 0.614690 0.316770 -0.581829
O7    O     O_R   0.499990 0.614690 0.683230 -0.584610
O8    O     O_R   0.500040 0.385360 0.316770 -0.644241
O9    O     O_R   0.499960 0.385360 0.683230 -0.642356
O10   O     O_3   0.661574 0.752267 0.201504 -0.752150
Zn1   Zn    Zn3+2 0.500000 0.653120 0.500000 0.990026
Zn2   Zn    Zn3+2 0.500000 0.346880 0.500000 0.940648

loop_
_geom_bond_atom_site_label_1
_geom_bond_atom_site_label_2
_ccdc_geom_bond_type
O4    Zn2   S    
C14   H10   S    
C7    C10   A    
N1    Zn1   S    
C21   H2    S    
C9    C24   S    
C2    O9    A    
O1    Zn1   S    
C2    O7    A    
C11   C13   A    
C1    O4    A    
C1    C17   S    
C6    H9    S    
C22   H3    S    
C5    H8    S    
C24   O6    A    
O9    Zn2   S    
C8    C9    A    
C7    C8    A    
C23   H4    S    
C9    C11   A    
C14   C17   A    
O3    Zn1   S    
C21   N2    A    
C4    O2    S    
C4    C7    A    
C23   N1    A    
C22   N1    A    
C15   H11   S    
C17   C19   A    
C3    O10   S    
C20   C22   A    
C3    C8    A    
C12   O3    A    
H5    O10   S    
C21   C23   A    
C5    C6    A    
C20   N2    A    
C4    C6    A    
C11   H1    S    
C15   C16   A    
C2    C10   S    
O8    Zn2   S    
C20   H14   S    
C16   C18   A    
C18   C19   A    
C1    O1    A    
C14   C15   A    
H6    O2    S    
O7    Zn1   S    
C19   H13   S    
O5    Zn2   S    
N2    Zn2   S    
C18   H12   S    
O6    Zn1   S    
C13   H7    S    
C12   C16   S    
C12   O5    A    
C3    C5    A    
C10   C13   A    
C24   O8    A    
