data_mof_unit_17586.cif
_audit_creation_date              2012-12-10T16:55:00-0500
_audit_creation_method            fapswitch 2.2
_symmetry_space_group_name_H-M    P1
_symmetry_Int_Tables_number       1
_space_group_crystal_system       triclinic
_cell_length_a                    7.770934
_cell_length_b                    8.573588
_cell_length_c                    15.72984
_cell_angle_alpha                 90.890977
_cell_angle_beta                  85.751732
_cell_angle_gamma                 93.655006
_cell_volume                      1042.9302706

loop_
_atom_site_label
_atom_site_type_symbol
_atom_type_description
_atom_site_fract_x
_atom_site_fract_y
_atom_site_fract_z
_atom_type_partial_charge
C1    C     C_R   0.545788 0.794735 0.497816 0.963176
C2    C     C_2   0.430109 0.041772 0.503447 -0.368920
C3    C     C_R   0.501905 0.500310 0.661568 0.896589
C4    C     C_R   0.454212 0.205264 0.502191 0.964026
C5    C     C_R   0.498165 0.500049 0.338433 0.904180
C6    C     C_3   0.393635 0.646856 0.955338 -0.069226
C7    C     C_3   0.692801 0.535396 0.944495 -0.414627
C8    C     C_3   0.692301 0.533795 0.043072 -0.086520
C9    C     C_1   0.495245 0.503747 0.249771 -0.132156
C10   C     C_3   0.505254 0.513238 0.917106 0.171703
C11   C     C_3   0.449289 0.810314 0.919221 -0.786408
C12   C     C_3   0.389918 0.643851 0.054443 0.520782
C13   C     C_3   0.798274 0.677168 0.076362 -0.726597
C14   C     C_3   0.501178 0.512120 0.082833 0.056639
C15   C     C_3   0.422544 0.353234 0.049914 0.343553
C16   C     C_3   0.424308 0.354607 0.951795 -0.532638
C17   C     C_1   0.496526 0.507631 0.174491 0.047478
C18   C     C_1   0.507127 0.508255 0.825502 -0.034191
C19   C     C_1   0.506295 0.503928 0.750235 -0.191551
C20   C     C_2   0.569892 0.958226 0.496573 -0.369452
F1    F     F_    0.443191 0.787147 0.089124 -0.665582
F2    F     F_    0.254479 0.323799 0.084839 -0.662805
H1    H     H_    0.258580 0.620774 0.937373 0.123438
H2    H     H_    0.760992 0.430049 0.060718 0.173312
H3    H     H_    0.290132 0.334092 0.931787 0.221626
H4    H     H_    0.499665 0.256846 0.924731 0.170832
H5    H     H_    0.357991 0.896530 0.945358 0.263205
H6    H     H_    0.581081 0.850192 0.936017 0.256970
H7    H     H_    0.446113 0.810305 0.848858 0.216929
H8    H     H_    0.935105 0.673446 0.050693 0.212074
H9    H     H_    0.749939 0.788249 0.055722 0.286606
H10   H     H_    0.796865 0.676852 0.146964 0.249197
H11   H     H_    0.253612 0.619219 0.080051 0.109760
H12   H     H_    0.499889 0.256487 0.069280 0.138245
H13   H     H_    0.701907 0.009300 0.490014 0.182344
H14   H     H_    0.298094 0.990697 0.510007 0.181553
H15   H     H_    0.013473 0.381891 0.436542 0.201184
H16   H     H_    0.986527 0.618113 0.563456 0.191191
H17   H     H_    0.769875 0.438754 0.917422 0.167204
H18   H     H_    0.757406 0.644976 0.917406 0.197783
N1    N     N_2   0.950340 0.457950 0.477370 -0.168834
N2    N     N_2   0.049660 0.542050 0.522630 -0.172970
O1    O     O_R   0.389240 0.738570 0.505550 -0.612848
O2    O     O_R   0.678400 0.711630 0.491050 -0.629231
O3    O     O_R   0.355360 0.513470 0.630110 -0.614559
O4    O     O_R   0.644510 0.486530 0.615610 -0.623484
O5    O     O_R   0.321600 0.288370 0.508950 -0.630494
O6    O     O_R   0.610760 0.261430 0.494450 -0.612715
O7    O     O_R   0.355490 0.513470 0.384390 -0.610231
O8    O     O_R   0.644640 0.486530 0.369890 -0.610269
Zn1   Zn    Zn3+2 0.306930 0.517990 0.509680 0.956967
Zn2   Zn    Zn3+2 0.693070 0.482010 0.490320 0.957761

loop_
_geom_bond_atom_site_label_1
_geom_bond_atom_site_label_2
_ccdc_geom_bond_type
C6    C10   S    
C7    C10   S    
O8    Zn2   S    
C7    H18   S    
C15   H12   S    
C5    C9    S    
C8    C13   S    
C16   H3    S    
N1    N2    D    
C13   H10   S    
C2    C4    S    
N1    Zn2   S    
C11   H5    S    
N2    Zn1   S    
O1    Zn1   S    
O2    Zn2   S    
C3    O3    A    
C7    C8    S    
C10   C16   S    
C3    C19   S    
C14   C17   S    
C5    O7    A    
C11   H6    S    
C10   C18   S    
H15   N1    S    
C6    H1    S    
C6    C12   S    
C9    C17   T    
C8    H2    S    
C12   C14   S    
H16   N2    S    
C16   H4    S    
C8    C14   S    
C5    O8    A    
O3    Zn1   S    
C3    O4    A    
C2    C20   D    
C15   C16   S    
O4    Zn2   S    
C13   H8    S    
O6    Zn2   S    
C11   H7    S    
C18   C19   T    
C4    O6    A    
C2    H14   S    
C6    C11   S    
C13   H9    S    
C14   C15   S    
C1    C20   S    
C7    H17   S    
C1    O2    A    
C12   H11   S    
C20   H13   S    
C12   F1    S    
C1    O1    A    
C15   F2    S    
O5    Zn1   S    
O7    Zn1   S    
C4    O5    A    
