data_mof_unit_43590.cif
_audit_creation_date              2013-03-05T15:45:45-0500
_audit_creation_method            fapswitch 2.2
_symmetry_space_group_name_H-M    P1
_symmetry_Int_Tables_number       1
_space_group_crystal_system       triclinic
_cell_length_a                    19.127126
_cell_length_b                    11.008092
_cell_length_c                    18.929726
_cell_angle_alpha                 90.000072
_cell_angle_beta                  90.894989
_cell_angle_gamma                 90.000169
_cell_volume                      3985.22743087

loop_
_atom_site_label
_atom_site_type_symbol
_atom_site_description
_atom_site_fract_x
_atom_site_fract_y
_atom_site_fract_z
_atom_type_partial_charge
O1    O     O_R   0.214270 0.709000 0.827470 -0.501514
O2    O     O_R   0.785730 0.709000 0.172530 -0.501513
O3    O     O_R   0.714270 0.209000 0.827470 -0.501514
O4    O     O_R   0.285730 0.209000 0.172530 -0.501515
O5    O     O_R   0.236160 0.958490 0.823130 -0.500762
O6    O     O_R   0.763840 0.958490 0.176870 -0.500758
O7    O     O_R   0.736160 0.458490 0.823130 -0.500761
O8    O     O_R   0.263840 0.458490 0.176870 -0.500759
C1    C     C_R   0.273460 0.040568 0.854585 0.596547
C2    C     C_R   0.726540 0.040568 0.145415 0.596543
C3    C     C_R   0.773460 0.540569 0.854585 0.596545
C4    C     C_R   0.226540 0.540568 0.145415 0.596544
O9    O     O_R   0.332080 0.075470 0.831280 -0.439990
O10   O     O_R   0.667920 0.075470 0.168720 -0.439995
O11   O     O_R   0.832080 0.575470 0.831280 -0.439990
O12   O     O_R   0.167920 0.575470 0.168720 -0.439993
O13   O     O_R   0.446300 0.918110 0.826620 -0.423955
O14   O     O_R   0.553700 0.918110 0.173380 -0.423951
O15   O     O_R   0.946300 0.418110 0.826620 -0.423955
O16   O     O_R   0.053700 0.418110 0.173380 -0.423952
C5    C     C_R   0.445143 0.817492 0.862686 0.630568
C6    C     C_R   0.554859 0.817491 0.137314 0.630565
C7    C     C_R   0.945143 0.317491 0.862686 0.630568
C8    C     C_R   0.054858 0.317491 0.137314 0.630567
O17   O     O_R   0.457110 0.716200 0.831760 -0.487501
O18   O     O_R   0.542890 0.716200 0.168240 -0.487507
O19   O     O_R   0.957110 0.216200 0.831760 -0.487500
O20   O     O_R   0.042890 0.216200 0.168240 -0.487503
O21   O     O_R   0.320980 0.624310 0.823030 -0.458230
O22   O     O_R   0.679020 0.624310 0.176970 -0.458237
O23   O     O_R   0.820980 0.124310 0.823030 -0.458232
O24   O     O_R   0.179020 0.124310 0.176970 -0.458234
C9    C     C_R   0.261597 0.638130 0.852019 0.612248
C10   C     C_R   0.738402 0.638129 0.147981 0.612238
C11   C     C_R   0.761597 0.138130 0.852019 0.612248
C12   C     C_R   0.238403 0.138129 0.147981 0.612243
O25   O     O_R   0.213890 0.710430 0.665540 -0.518184
O26   O     O_R   0.786110 0.710430 0.334460 -0.518184
O27   O     O_R   0.713890 0.210430 0.665540 -0.518185
O28   O     O_R   0.286110 0.210430 0.334460 -0.518185
O29   O     O_R   0.235810 0.959820 0.673020 -0.500267
O30   O     O_R   0.764190 0.959820 0.326980 -0.500267
O31   O     O_R   0.735810 0.459820 0.673020 -0.500266
O32   O     O_R   0.264190 0.459820 0.326980 -0.500267
C13   C     C_R   0.271361 0.045722 0.646361 0.554040
C14   C     C_R   0.728639 0.045722 0.353639 0.554038
C15   C     C_R   0.771361 0.545722 0.646361 0.554039
C16   C     C_R   0.228639 0.545722 0.353639 0.554038
O33   O     O_R   0.331700 0.076900 0.669350 -0.524312
O34   O     O_R   0.668300 0.076900 0.330650 -0.524314
O35   O     O_R   0.831700 0.576900 0.669350 -0.524312
O36   O     O_R   0.168300 0.576900 0.330650 -0.524313
O37   O     O_R   0.445950 0.919440 0.676520 -0.511673
O38   O     O_R   0.554050 0.919440 0.323480 -0.511671
O39   O     O_R   0.945950 0.419440 0.676520 -0.511672
O40   O     O_R   0.054050 0.419440 0.323480 -0.511672
C17   C     C_R   0.470082 0.823059 0.646761 0.570476
C18   C     C_R   0.529918 0.823059 0.353239 0.570477
C19   C     C_R   0.970082 0.323059 0.646761 0.570476
C20   C     C_R   0.029918 0.323059 0.353239 0.570477
O41   O     O_R   0.456730 0.717630 0.669840 -0.444977
O42   O     O_R   0.543270 0.717630 0.330160 -0.444975
O43   O     O_R   0.956730 0.217630 0.669840 -0.444976
O44   O     O_R   0.043270 0.217630 0.330160 -0.444975
O45   O     O_R   0.320620 0.625640 0.672920 -0.498044
O46   O     O_R   0.679380 0.625640 0.327080 -0.498044
O47   O     O_R   0.820620 0.125640 0.672920 -0.498045
O48   O     O_R   0.179380 0.125640 0.327080 -0.498045
C21   C     C_R   0.260949 0.641177 0.642243 0.548638
C22   C     C_R   0.739051 0.641178 0.357757 0.548638
C23   C     C_R   0.760949 0.141177 0.642244 0.548638
C24   C     C_R   0.239051 0.141177 0.357756 0.548638
Cr1   Cr    Cr6+3 0.229630 0.835900 0.747350 1.100197
Cr2   Cr    Cr6+3 0.770370 0.835900 0.252650 1.100197
Cr3   Cr    Cr6+3 0.729630 0.335900 0.747350 1.100197
Cr4   Cr    Cr6+3 0.270370 0.335900 0.252650 1.100196
Cr5   Cr    Cr6+3 0.387410 0.989850 0.750850 1.146552
Cr6   Cr    Cr6+3 0.612590 0.989850 0.249150 1.146548
Cr7   Cr    Cr6+3 0.887410 0.489850 0.750850 1.146552
Cr8   Cr    Cr6+3 0.112590 0.489850 0.249150 1.146550
Cr9   Cr    Cr6+3 0.385800 0.677120 0.749340 1.160334
Cr10  Cr    Cr6+3 0.614200 0.677120 0.250660 1.160329
Cr11  Cr    Cr6+3 0.885800 0.177120 0.749340 1.160333
Cr12  Cr    Cr6+3 0.114200 0.177120 0.250660 1.160331
O49   O     O_3   0.334280 0.834290 0.749180 -0.324529
O50   O     O_3   0.665720 0.834290 0.250820 -0.324528
O51   O     O_3   0.834280 0.334290 0.749180 -0.324529
O52   O     O_3   0.165720 0.334290 0.250820 -0.324529
C25   C     C_3   0.477364 0.921861 0.033894 0.214977
C26   C     C_3   0.522639 0.921862 0.966106 0.214975
C27   C     C_3   0.977364 0.421861 0.033894 0.214976
C28   C     C_3   0.022638 0.421861 0.966105 0.214975
C29   C     C_3   0.431355 0.822206 0.001584 0.146211
C30   C     C_3   0.568648 0.822207 0.998415 0.146208
C31   C     C_3   0.931355 0.322206 0.001584 0.146210
C32   C     C_3   0.068647 0.322206 0.998415 0.146209
C33   C     C_3   0.475371 0.822643 0.934202 -0.034344
C34   C     C_3   0.524632 0.822642 0.065796 -0.034343
C35   C     C_3   0.975370 0.322643 0.934203 -0.034344
C36   C     C_3   0.024631 0.322642 0.065797 -0.034341
C37   C     C_3   0.522686 0.721808 0.966050 -0.121438
C38   C     C_3   0.477317 0.721806 0.033947 -0.121439
C39   C     C_3   0.022685 0.221807 0.966051 -0.121439
C40   C     C_3   0.977316 0.221806 0.033948 -0.121440
C41   C     C_R   0.306299 0.538010 0.964069 0.211116
C42   C     C_R   0.693696 0.538017 0.035928 0.211113
C43   C     C_R   0.806299 0.038010 0.964069 0.211118
C44   C     C_R   0.193698 0.038014 0.035929 0.211114
C45   C     C_R   0.300707 0.528389 0.037808 -0.093255
C46   C     C_R   0.699290 0.528396 0.962190 -0.093253
C47   C     C_R   0.800708 0.028389 0.037808 -0.093254
C48   C     C_R   0.199292 0.028393 0.962191 -0.093256
H1    H     H_    0.339804 0.477267 0.067250 0.169331
H2    H     H_    0.660191 0.477283 0.932745 0.169341
H3    H     H_    0.839804 0.977267 0.067250 0.169333
H4    H     H_    0.160193 0.977277 0.932747 0.169336
C49   C     C_R   0.242000 0.576391 0.072244 0.035228
C50   C     C_R   0.758001 0.576390 0.927756 0.035229
C51   C     C_R   0.742000 0.076390 0.072244 0.035226
C52   C     C_R   0.258001 0.076390 0.927756 0.035230
C53   C     C_R   0.191097 0.640697 0.031735 0.221253
C54   C     C_R   0.808906 0.640689 0.968267 0.221257
C55   C     C_R   0.691097 0.140696 0.031735 0.221250
C56   C     C_R   0.308906 0.140691 0.968267 0.221258
C57   C     C_R   0.199666 0.655239 0.960915 -0.048638
C58   C     C_R   0.800337 0.655223 0.039088 -0.048643
C59   C     C_R   0.699666 0.155237 0.960915 -0.048636
C60   C     C_R   0.300337 0.155227 0.039088 -0.048643
H5    H     H_    0.160722 0.708556 0.932982 0.211088
H6    H     H_    0.839284 0.708532 0.067022 0.211095
H7    H     H_    0.660722 0.208554 0.932982 0.211090
H8    H     H_    0.339283 0.208539 0.067021 0.211092
C61   C     C_R   0.254196 0.600894 0.925427 0.044981
C62   C     C_R   0.745803 0.600888 0.074573 0.044973
C63   C     C_R   0.754196 0.100893 0.925427 0.044981
C64   C     C_R   0.245804 0.100889 0.074573 0.044976
C65   C     C_R   0.503913 0.716887 0.536658 0.194035
C66   C     C_R   0.496088 0.716886 0.463342 0.194036
C67   C     C_R   0.003912 0.216887 0.536658 0.194035
C68   C     C_R   0.996088 0.216887 0.463342 0.194035
C69   C     C_R   0.503197 0.827631 0.425855 -0.020023
C70   C     C_R   0.496804 0.827631 0.574145 -0.020022
C71   C     C_R   0.003197 0.327631 0.425855 -0.020022
C72   C     C_R   0.996803 0.327631 0.574145 -0.020022
C73   C     C_R   0.503347 0.937746 0.463332 -0.180693
C74   C     C_R   0.496653 0.937746 0.536669 -0.180693
C75   C     C_R   0.003347 0.437746 0.463331 -0.180692
C76   C     C_R   0.996653 0.437746 0.536669 -0.180692
H9    H     H_    0.508817 0.023591 0.436013 0.164125
H10   H     H_    0.491183 0.023591 0.563987 0.164125
H11   H     H_    0.008817 0.523591 0.436013 0.164127
H12   H     H_    0.991183 0.523591 0.563987 0.164127
C77   C     C_R   0.205700 0.679292 0.527852 -0.132229
C78   C     C_R   0.794299 0.679297 0.472149 -0.132227
C79   C     C_R   0.705696 0.179285 0.527853 -0.132230
C80   C     C_R   0.294302 0.179289 0.472148 -0.132229
H13   H     H_    0.169281 0.742193 0.551213 0.151089
H14   H     H_    0.830716 0.742200 0.448788 0.151088
H15   H     H_    0.669275 0.242182 0.551214 0.151090
H16   H     H_    0.330721 0.242188 0.448786 0.151090
C81   C     C_R   0.205052 0.670636 0.455826 -0.137962
C82   C     C_R   0.794947 0.670639 0.544175 -0.137961
C83   C     C_R   0.705048 0.170631 0.455827 -0.137963
C84   C     C_R   0.294950 0.170634 0.544173 -0.137962
C85   C     C_R   0.248401 0.586467 0.423370 0.046237
C86   C     C_R   0.751598 0.586468 0.576631 0.046239
C87   C     C_R   0.748401 0.086468 0.423370 0.046236
C88   C     C_R   0.251599 0.086467 0.576630 0.046237
C89   C     C_R   0.297860 0.520159 0.463284 -0.086047
C90   C     C_R   0.702140 0.520158 0.536716 -0.086043
C91   C     C_R   0.797861 0.020163 0.463284 -0.086051
C92   C     C_R   0.202139 0.020160 0.536716 -0.086048
C93   C     C_R   0.300364 0.532381 0.536061 -0.122954
C94   C     C_R   0.699636 0.532379 0.463938 -0.122953
C95   C     C_R   0.800365 0.032383 0.536061 -0.122958
C96   C     C_R   0.199635 0.032381 0.463938 -0.122956
C97   C     C_R   0.253255 0.610414 0.568598 0.025817
C98   C     C_R   0.746745 0.610416 0.431402 0.025817
C99   C     C_R   0.753254 0.110412 0.568598 0.025817
C100  C     C_R   0.246746 0.110413 0.431402 0.025816
N1    N     N_R   0.355513 0.823409 0.004200 0.064090
O53   O     O_R   0.318855 0.836179 0.946533 -0.421556
O54   O     O_R   0.324223 0.818228 0.064580 -0.323092
N2    N     N_R   0.644490 0.823411 0.995799 0.064090
O55   O     O_R   0.681148 0.836176 0.053466 -0.421553
O56   O     O_R   0.675780 0.818232 0.935418 -0.323085
N3    N     N_R   0.855512 0.323410 0.004200 0.064090
O57   O     O_R   0.818855 0.336179 0.946533 -0.421556
O58   O     O_R   0.824222 0.318229 0.064580 -0.323095
N4    N     N_R   0.144490 0.323410 0.995800 0.064091
O59   O     O_R   0.181147 0.336176 0.053466 -0.421553
O60   O     O_R   0.175780 0.318229 0.935419 -0.323084
H17   H     H_    0.166873 0.723511 0.426131 0.151018
H18   H     H_    0.833125 0.723516 0.573870 0.151018
H19   H     H_    0.666867 0.223503 0.426133 0.151019
H20   H     H_    0.333130 0.223508 0.573868 0.151019
H21   H     H_    0.331952 0.454655 0.438820 0.176309
H22   H     H_    0.668049 0.454651 0.561179 0.176306
H23   H     H_    0.831955 0.954663 0.438819 0.176313
H24   H     H_    0.168046 0.954658 0.561180 0.176310
H25   H     H_    0.338071 0.480471 0.566756 0.172681
H26   H     H_    0.661930 0.480468 0.433243 0.172680
H27   H     H_    0.838074 0.980477 0.566755 0.172685
H28   H     H_    0.161928 0.980473 0.433244 0.172682
N5    N     N_R   0.446650 0.016625 0.078041 0.125683
O61   O     O_R   0.459567 0.130763 0.067481 -0.195106
O62   O     O_R   0.410941 0.985793 0.133136 -0.299638
N6    N     N_R   0.553352 0.016626 0.921959 0.125687
O63   O     O_R   0.540437 0.130765 0.932520 -0.195102
O64   O     O_R   0.589061 0.985795 0.866864 -0.299636
N7    N     N_R   0.946651 0.516625 0.078040 0.125682
O65   O     O_R   0.959568 0.630763 0.067481 -0.195106
O66   O     O_R   0.910941 0.485794 0.133135 -0.299640
N8    N     N_R   0.053352 0.516625 0.921959 0.125688
O67   O     O_R   0.040438 0.630764 0.932520 -0.195105
O68   O     O_R   0.089062 0.485793 0.866864 -0.299635
H29   H     H_    0.543131 0.642058 0.937048 0.220758
H30   H     H_    0.456872 0.642052 0.062946 0.220749
H31   H     H_    0.043130 0.142056 0.937050 0.220755
H32   H     H_    0.956871 0.142053 0.062946 0.220748
N9    N     N_R   0.364796 0.485448 0.929206 0.109272
O69   O     O_R   0.427736 0.501337 0.954323 -0.291252
O70   O     O_R   0.355167 0.417447 0.873571 -0.264082
N10   N     N_R   0.635188 0.485477 0.070786 0.109256
O71   O     O_R   0.572256 0.501320 0.045633 -0.291269
O72   O     O_R   0.644801 0.417483 0.126427 -0.264070
N11   N     N_R   0.864797 0.985448 0.929206 0.109273
O73   O     O_R   0.927737 0.001337 0.954325 -0.291259
O74   O     O_R   0.855168 0.917448 0.873571 -0.264082
N12   N     N_R   0.135194 0.985464 0.070789 0.109263
O75   O     O_R   0.072259 0.001327 0.045651 -0.291269
O76   O     O_R   0.144814 0.917468 0.126428 -0.264077
N13   N     N_R   0.123053 0.668050 0.056806 0.132516
O77   O     O_R   0.085111 0.576111 0.073632 -0.280428
O78   O     O_R   0.090722 0.764774 0.034859 -0.182461
N14   N     N_R   0.876949 0.668050 0.943195 0.132519
O79   O     O_R   0.914893 0.576117 0.926365 -0.280421
O80   O     O_R   0.909278 0.764774 0.965145 -0.182473
N15   N     N_R   0.623053 0.168049 0.056806 0.132511
O81   O     O_R   0.585111 0.076111 0.073632 -0.280429
O82   O     O_R   0.590723 0.264774 0.034859 -0.182454
N16   N     N_R   0.376949 0.168050 0.943195 0.132520
O83   O     O_R   0.414892 0.076116 0.926365 -0.280422
O84   O     O_R   0.409278 0.264774 0.965144 -0.182471
N17   N     N_R   0.517941 0.604297 0.572840 0.112890
O85   O     O_R   0.569480 0.597894 0.618379 -0.337317
O86   O     O_R   0.474768 0.513389 0.567047 -0.313828
N18   N     N_R   0.482061 0.604296 0.427160 0.112890
O87   O     O_R   0.430521 0.597892 0.381622 -0.337318
O88   O     O_R   0.525235 0.513389 0.432954 -0.313828
N19   N     N_R   0.017941 0.104297 0.572840 0.112888
O89   O     O_R   0.069480 0.097895 0.618379 -0.337319
O90   O     O_R   0.974768 0.013389 0.567047 -0.313830
N20   N     N_R   0.982059 0.104297 0.427160 0.112887
O91   O     O_R   0.930521 0.097894 0.381620 -0.337321
O92   O     O_R   0.025232 0.013388 0.432954 -0.313828

loop_
_geom_bond_atom_site_label_1
_geom_bond_atom_site_label_2
_geom_bond_distance
_ccdc_geom_bond_type
C18   O42   1.267478 A    
Cr11  O51   1.991079 S    
C65   C70   1.418177 A    
O4    C12   1.277067 A    
O47   Cr11  1.977816 S    
N4    O59   1.295790 A    
C6    C34   1.464863 S    
O39   C19   1.290034 A    
O20   Cr12  2.100752 S    
C96   H28   1.082225 S    
C54   N14   1.424457 S    
N15   O81   1.288258 A    
C18   C69   1.474864 S    
C68   C71   1.418179 A    
C36   C40   1.548408 S    
C72   C76   1.404468 A    
N10   O71   1.299278 A    
C46   C50   1.409935 A    
C85   C89   1.405805 A    
O26   C22   1.264206 A    
C73   C74   1.396132 A    
O1    C9    1.277064 A    
N19   O89   1.301277 A    
C44   N12   1.430148 S    
N1    O53   1.295788 A    
N14   O79   1.288256 A    
C71   C75   1.404468 A    
C96   C100  1.395164 A    
C37   C38   1.561989 S    
C17   C70   1.474865 S    
O36   Cr8   2.093437 S    
C37   H29   1.109831 S    
O24   C12   1.278217 A    
C47   C51   1.409940 A    
C59   H7    1.080102 S    
C59   C63   1.385232 A    
C78   H14   1.081592 S    
O25   C21   1.264208 A    
C60   C64   1.385232 A    
C20   C71   1.474864 S    
O30   C14   1.273568 A    
C31   C35   1.539247 S    
N19   O90   1.300980 A    
C48   H4    1.083283 S    
C8    C36   1.464862 S    
C10   C62   1.457801 S    
C23   C99   1.439935 S    
N14   O80   1.296409 A    
O21   C9    1.278223 A    
C28   C32   1.528113 S    
C65   N17   1.439267 S    
N2    O55   1.295789 A    
C93   H25   1.082225 S    
C50   C54   1.419078 A    
C32   N4    1.452329 S    
O32   Cr4   1.964632 S    
C77   C97   1.405439 A    
C70   C74   1.404469 A    
O44   Cr12  2.089978 S    
C51   C55   1.419078 A    
C1    O9    1.270767 A    
C2    C51   1.474525 S    
C75   C76   1.396134 A    
C21   C97   1.439934 S    
C53   C57   1.362565 A    
C74   H10   1.083087 S    
C3    O11   1.270767 A    
C42   N10   1.430155 S    
C16   C85   1.439041 S    
C4    O12   1.270775 A    
C30   C37   1.533893 S    
C79   C99   1.405441 A    
N6    O63   1.296610 A    
C43   N11   1.430138 S    
C43   C63   1.408775 A    
C28   N8    1.465269 S    
N5    O61   1.296610 A    
O6    Cr2   1.972025 S    
C83   H19   1.084076 S    
C27   C36   1.535569 S    
C12   C64   1.457801 S    
O3    Cr3   2.086113 S    
N13   O77   1.288257 A    
C46   H2    1.083285 S    
C26   C33   1.535568 S    
O47   C23   1.283905 A    
O2    Cr2   2.086111 S    
O8    Cr4   1.972025 S    
C45   H1    1.083283 S    
C56   C60   1.362565 A    
C44   C48   1.405602 A    
O2    C10   1.277072 A    
C67   C72   1.418177 A    
N1    O54   1.299706 A    
O42   Cr10  2.089978 S    
Cr5   O49   1.991251 S    
O18   Cr10  2.100752 S    
O27   C23   1.264208 A    
C94   C98   1.395165 A    
Cr8   O52   1.991255 S    
O17   Cr9   2.100750 S    
N12   O75   1.299270 A    
C30   N2    1.452329 S    
N18   O87   1.301278 A    
C60   H8    1.080101 S    
C58   C62   1.385233 A    
Cr7   O51   1.991251 S    
C41   C45   1.405601 A    
N18   O88   1.300980 A    
Cr9   O49   1.991079 S    
C26   C30   1.528113 S    
C89   H21   1.081228 S    
C55   N15   1.424449 S    
N5    O62   1.300643 A    
O31   Cr3   1.964634 S    
O24   Cr12  1.968495 S    
C25   N5    1.465267 S    
O30   Cr2   1.964632 S    
N3    O58   1.299705 A    
C14   C87   1.439043 S    
O22   C10   1.278214 A    
C92   C96   1.384289 A    
O48   Cr12  1.977817 S    
Cr12  O52   1.991073 S    
C84   C88   1.392606 A    
O32   C16   1.273565 A    
C27   N7    1.465267 S    
C35   C39   1.548405 S    
C2    O10   1.270777 A    
C11   C63   1.457799 S    
N16   O84   1.296409 A    
C48   C52   1.409939 A    
C58   H6    1.080101 S    
O16   Cr8   1.974635 S    
N8    O67   1.296610 A    
C22   C98   1.439935 S    
C15   O35   1.274144 A    
C79   C83   1.366612 A    
C34   C38   1.548408 S    
C79   H15   1.081594 S    
O11   Cr7   2.092064 S    
N20   O92   1.300980 A    
O13   C5    1.301490 A    
Cr4   O52   2.001491 S    
O40   C20   1.290034 A    
C77   C81   1.366614 A    
O48   C24   1.283905 A    
O12   Cr8   2.092061 S    
C54   C58   1.362563 A    
C83   C87   1.392609 A    
N7    O65   1.296610 A    
O5    C1    1.290983 A    
N9    O69   1.299257 A    
C53   N13   1.424452 S    
C9    C61   1.457796 S    
N12   O76   1.302827 A    
O46   Cr10  1.977817 S    
O39   Cr7   1.970655 S    
C7    C35   1.464857 S    
C42   C62   1.408789 A    
O7    C3    1.290983 A    
N11   O73   1.299257 A    
C94   H26   1.082226 S    
O3    C11   1.277064 A    
O8    C4    1.290982 A    
N7    O66   1.300644 A    
C33   C37   1.548405 S    
C82   H18   1.084076 S    
O13   Cr5   1.974638 S    
C13   O33   1.274143 A    
O23   Cr11  1.968495 S    
C81   H17   1.084073 S    
N15   O82   1.296405 A    
O7    Cr3   1.972022 S    
O29   C13   1.273566 A    
Cr2   O50   2.001491 S    
O15   Cr7   1.974638 S    
N13   O78   1.296406 A    
Cr1   O49   2.001491 S    
C26   N6    1.465269 S    
Cr3   O51   2.001491 S    
O14   Cr6   1.974635 S    
N11   O74   1.302823 A    
O21   Cr9   1.968495 S    
C31   N3    1.452329 S    
C7    O19   1.281628 A    
C78   C98   1.405443 A    
C57   H5    1.080102 S    
C95   C99   1.395167 A    
O37   Cr5   1.970655 S    
O38   C18   1.290034 A    
O23   C11   1.278222 A    
C19   O43   1.267478 A    
C45   C49   1.409941 A    
C68   N20   1.439266 S    
C24   C100  1.439934 S    
C56   N16   1.424455 S    
C29   C33   1.539247 S    
C55   C59   1.362564 A    
C90   H22   1.081231 S    
C31   C40   1.533894 S    
O15   C7    1.301492 A    
C8    O20   1.281632 A    
C41   C61   1.408773 A    
O26   Cr2   2.093334 S    
C88   C92   1.405803 A    
C57   C61   1.385232 A    
C15   C86   1.439040 S    
C5    O17   1.281629 A    
O37   C17   1.290034 A    
O22   Cr10  1.968495 S    
O28   C24   1.264207 A    
N16   O83   1.288258 A    
O14   C6    1.301494 A    
C43   C47   1.405601 A    
N4    O60   1.299706 A    
C78   C82   1.366615 A    
O5    Cr1   1.972022 S    
C67   N19   1.439267 S    
C76   H12   1.083087 S    
C91   H23   1.081231 S    
C66   C69   1.418179 A    
N10   O72   1.302831 A    
C29   C38   1.533894 S    
C19   C72   1.474864 S    
C87   C91   1.405802 A    
C67   C68   1.393568 A    
C84   H20   1.084074 S    
C17   O41   1.267478 A    
C25   C29   1.528112 S    
C90   C94   1.384288 A    
C49   C53   1.419080 A    
C65   C66   1.393568 A    
C14   O34   1.274144 A    
O25   Cr1   2.093329 S    
O40   Cr8   1.970654 S    
C44   C64   1.408782 A    
C25   C34   1.535571 S    
C20   O44   1.267478 A    
O1    Cr1   2.086113 S    
N20   O91   1.301278 A    
N17   O86   1.300980 A    
C25   C26   1.559253 S    
N8    O68   1.300644 A    
C95   H27   1.082226 S    
N3    O57   1.295790 A    
N9    O70   1.302825 A    
N6    O64   1.300645 A    
Cr10  O50   1.991073 S    
O33   Cr5   2.093443 S    
O9    Cr5   2.092064 S    
C47   H3    1.083283 S    
C80   C100  1.405438 A    
C89   C93   1.384287 A    
Cr6   O50   1.991255 S    
O46   C22   1.283904 A    
C40   H32   1.109831 S    
C91   C95   1.384288 A    
O45   C21   1.283905 A    
C75   H11   1.083087 S    
C32   C36   1.539250 S    
O34   Cr6   2.093437 S    
O19   Cr11  2.100750 S    
C69   C73   1.404468 A    
C86   C90   1.405805 A    
N2    O56   1.299707 A    
C92   H24   1.081228 S    
C29   N1    1.452329 S    
O10   Cr6   2.092061 S    
C77   H13   1.081591 S    
C80   H16   1.081591 S    
C13   C88   1.439041 S    
O35   Cr7   2.093443 S    
O4    Cr4   2.086111 S    
C66   N18   1.439265 S    
O6    C2    1.290980 A    
C38   H30   1.109831 S    
O29   Cr1   1.964634 S    
C4    C49   1.474525 S    
C41   N9    1.430136 S    
O28   Cr4   2.093334 S    
C16   O36   1.274146 A    
C82   C86   1.392609 A    
C73   H9    1.083088 S    
C80   C84   1.366613 A    
C27   C31   1.528114 S    
C42   C46   1.405605 A    
O27   Cr3   2.093329 S    
C6    O18   1.281633 A    
C32   C39   1.533894 S    
O43   Cr11  2.089976 S    
C39   C40   1.561989 S    
C5    C33   1.464856 S    
C1    C52   1.474523 S    
C30   C34   1.539251 S    
O45   Cr9   1.977816 S    
O41   Cr9   2.089976 S    
C93   C97   1.395165 A    
N17   O85   1.301276 A    
C3    C50   1.474521 S    
O31   C15   1.273564 A    
O16   C8    1.301494 A    
C81   C85   1.392605 A    
C27   C28   1.559253 S    
C52   C56   1.419080 A    
C28   C35   1.535567 S    
C39   H31   1.109830 S    
O38   Cr6   1.970654 S    
