data_mof_unit_20815.cif
_audit_creation_date              2012-12-11T14:30:08-0500
_audit_creation_method            fapswitch 2.2
_symmetry_space_group_name_H-M    P1
_symmetry_Int_Tables_number       1
_space_group_crystal_system       triclinic
_cell_length_a                    12.724431
_cell_length_b                    12.724435
_cell_length_c                    26.751948
_cell_angle_alpha                 90.000013
_cell_angle_beta                  89.999978
_cell_angle_gamma                 120.000224
_cell_volume                      3751.12849872

loop_
_atom_site_label
_atom_site_type_symbol
_atom_type_description
_atom_site_fract_x
_atom_site_fract_y
_atom_site_fract_z
_atom_type_partial_charge
C1    C     C_R   0.556551 0.458233 0.821313 0.562593
C2    C     C_R   0.900241 0.443091 0.678286 0.562307
C3    C     C_R   0.541767 0.098318 0.821313 0.562592
C4    C     C_R   0.556909 0.457150 0.678286 0.562308
C5    C     C_R   0.901682 0.443449 0.821313 0.562593
C6    C     C_R   0.542850 0.099759 0.678287 0.562307
C7    C     C_R   0.458233 0.556551 0.321313 0.562593
C8    C     C_R   0.443091 0.900241 0.178287 0.562307
C9    C     C_R   0.098318 0.541767 0.321313 0.562592
C10   C     C_R   0.457150 0.556909 0.178286 0.562308
C11   C     C_R   0.443449 0.901682 0.321313 0.562592
C12   C     C_R   0.099759 0.542850 0.178287 0.562307
C13   C     C_R   0.003040 0.498224 0.972793 -0.025025
C14   C     C_R   0.502216 0.009036 0.525362 -0.023706
C15   C     C_R   0.501776 0.504815 0.972793 -0.025025
C16   C     C_R   0.990963 0.493180 0.525361 -0.023706
C17   C     C_R   0.495184 0.996960 0.972793 -0.025024
C18   C     C_R   0.506820 0.497783 0.525361 -0.023706
C19   C     C_R   0.498224 0.003039 0.472793 -0.025025
C20   C     C_R   0.009036 0.502216 0.025361 -0.023706
C21   C     C_R   0.504815 0.501776 0.472793 -0.025025
C22   C     C_R   0.493180 0.990964 0.025361 -0.023706
C23   C     C_R   0.996960 0.495184 0.472793 -0.025025
C24   C     C_R   0.497784 0.506820 0.025361 -0.023706
C25   C     C_R   0.025657 0.699787 0.971451 -0.051227
C26   C     C_R   0.708010 0.041855 0.522957 -0.064129
C27   C     C_R   0.300212 0.325870 0.971451 -0.051226
C28   C     C_R   0.958143 0.666153 0.522956 -0.064129
C29   C     C_R   0.674127 0.974340 0.971450 -0.051226
C30   C     C_R   0.333846 0.291989 0.522956 -0.064128
C31   C     C_R   0.699788 0.025659 0.471451 -0.051226
C32   C     C_R   0.041854 0.708010 0.022957 -0.064129
C33   C     C_R   0.325872 0.300212 0.471450 -0.051225
C34   C     C_R   0.666154 0.958145 0.022956 -0.064128
C35   C     C_R   0.974338 0.674126 0.471450 -0.051226
C36   C     C_R   0.291989 0.333843 0.022957 -0.064128
C37   C     C_R   0.977162 0.582202 0.895150 -0.129279
C38   C     C_R   0.620627 0.053031 0.601498 -0.131674
C39   C     C_R   0.417797 0.394961 0.895149 -0.129277
C40   C     C_R   0.946967 0.567595 0.601497 -0.131674
C41   C     C_R   0.605037 0.022834 0.895149 -0.129278
C42   C     C_R   0.432405 0.379372 0.601498 -0.131674
C43   C     C_R   0.582203 0.977164 0.395149 -0.129278
C44   C     C_R   0.053030 0.620626 0.101498 -0.131674
C45   C     C_R   0.394962 0.417797 0.395149 -0.129277
C46   C     C_R   0.567596 0.946969 0.101498 -0.131674
C47   C     C_R   0.022834 0.605037 0.395149 -0.129278
C48   C     C_R   0.379373 0.432403 0.101498 -0.131673
C49   C     C_R   0.039527 0.521471 0.129165 0.008641
C50   C     C_R   0.482385 0.967588 0.369359 0.003142
C51   C     C_R   0.478528 0.518055 0.129165 0.008641
C52   C     C_R   0.032411 0.514796 0.369359 0.003141
C53   C     C_R   0.481945 0.960473 0.129165 0.008641
C54   C     C_R   0.485204 0.517615 0.369359 0.003141
C55   C     C_R   0.521472 0.039527 0.629165 0.008641
C56   C     C_R   0.967588 0.482385 0.869359 0.003142
C57   C     C_R   0.518055 0.478527 0.629165 0.008641
C58   C     C_R   0.514795 0.032411 0.869359 0.003141
C59   C     C_R   0.960472 0.481945 0.629165 0.008641
C60   C     C_R   0.517615 0.485203 0.869359 0.003142
C61   C     C_R   0.004054 0.594937 0.946185 0.006732
C62   C     C_R   0.609809 0.032194 0.550186 0.006894
C63   C     C_R   0.405062 0.409117 0.946184 0.006732
C64   C     C_R   0.967805 0.577615 0.550185 0.006894
C65   C     C_R   0.590881 0.995944 0.946184 0.006732
C66   C     C_R   0.422385 0.390190 0.550185 0.006895
C67   C     C_R   0.594937 0.004055 0.446185 0.006732
C68   C     C_R   0.032193 0.609809 0.050186 0.006894
C69   C     C_R   0.409118 0.405062 0.446184 0.006732
C70   C     C_R   0.577615 0.967806 0.050186 0.006894
C71   C     C_R   0.995944 0.590881 0.446184 0.006732
C72   C     C_R   0.390191 0.422384 0.050186 0.006895
C73   C     C_R   0.001086 0.405145 0.893829 0.262349
C74   C     C_R   0.406855 0.990620 0.606022 0.259960
C75   C     C_R   0.594856 0.595942 0.893829 0.262348
C76   C     C_R   0.009379 0.416235 0.606022 0.259960
C77   C     C_R   0.404057 0.998915 0.893829 0.262348
C78   C     C_R   0.583766 0.593145 0.606022 0.259960
C79   C     C_R   0.405143 0.001085 0.393829 0.262349
C80   C     C_R   0.990622 0.406855 0.106022 0.259959
C81   C     C_R   0.595942 0.594857 0.393829 0.262348
C82   C     C_R   0.416234 0.009379 0.106022 0.259960
C83   C     C_R   0.998915 0.404058 0.393829 0.262349
C84   C     C_R   0.593145 0.583767 0.106022 0.259960
C85   C     C_R   0.998356 0.399690 0.946644 -0.018158
C86   C     C_R   0.399535 0.991123 0.553047 -0.019188
C87   C     C_R   0.600311 0.598666 0.946644 -0.018158
C88   C     C_R   0.008877 0.408412 0.553047 -0.019188
C89   C     C_R   0.401334 0.001645 0.946645 -0.018158
C90   C     C_R   0.591588 0.600465 0.553047 -0.019188
C91   C     C_R   0.399689 0.998354 0.446645 -0.018158
C92   C     C_R   0.991124 0.399535 0.053047 -0.019188
C93   C     C_R   0.598666 0.600311 0.446644 -0.018158
C94   C     C_R   0.408411 0.008876 0.053047 -0.019188
C95   C     C_R   0.001645 0.401334 0.446645 -0.018158
C96   C     C_R   0.600465 0.591589 0.053047 -0.019188
C97   C     C_R   0.979293 0.297057 0.026667 0.235148
C98   C     C_R   0.299019 0.986925 0.474018 0.232220
C99   C     C_R   0.702944 0.682238 0.026667 0.235148
C100  C     C_R   0.013074 0.312093 0.474018 0.232220
C101  C     C_R   0.317763 0.020707 0.026667 0.235149
C102  C     C_R   0.687908 0.700982 0.474018 0.232219
C103  C     C_R   0.297056 0.979292 0.526667 0.235149
C104  C     C_R   0.986927 0.299020 0.974018 0.232219
C105  C     C_R   0.682237 0.702944 0.526667 0.235148
C106  C     C_R   0.312092 0.013073 0.974018 0.232220
C107  C     C_R   0.020708 0.317764 0.526667 0.235149
C108  C     C_R   0.700981 0.687909 0.974018 0.232219
Cr1   Cr    Cr6+3 0.487630 0.241180 0.750000 1.152502
Cr2   Cr    Cr6+3 0.753550 0.512370 0.750000 1.152502
Cr3   Cr    Cr6+3 0.758820 0.246450 0.750000 1.152502
Cr4   Cr    Cr6+3 0.241180 0.487630 0.250000 1.152502
Cr5   Cr    Cr6+3 0.512370 0.753550 0.250000 1.152502
Cr6   Cr    Cr6+3 0.246450 0.758820 0.250000 1.152501
H1    H     H_    0.084859 0.707853 0.119432 0.183593
H2    H     H_    0.647614 0.960479 0.376035 0.197045
H3    H     H_    0.292146 0.377005 0.119431 0.183592
H4    H     H_    0.039520 0.687134 0.376035 0.197045
H5    H     H_    0.622993 0.915140 0.119431 0.183593
H6    H     H_    0.312864 0.352385 0.376035 0.197045
H7    H     H_    0.707854 0.084862 0.619431 0.183592
H8    H     H_    0.960474 0.647612 0.876036 0.197045
H9    H     H_    0.377008 0.292145 0.619431 0.183591
H10   H     H_    0.687133 0.039517 0.876035 0.197046
H11   H     H_    0.915137 0.622992 0.619431 0.183592
H12   H     H_    0.352385 0.312863 0.876035 0.197045
H13   H     H_    0.059549 0.790229 0.041756 0.228943
H14   H     H_    0.776206 0.032497 0.451114 0.244459
H15   H     H_    0.209770 0.269318 0.041756 0.228943
H16   H     H_    0.967501 0.743707 0.451114 0.244458
H17   H     H_    0.730678 0.940450 0.041755 0.228944
H18   H     H_    0.256291 0.223793 0.451114 0.244459
H19   H     H_    0.790230 0.059552 0.541756 0.228942
H20   H     H_    0.032494 0.776205 0.951115 0.244460
H21   H     H_    0.269322 0.209769 0.541755 0.228942
H22   H     H_    0.743708 0.967503 0.951114 0.244459
H23   H     H_    0.940446 0.730676 0.541755 0.228941
H24   H     H_    0.223793 0.256288 0.951114 0.244459
O1    O     O_R   0.460870 0.120930 0.805240 -0.435433
O2    O     O_R   0.660060 0.539130 0.694760 -0.443761
O3    O     O_R   0.879070 0.339940 0.805240 -0.435431
O4    O     O_R   0.460870 0.120930 0.694760 -0.443762
O5    O     O_R   0.660060 0.539130 0.805240 -0.435433
O6    O     O_R   0.879070 0.339940 0.694760 -0.443761
O7    O     O_R   0.120930 0.460870 0.305240 -0.435433
O8    O     O_R   0.539130 0.660060 0.194760 -0.443761
O9    O     O_R   0.339940 0.879070 0.305240 -0.435432
O10   O     O_R   0.120930 0.460870 0.194760 -0.443761
O11   O     O_R   0.539130 0.660060 0.305240 -0.435433
O12   O     O_R   0.339940 0.879070 0.194760 -0.443761
O13   O     O_R   0.498910 0.350470 0.801870 -0.499466
O14   O     O_R   0.851560 0.501090 0.698130 -0.504129
O15   O     O_R   0.649530 0.148440 0.801870 -0.499465
O16   O     O_R   0.498910 0.350470 0.698130 -0.504129
O17   O     O_R   0.851560 0.501090 0.801870 -0.499466
O18   O     O_R   0.649530 0.148440 0.698130 -0.504129
O19   O     O_R   0.350470 0.498910 0.301870 -0.499466
O20   O     O_R   0.501090 0.851560 0.198130 -0.504129
O21   O     O_R   0.148440 0.649530 0.301870 -0.499466
O22   O     O_R   0.350470 0.498910 0.198130 -0.504129
O23   O     O_R   0.501090 0.851560 0.301870 -0.499466
O24   O     O_R   0.148440 0.649530 0.198130 -0.504129
O25   O     O_3   0.666667 0.333333 0.750000 -0.308016
O26   O     O_3   0.333333 0.666667 0.250000 -0.308016
Cl1   Cl    Cl    0.911623 0.277355 0.144788 -0.416609
Cl2   Cl    Cl    0.339993 0.070903 0.357678 -0.438179
Cl3   Cl    Cl    0.722645 0.634268 0.144788 -0.416608
Cl4   Cl    Cl    0.929097 0.269088 0.357678 -0.438179
Cl5   Cl    Cl    0.365735 0.088379 0.144788 -0.416608
Cl6   Cl    Cl    0.730912 0.660009 0.357678 -0.438179
Cl7   Cl    Cl    0.277355 0.911621 0.644788 -0.416608
Cl8   Cl    Cl    0.070906 0.339996 0.857677 -0.438178
Cl9   Cl    Cl    0.634266 0.722644 0.644788 -0.416607
Cl10  Cl    Cl    0.269088 0.929097 0.857678 -0.438177
Cl11  Cl    Cl    0.088380 0.365736 0.644788 -0.416606
Cl12  Cl    Cl    0.660007 0.730911 0.857678 -0.438179
Cl13  Cl    Cl    0.967174 0.168089 0.057548 -0.412686
Cl14  Cl    Cl    0.166879 0.968115 0.443766 -0.431211
Cl15  Cl    Cl    0.831909 0.799089 0.057548 -0.412685
Cl16  Cl    Cl    0.031884 0.198763 0.443766 -0.431211
Cl17  Cl    Cl    0.200913 0.032822 0.057549 -0.412688
Cl18  Cl    Cl    0.801238 0.833122 0.443766 -0.431209
Cl19  Cl    Cl    0.168091 0.967176 0.557549 -0.412685
Cl20  Cl    Cl    0.968116 0.166880 0.943765 -0.431210
Cl21  Cl    Cl    0.799087 0.831909 0.557549 -0.412684
Cl22  Cl    Cl    0.198760 0.031881 0.943766 -0.431211
Cl23  Cl    Cl    0.032823 0.200915 0.557549 -0.412685
Cl24  Cl    Cl    0.833121 0.801240 0.943765 -0.431209

loop_
_geom_bond_atom_site_label_1
_geom_bond_atom_site_label_2
_ccdc_geom_bond_type
C44   C49   A    
C4    O16   A    
C77   Cl10  S    
C82   C94   A    
C18   C21   A    
C2    O6    A    
C5    C56   S    
C11   O23   A    
C6    C55   S    
C8    O20   A    
C50   C79   A    
C12   C49   S    
C78   C90   A    
C31   C67   A    
C99   C108  A    
C20   C92   A    
C77   C89   A    
C103  Cl19  S    
C32   H13   S    
Cr1   O13   S    
Cr6   O9    S    
Cr2   O14   S    
C24   C96   A    
Cr6   O24   S    
C9    O21   A    
C98   C103  A    
C14   C62   A    
C96   C99   A    
C107  Cl23  S    
C3    O15   A    
Cr4   O7    S    
C102  C105  A    
C84   C96   A    
C105  Cl21  S    
Cr2   O17   S    
C58   C77   A    
C7    O11   A    
C55   C74   A    
Cr6   O26   S    
C48   C51   A    
C38   C55   A    
C94   C101  A    
C89   C106  A    
C42   H9    S    
C78   Cl9   S    
C19   C67   A    
Cr1   O4    S    
Cr5   O20   S    
C98   Cl14  S    
Cr3   O18   S    
C76   C88   A    
C79   C91   A    
C13   C20   A    
C33   C69   A    
C32   C68   A    
C25   C32   A    
C82   Cl5   S    
C35   C71   A    
C26   C31   A    
C79   Cl2   S    
C39   H12   S    
C22   C94   A    
C9    C52   S    
C31   H14   S    
C48   C72   A    
C86   C103  A    
C14   C19   A    
C42   C57   A    
C20   C68   A    
C92   C97   A    
C44   H1    S    
C24   C72   A    
C2    O14   A    
Cr4   O26   S    
C16   C88   A    
C27   H24   S    
Cr4   O19   S    
C87   C108  A    
C45   C69   A    
C18   C90   A    
Cr5   O11   S    
C17   C89   A    
C14   C86   A    
Cr1   O25   S    
C1    C60   S    
C88   C107  A    
C41   H10   S    
C2    C59   S    
C41   C65   A    
C5    O17   A    
Cr5   O23   S    
C29   C34   A    
C26   H19   S    
Cr4   O10   S    
C21   C69   A    
C53   C82   A    
C47   H4    S    
C102  Cl18  S    
Cr5   O8    S    
C80   C92   A    
C52   C83   A    
C8    O12   A    
C99   Cl15  S    
Cr1   O16   S    
C23   C71   A    
C43   H2    S    
C4    O2    A    
C81   C93   A    
C97   Cl13  S    
C83   C95   A    
Cr3   O25   S    
C25   C61   A    
C81   Cl6   S    
C74   C86   A    
C73   Cl8   S    
C25   H20   S    
Cr3   O15   S    
C35   H16   S    
C106  Cl22  S    
C74   Cl7   S    
C30   C66   A    
C85   C104  A    
C27   C63   A    
Cr3   O6    S    
C10   O8    A    
C29   C65   A    
C39   C60   A    
C28   C64   A    
C45   H6    S    
C75   C87   A    
C15   C24   A    
C104  Cl20  S    
C34   H17   S    
C16   C23   A    
C11   C50   S    
C27   C36   A    
C44   C68   A    
C6    O4    A    
C47   C71   A    
C13   C85   A    
C100  Cl16  S    
C10   O22   A    
C80   Cl1   S    
C101  Cl17  S    
C33   H18   S    
C15   C87   A    
C73   C85   A    
C101  C106  A    
C28   C35   A    
C34   C70   A    
C100  C107  A    
C15   C63   A    
C56   C73   A    
Cr4   O22   S    
C30   C33   A    
C75   Cl12  S    
C95   C100  A    
C93   C102  A    
C57   C78   A    
C108  Cl24  S    
C76   Cl11  S    
C42   C66   A    
C28   H23   S    
C90   C105  A    
C8    C53   S    
C45   C54   A    
C37   C61   A    
Cr2   O25   S    
C43   C50   A    
C48   H3    S    
C7    O19   A    
C1    O5    A    
C18   C66   A    
C39   C63   A    
C83   Cl4   S    
C60   C75   A    
C17   C65   A    
C17   C22   A    
C40   C64   A    
C49   C80   A    
C41   C58   A    
C97   C104  A    
Cr1   O1    S    
C10   C51   S    
C12   O10   A    
Cr2   O2    S    
C26   C62   A    
C84   Cl3   S    
C36   H15   S    
Cr5   O26   S    
C11   O9    A    
C21   C93   A    
C3    O1    A    
C40   H11   S    
C59   C76   A    
C46   C53   A    
C9    O7    A    
C23   C95   A    
C46   H5    S    
C1    O13   A    
C91   C98   A    
Cr2   O5    S    
Cr6   O21   S    
C46   C70   A    
C38   H7    S    
C19   C91   A    
Cr3   O3    S    
C12   O24   A    
C37   H8    S    
C3    C58   S    
C29   H22   S    
C13   C61   A    
C43   C67   A    
C30   H21   S    
C47   C52   A    
C37   C56   A    
C40   C59   A    
Cr6   O12   S    
C16   C64   A    
C7    C54   S    
C5    O3    A    
C51   C84   A    
C22   C70   A    
C54   C81   A    
C6    O18   A    
C36   C72   A    
C4    C57   S    
C38   C62   A    
