data_mof_unit_67711.cif
_audit_creation_date              2012-12-10T19:48:32-0500
_audit_creation_method            fapswitch 2.2
_symmetry_space_group_name_H-M    P1
_symmetry_Int_Tables_number       1
_space_group_crystal_system       triclinic
_cell_length_a                    11.364338
_cell_length_b                    10.607484
_cell_length_c                    9.81413
_cell_angle_alpha                 92.50622
_cell_angle_beta                  91.125134
_cell_angle_gamma                 90.031985
_cell_volume                      1181.70356184

loop_
_atom_site_label
_atom_site_type_symbol
_atom_type_description
_atom_site_fract_x
_atom_site_fract_y
_atom_site_fract_z
_atom_type_partial_charge
C1    C     C_R   0.499406 0.260902 0.497870 0.862181
C2    C     C_3   0.478296 0.048825 0.624075 -0.287866
C3    C     C_3   0.504374 0.876543 0.501803 -0.277163
C4    C     C_3   0.501111 0.123543 0.495508 -0.288438
C5    C     C_3   0.584878 0.965466 0.586930 0.661774
C6    C     C_3   0.420963 0.034460 0.409824 0.668527
C7    C     C_3   0.412820 0.561580 0.052405 0.452815
C8    C     C_3   0.587564 0.439217 0.948408 0.457055
C9    C     C_3   0.407031 0.449791 0.943987 0.522581
C10   C     C_3   0.592558 0.551202 0.056587 0.495934
C11   C     C_3   0.505889 0.613035 0.958312 0.030817
C12   C     C_R   0.502790 0.739091 0.501746 0.863477
C13   C     C_3   0.494131 0.387051 0.041704 0.008293
C14   C     C_R   0.262873 0.499250 0.498729 0.872724
C15   C     C_R   0.736826 0.502017 0.501424 0.870743
C16   C     C_R   0.126863 0.655141 0.048000 0.026870
C17   C     C_R   0.865845 0.523978 0.979007 -0.053457
C18   C     C_R   0.107124 0.656977 0.186788 0.727884
C19   C     C_R   0.885562 0.469804 0.850896 0.638497
C20   C     C_R   0.104204 0.543750 0.253155 -0.107511
C21   C     C_R   0.905287 0.544846 0.742557 -0.143933
C22   C     C_R   0.121318 0.426591 0.183231 -0.036062
C23   C     C_R   0.871522 0.502950 0.502845 -0.277311
C24   C     C_R   0.893247 0.678421 0.755805 -0.009324
C25   C     C_R   0.131000 0.423198 0.041531 0.194248
C26   C     C_R   0.870575 0.733827 0.883880 0.108361
C27   C     C_R   0.138808 0.539603 0.975368 0.397279
C28   C     C_R   0.865107 0.658234 0.995148 0.505516
C29   C     C_R   0.933271 0.546867 0.394805 0.625718
C30   C     C_R   0.063836 0.457848 0.605485 0.706720
C31   C     C_R   0.127773 0.501944 0.497416 -0.268833
C32   C     C_R   0.941353 0.481164 0.617077 -0.019559
C33   C     C_R   0.057806 0.543198 0.388223 -0.075777
C34   C     C_3   0.608433 0.041421 0.460384 0.075106
C35   C     C_3   0.397661 0.958895 0.536235 0.071754
C36   C     C_3   0.527436 0.950963 0.372939 -0.273949
Cu1   Cu    Cu3+1 0.500030 0.499990 0.643150 1.142241
Cu2   Cu    Cu3+1 0.499970 0.500010 0.356850 1.137978
F1    F     F_    0.165766 0.545122 0.843402 -0.585977
F2    F     F_    0.116309 0.375321 0.686887 -0.535934
F3    F     F_    0.669542 0.927559 0.678172 -0.606116
F4    F     F_    0.334820 0.069573 0.318246 -0.577174
F5    F     F_    0.861447 0.722017 0.116092 -0.492425
F6    F     F_    0.321958 0.380616 0.875778 -0.554223
F7    F     F_    0.673798 0.623795 0.127097 -0.543216
F8    F     F_    0.341678 0.647831 0.116650 -0.641531
F9    F     F_    0.668077 0.358315 0.889074 -0.565643
F10   F     F_    0.092574 0.768596 0.257706 -0.541057
F11   F     F_    0.885754 0.342275 0.829915 -0.532341
F12   F     F_    0.871346 0.612101 0.306026 -0.531608
H1    H     H_    0.546858 0.910132 0.269705 0.249758
H2    H     H_    0.458645 0.089013 0.727514 0.242427
I1    I     I_    0.513959 0.807797 0.914022 -0.036948
I2    I     I_    0.229007 0.892040 0.584680 -0.045110
I3    I     I_    0.489246 0.191695 0.084314 -0.018194
I4    I     I_    0.164692 0.827460 0.957034 0.017616
I5    I     I_    0.835645 0.386130 0.128256 -0.055782
I6    I     I_    0.115868 0.252991 0.291135 -0.048313
I7    I     I_    0.912477 0.801816 0.591505 -0.013671
I8    I     I_    0.119029 0.239329 0.937491 0.150338
I9    I     I_    0.850309 0.933492 0.922775 0.137510
I10   I     I_    0.776161 0.109533 0.402368 -0.036642
N1    N     N_3   0.500090 0.499970 0.858290 -0.304120
N2    N     N_3   0.499910 0.500030 0.141710 -0.290243
O1    O     O_R   0.500060 0.316850 0.620870 -0.519452
O2    O     O_R   0.499940 0.683150 0.379130 -0.508641
O3    O     O_R   0.500000 0.316860 0.379090 -0.567570
O4    O     O_R   0.500000 0.683140 0.620910 -0.571095
O5    O     O_R   0.319670 0.500010 0.620890 -0.457305
O6    O     O_R   0.680330 0.499990 0.379110 -0.484435
O7    O     O_R   0.319620 0.500010 0.379110 -0.571335
O8    O     O_R   0.680380 0.499990 0.620890 -0.567460

loop_
_geom_bond_atom_site_label_1
_geom_bond_atom_site_label_2
_ccdc_geom_bond_type
C2    C35   S    
Cu2   O6    S    
C8    C13   S    
Cu1   O5    S    
C14   O7    A    
C14   C31   S    
C7    C11   S    
C15   O8    A    
C12   O4    A    
C23   C29   A    
C19   C21   A    
C26   I9    S    
C24   C26   A    
C11   N1    S    
C30   C31   A    
Cu1   O4    S    
C29   C33   A    
C34   I10   S    
C6    C35   S    
C9    C13   S    
C3    C12   S    
C17   C19   A    
Cu2   O2    S    
C27   F1    S    
C22   C25   A    
Cu1   O1    S    
C1    O1    A    
C31   C33   A    
C25   I8    S    
C34   C36   S    
C11   I1    S    
C16   C27   A    
C15   C23   S    
C35   I2    S    
Cu1   N1    S    
Cu2   N2    S    
C29   F12   S    
C21   C32   S    
C4    C34   S    
C7    F8    S    
C4    C6    S    
C12   O2    A    
C2    C4    S    
C16   I4    S    
Cu1   Cu2   S    
C19   F11   S    
C3    C35   S    
C5    C34   S    
C10   F7    S    
C30   F2    S    
C36   H1    S    
C2    H2    S    
C20   C33   S    
C16   C18   A    
C20   C22   A    
C14   O5    A    
Cu1   O8    S    
C2    C5    S    
C7    C9    S    
C15   O6    A    
C5    F3    S    
Cu2   O7    S    
C9    F6    S    
C9    N1    S    
C17   C28   A    
C10   N2    S    
C3    C5    S    
C18   F10   S    
C22   I6    S    
C25   C27   A    
C28   F5    S    
C26   C28   A    
C1    C4    S    
C23   C32   A    
C8    F9    S    
C30   C32   A    
C13   N2    S    
C3    C36   S    
C24   I7    S    
C1    O3    A    
C6    C36   S    
C18   C20   A    
C7    N2    S    
C10   C11   S    
C8    N1    S    
Cu2   O3    S    
C8    C10   S    
C6    F4    S    
C21   C24   A    
C17   I5    S    
C13   I3    S    
