data_mof_unit_21553.cif
_audit_creation_date              2012-12-11T14:30:50-0500
_audit_creation_method            fapswitch 2.2
_symmetry_space_group_name_H-M    P1
_symmetry_Int_Tables_number       1
_space_group_crystal_system       triclinic
_cell_length_a                    17.400412
_cell_length_b                    24.425905
_cell_length_c                    14.924005
_cell_angle_alpha                 89.752463
_cell_angle_beta                  124.862318
_cell_angle_gamma                 90.40904
_cell_volume                      5204.48657442

loop_
_atom_site_label
_atom_site_type_symbol
_atom_type_description
_atom_site_fract_x
_atom_site_fract_y
_atom_site_fract_z
_atom_type_partial_charge
C1    C     C_R   0.829537 0.643418 0.908123 -0.138584
C2    C     C_R   0.043164 0.502539 0.719194 0.135220
C3    C     C_R   0.547146 0.002062 0.356725 0.137865
C4    C     C_R   0.543164 0.002539 0.719194 0.135220
C5    C     C_R   0.687528 0.501838 0.652628 0.049769
C6    C     C_R   0.323692 0.501006 0.307826 0.071176
C7    C     C_R   0.187528 0.001838 0.652628 0.049769
C8    C     C_R   0.823692 0.001006 0.307826 0.071176
C9    C     C_3   0.516612 0.472698 0.556304 -0.156459
C10   C     C_3   0.481081 0.449139 0.443252 -0.150560
C11   C     C_3   0.016612 0.972698 0.556304 -0.156459
C12   C     C_R   0.161760 0.648355 0.093145 -0.150683
C13   C     C_3   0.981081 0.949139 0.443252 -0.150559
C14   C     C_3   0.455832 0.524003 0.504053 -0.160434
C15   C     C_3   0.560634 0.478637 0.444697 -0.126488
C16   C     C_3   0.955832 0.024003 0.504053 -0.160435
C17   C     C_3   0.060634 0.978637 0.444696 -0.126490
C18   C     C_3   0.421439 0.500588 0.392263 0.183964
C19   C     C_3   0.594309 0.502127 0.556267 0.164309
C20   C     C_3   0.921439 0.000588 0.392263 0.183964
C21   C     C_3   0.094309 0.002127 0.556266 0.164310
C22   C     C_3   0.498657 0.530053 0.391305 -0.123983
C23   C     C_R   0.329537 0.143418 0.908123 -0.138584
C24   C     C_3   0.534666 0.553557 0.504937 -0.176530
C25   C     C_3   0.998657 0.030053 0.391305 -0.123982
C26   C     C_3   0.034667 0.053556 0.504937 -0.176529
C27   C     C_2   0.119900 0.771033 0.932827 -0.241601
C28   C     C_2   0.867137 0.760809 0.066930 -0.244015
C29   C     C_2   0.619900 0.271033 0.932827 -0.241601
C30   C     C_2   0.367137 0.260808 0.066930 -0.244015
C31   C     C_2   0.174503 0.731528 0.003694 -0.187255
C32   C     C_2   0.809856 0.719576 0.004560 -0.193576
C33   C     C_2   0.674503 0.231527 0.003694 -0.187255
C34   C     C_R   0.661760 0.148355 0.093145 -0.150683
C35   C     C_2   0.309856 0.219576 0.004560 -0.193576
C36   C     C_2   0.659581 0.323723 0.927843 0.028597
C37   C     C_2   0.329121 0.313224 0.071436 0.029143
C38   C     C_2   0.159581 0.823723 0.927843 0.028597
C39   C     C_2   0.829121 0.813225 0.071436 0.029143
C40   C     C_R   0.905323 0.377937 0.095003 -0.171648
C41   C     C_R   0.087169 0.368712 0.905987 -0.172205
C42   C     C_R   0.405323 0.877937 0.095003 -0.171648
C43   C     C_R   0.587169 0.868712 0.905987 -0.172205
C44   C     C_2   0.744359 0.339898 0.014278 -0.175218
C45   C     C_R   0.816163 0.365524 0.005636 0.153013
C46   C     C_2   0.243128 0.327035 0.985737 -0.185697
C47   C     C_2   0.244359 0.839898 0.014278 -0.175218
C48   C     C_2   0.743128 0.827035 0.985737 -0.185696
C49   C     C_2   0.113259 0.463021 0.537135 -0.120566
C50   C     C_2   0.111125 0.459684 0.633474 -0.103818
C51   C     C_2   0.613259 0.963021 0.537135 -0.120566
C52   C     C_2   0.611125 0.959684 0.633474 -0.103818
C53   C     C_2   0.069565 0.504138 0.465618 -0.197950
C54   C     C_2   0.096744 0.504634 0.672590 -0.181941
C55   C     C_2   0.569565 0.004138 0.465618 -0.197950
C56   C     C_R   0.174902 0.355377 0.994610 0.152557
C57   C     C_2   0.596744 0.004635 0.672590 -0.181942
C58   C     C_R   0.036579 0.547383 0.295836 -0.146442
C59   C     C_R   0.017059 0.547669 0.750130 -0.151204
C60   C     C_R   0.536579 0.047383 0.295836 -0.146442
C61   C     C_R   0.517059 0.047669 0.750130 -0.151204
C62   C     C_R   0.738863 0.455823 0.705309 -0.102465
C63   C     C_R   0.267599 0.455414 0.273045 -0.065924
C64   C     C_R   0.238863 0.955823 0.705308 -0.102465
C65   C     C_R   0.767599 0.955414 0.273045 -0.065924
C66   C     C_R   0.042449 0.456175 0.300250 -0.130305
C67   C     C_R   0.316163 0.865524 0.005636 0.153013
C68   C     C_R   0.007326 0.456776 0.738346 -0.105982
C69   C     C_R   0.542449 0.956175 0.300250 -0.130305
C70   C     C_R   0.507326 0.956777 0.738346 -0.105982
C71   C     C_R   0.738070 0.547539 0.707259 -0.123824
C72   C     C_R   0.269564 0.547258 0.268763 -0.161826
C73   C     C_R   0.238070 0.047539 0.707259 -0.123824
C74   C     C_R   0.769564 0.047258 0.268763 -0.161826
C75   C     C_R   0.813755 0.376696 0.912624 -0.066727
C76   C     C_R   0.180580 0.370359 0.087425 -0.051254
C77   C     C_R   0.313755 0.876696 0.912624 -0.066726
C78   C     C_R   0.674902 0.855377 0.994610 0.152556
C79   C     C_R   0.680581 0.870359 0.087425 -0.051253
C80   C     C_R   0.923110 0.643004 0.091928 -0.121837
C81   C     C_R   0.067450 0.649734 0.910937 -0.133408
C82   C     C_R   0.423110 0.143004 0.091928 -0.121838
C83   C     C_R   0.567450 0.149734 0.910937 -0.133408
C84   C     C_R   0.847664 0.668221 0.001784 0.150468
C85   C     C_R   0.138316 0.677654 0.001717 0.150752
C86   C     C_R   0.347664 0.168221 0.001784 0.150468
C87   C     C_R   0.638316 0.177654 0.001717 0.150752
C88   C     C_2   0.603949 0.356144 0.825861 0.477167
C89   C     C_R   0.047146 0.502062 0.356725 0.137865
C90   C     C_2   0.387275 0.347550 0.170505 0.480449
C91   C     C_2   0.103949 0.856144 0.825861 0.477167
C92   C     C_2   0.887275 0.847550 0.170505 0.480448
H1    H     H_    0.782969 0.657667 0.824949 0.091573
H2    H     H_    0.557896 0.596431 0.531491 0.108240
H3    H     H_    0.987747 0.053277 0.320830 0.119863
H4    H     H_    0.057896 0.096431 0.531490 0.108240
H5    H     H_    0.045971 0.762953 0.871927 0.130001
H6    H     H_    0.942573 0.755016 0.119061 0.133714
H7    H     H_    0.545971 0.262953 0.871927 0.130001
H8    H     H_    0.442573 0.255017 0.119061 0.133714
H9    H     H_    0.248726 0.737505 0.064922 0.127989
H10   H     H_    0.734189 0.723095 0.952880 0.131461
H11   H     H_    0.748726 0.237505 0.064922 0.127989
H12   H     H_    0.204436 0.662712 0.176618 0.090103
H13   H     H_    0.234189 0.223095 0.952880 0.131461
H14   H     H_    0.770642 0.323808 0.094810 0.112147
H15   H     H_    0.214636 0.308585 0.906392 0.114508
H16   H     H_    0.270642 0.823808 0.094810 0.112147
H17   H     H_    0.714636 0.808585 0.906392 0.114508
H18   H     H_    0.137357 0.427428 0.516763 0.118100
H19   H     H_    0.103624 0.419108 0.657505 0.115225
H20   H     H_    0.637358 0.927428 0.516763 0.118100
H21   H     H_    0.603625 0.919108 0.657505 0.115225
H22   H     H_    0.042428 0.539413 0.482637 0.130275
H23   H     H_    0.282969 0.157667 0.824949 0.091573
H24   H     H_    0.112778 0.545030 0.656536 0.127082
H25   H     H_    0.542428 0.039413 0.482637 0.130274
H26   H     H_    0.612778 0.045030 0.656536 0.127082
H27   H     H_    0.931011 0.372848 0.179600 0.103739
H28   H     H_    0.055763 0.354369 0.823989 0.088959
H29   H     H_    0.431011 0.872848 0.179600 0.103739
H30   H     H_    0.555763 0.854369 0.823989 0.088959
H31   H     H_    0.049198 0.589541 0.322781 0.089092
H32   H     H_    0.031172 0.589862 0.742628 0.097895
H33   H     H_    0.549198 0.089541 0.322781 0.089092
H34   H     H_    0.704436 0.162712 0.176618 0.090103
H35   H     H_    0.531172 0.089862 0.742628 0.097895
H36   H     H_    0.722156 0.414126 0.675782 0.081208
H37   H     H_    0.288184 0.414174 0.303040 0.075472
H38   H     H_    0.222156 0.914126 0.675782 0.081208
H39   H     H_    0.788184 0.914174 0.303040 0.075472
H40   H     H_    0.059780 0.414659 0.330560 0.081167
H41   H     H_    0.004330 0.416059 0.709892 0.079395
H42   H     H_    0.559780 0.914659 0.330560 0.081167
H43   H     H_    0.504330 0.916059 0.709892 0.079395
H44   H     H_    0.721931 0.589811 0.681827 0.083982
H45   H     H_    0.526106 0.449314 0.625809 0.170207
H46   H     H_    0.292097 0.589388 0.289509 0.099133
H47   H     H_    0.221931 0.089811 0.681827 0.083982
H48   H     H_    0.792097 0.089388 0.289509 0.099133
H49   H     H_    0.756776 0.369326 0.828990 0.102078
H50   H     H_    0.234326 0.359050 0.170004 0.084711
H51   H     H_    0.256776 0.869326 0.828990 0.102078
H52   H     H_    0.734326 0.859050 0.170004 0.084711
H53   H     H_    0.961135 0.656101 0.176139 0.089821
H54   H     H_    0.024801 0.665108 0.828188 0.085549
H55   H     H_    0.461135 0.156101 0.176139 0.089821
H56   H     H_    0.457704 0.406325 0.416193 0.116930
H57   H     H_    0.524801 0.165108 0.828188 0.085549
H58   H     H_    0.410355 0.542398 0.525799 0.122270
H59   H     H_    0.606753 0.460248 0.423944 0.116983
H60   H     H_    0.910355 0.042398 0.525799 0.122270
H61   H     H_    0.106753 0.960248 0.423944 0.116983
H62   H     H_    0.548365 0.336537 0.750873 -0.022835
H63   H     H_    0.444573 0.329164 0.245688 -0.023122
H64   H     H_    0.048365 0.836537 0.750873 -0.022835
H65   H     H_    0.944573 0.829164 0.245688 -0.023122
H66   H     H_    0.026106 0.949314 0.625809 0.170207
H67   H     H_    0.957704 0.906325 0.416194 0.116930
H68   H     H_    0.487747 0.553277 0.320830 0.119863
N1    N     N_R   0.892320 0.603520 0.941090 -0.041605
N2    N     N_R   0.973240 0.529450 0.794410 -0.043432
N3    N     N_R   0.526760 0.029450 0.205590 -0.038822
N4    N     N_R   0.473240 0.029450 0.794410 -0.043432
N5    N     N_R   0.819350 0.473090 0.793940 -0.038217
N6    N     N_R   0.180650 0.473090 0.206060 -0.046527
N7    N     N_R   0.319350 0.973090 0.793940 -0.038217
N8    N     N_R   0.680650 0.973090 0.206060 -0.046527
N9    N     N_R   0.027860 0.473090 0.206590 -0.040414
N10   N     N_R   0.972140 0.473090 0.793410 -0.044858
N11   N     N_R   0.527860 0.973090 0.206590 -0.040414
N12   N     N_R   0.107680 0.603520 0.058910 -0.037326
N13   N     N_R   0.472140 0.973090 0.793410 -0.044858
N14   N     N_R   0.818250 0.529450 0.792940 -0.037146
N15   N     N_R   0.181750 0.529450 0.207060 -0.038365
N16   N     N_R   0.318250 0.029450 0.792940 -0.037146
N17   N     N_R   0.681750 0.029450 0.207060 -0.038365
N18   N     N_R   0.896320 0.399020 0.944720 -0.055693
N19   N     N_R   0.103680 0.399020 0.055280 -0.054255
N20   N     N_R   0.396320 0.899020 0.944720 -0.055693
N21   N     N_R   0.603680 0.899020 0.055280 -0.054255
N22   N     N_R   0.949790 0.603520 0.054810 -0.043874
N23   N     N_R   0.392320 0.103520 0.941090 -0.041605
N24   N     N_R   0.050210 0.603520 0.945190 -0.041319
N25   N     N_R   0.449790 0.103520 0.054810 -0.043874
N26   N     N_R   0.550210 0.103520 0.945190 -0.041319
N27   N     N_R   0.607680 0.103520 0.058910 -0.037326
N28   N     N_R   0.953790 0.399020 0.058440 -0.045306
N29   N     N_R   0.046210 0.399020 0.941560 -0.041519
N30   N     N_R   0.453790 0.899020 0.058440 -0.045306
N31   N     N_R   0.546210 0.899020 0.941560 -0.041519
N32   N     N_R   0.026760 0.529450 0.205590 -0.038822
Ni1   Ni    Ni4+2 0.934100 0.565890 0.869590 0.214711
Ni2   Ni    Ni4+2 0.065900 0.565890 0.130410 0.214975
Ni3   Ni    Ni4+2 0.434100 0.065890 0.869590 0.214711
Ni4   Ni    Ni4+2 0.565900 0.065890 0.130410 0.214975
Ni5   Ni    Ni4+2 0.068420 0.436630 0.132700 0.209698
Ni6   Ni    Ni4+2 0.931580 0.436630 0.867300 0.211926
Ni7   Ni    Ni4+2 0.568420 0.936630 0.132700 0.209698
Ni8   Ni    Ni4+2 0.431580 0.936630 0.867300 0.211926
O1    O     O_2   0.616482 0.405403 0.825822 -0.593622
O2    O     O_2   0.374979 0.396866 0.167766 -0.585965
O3    O     O_2   0.116482 0.905403 0.825822 -0.593622
O4    O     O_2   0.874979 0.896866 0.167766 -0.585964

loop_
_geom_bond_atom_site_label_1
_geom_bond_atom_site_label_2
_ccdc_geom_bond_type
N29   Ni6   S    
C83   C87   A    
C21   C26   S    
C69   H42   S    
C31   C85   S    
N8    Ni7   S    
C30   H8    S    
N27   Ni4   S    
C61   N4    A    
N21   N31   A    
C14   C18   S    
C66   N9    A    
N12   Ni2   S    
C67   C77   A    
C80   C84   A    
C76   N19   A    
C17   H61   S    
C15   H59   S    
C82   H55   S    
N4    Ni3   S    
C12   N12   A    
C52   H21   S    
C44   C45   S    
C1    C84   A    
C6    C72   A    
C65   N8    A    
C58   H31   S    
C8    C20   S    
C12   C85   A    
C56   C76   A    
C31   H9    S    
C58   N32   A    
C68   H41   S    
C3    C69   A    
C88   H62   S    
C12   H12   S    
C64   N7    A    
C2    C68   A    
C10   C15   S    
N23   N25   A    
C35   C86   S    
C20   C25   S    
C27   C38   S    
C14   C24   S    
N8    N17   A    
C29   C33   D    
C60   N3    A    
C69   N11   A    
C72   N15   A    
C48   C78   S    
N1    N22   A    
C75   N18   A    
C42   N30   A    
N11   Ni7   S    
C75   H49   S    
C58   C89   A    
C3    C55   S    
C9    C19   S    
C15   C22   S    
C27   H5    S    
N5    N14   A    
C23   C86   A    
C54   H24   S    
C4    C57   S    
N23   Ni3   S    
N7    Ni8   S    
C83   N26   A    
N22   Ni2   S    
C80   N22   A    
C88   O1    D    
N3    N11   A    
C9    C10   S    
N15   Ni2   S    
C51   C55   D    
C92   O4    D    
C34   H34   S    
N18   N28   A    
C3    C60   A    
C72   H46   S    
C48   H17   S    
N18   Ni6   S    
C1    N1    A    
C8    C65   A    
C41   H28   S    
C33   H11   S    
N13   Ni8   S    
C16   C26   S    
C9    H45   S    
C32   C84   S    
C47   C67   S    
C65   H39   S    
N30   Ni7   S    
C66   C89   A    
C66   H40   S    
C63   N6    A    
C26   H4    S    
C40   C45   A    
C6    C18   S    
C4    C70   A    
C77   N20   A    
C29   H7    S    
C82   N25   A    
C27   C31   D    
C51   C52   S    
N26   Ni3   S    
C28   C32   D    
N31   Ni8   S    
C7    C73   A    
C2    C54   S    
N17   Ni4   S    
C68   N10   A    
C71   H44   S    
C78   C79   A    
C73   H47   S    
C28   C39   S    
C25   C26   S    
C82   C86   A    
C74   H48   S    
C4    C61   A    
C11   C21   S    
C17   C21   S    
C79   N21   A    
C30   C37   S    
C92   H65   S    
C43   C78   A    
N32   Ni2   S    
C6    C63   A    
C15   C19   S    
C9    C14   S    
C77   H51   S    
C41   C56   A    
C23   N23   A    
N20   Ni8   S    
C24   H2    S    
C11   C16   S    
N12   N24   A    
C79   H52   S    
C29   C36   S    
C51   H20   S    
C16   C20   S    
C46   H15   S    
C14   H58   S    
C8    C74   A    
N6    N15   A    
N1    Ni1   S    
N4    N13   A    
C61   H35   S    
C50   C54   D    
N3    Ni4   S    
C43   H30   S    
C38   C47   D    
N26   N27   A    
C40   N28   A    
C37   C90   S    
C80   H53   S    
C2    C59   A    
C64   H38   S    
C49   C50   S    
N19   Ni5   S    
C53   C89   S    
C70   H43   S    
C22   C24   S    
C36   C44   D    
N25   Ni4   S    
N21   Ni7   S    
C39   C92   S    
N10   Ni6   S    
C53   H22   S    
N9    Ni5   S    
C55   H25   S    
C28   H6    S    
C59   H32   S    
C47   H16   S    
C60   H33   S    
C13   C20   S    
C18   C22   S    
C39   C48   D    
C41   N29   A    
C16   H60   S    
C25   H3    S    
C5    C19   S    
C44   H14   S    
C30   C35   D    
C40   H27   S    
N19   N29   A    
C81   N24   A    
C71   N14   A    
C13   C17   S    
C45   C75   A    
C17   C25   S    
C73   N16   A    
C19   C24   S    
C90   H63   S    
N6    Ni5   S    
N2    N10   A    
C5    C71   A    
C59   N2    A    
N20   N30   A    
N5    Ni6   S    
C62   H36   S    
C11   C13   S    
C42   C67   A    
C74   N17   A    
C22   H68   S    
N28   Ni5   S    
C10   C18   S    
C49   C53   D    
C7    C21   S    
C38   C91   S    
N2    Ni1   S    
C50   H19   S    
C5    C62   A    
C32   H10   S    
C34   C87   A    
C63   H37   S    
N16   Ni3   S    
C33   C87   S    
C34   N27   A    
C70   N13   A    
C91   O3    D    
C7    C64   A    
C52   C57   D    
C23   H23   S    
C36   C88   S    
C91   H64   S    
C62   N5    A    
C43   N31   A    
C42   H29   S    
N14   Ni1   S    
C1    H1    S    
C81   H54   S    
C46   C56   S    
C57   H26   S    
C49   H18   S    
C35   H13   S    
N9    N32   A    
C83   H57   S    
C37   C46   D    
C13   H67   S    
C81   C85   A    
N24   Ni1   S    
C11   H66   S    
C10   H56   S    
N7    N16   A    
C90   O2    D    
C76   H50   S    
