data_mof_unit_63607.cif
_audit_creation_date              2012-12-10T17:59:44-0500
_audit_creation_method            fapswitch 2.2
_symmetry_space_group_name_H-M    P1
_symmetry_Int_Tables_number       1
_space_group_crystal_system       triclinic
_cell_length_a                    18.581211
_cell_length_b                    18.654597
_cell_length_c                    18.717644
_cell_angle_alpha                 109.393296
_cell_angle_beta                  109.735926
_cell_angle_gamma                 109.015593
_cell_volume                      5010.82137872

loop_
_atom_site_label
_atom_site_type_symbol
_atom_type_description
_atom_site_fract_x
_atom_site_fract_y
_atom_site_fract_z
_atom_type_partial_charge
C1    C     C_R   0.618712 0.619978 0.498366 0.928364
C2    C     C_3   0.173435 0.432223 0.221611 -0.172645
C3    C     C_3   0.234302 0.507723 0.317104 -0.169357
C4    C     C_3   0.312036 0.499754 0.312045 0.013324
C5    C     C_R   0.755692 0.755429 0.575005 -0.234305
C6    C     C_R   0.820777 0.817571 0.574928 -0.176692
C7    C     C_R   0.812731 0.810022 0.495573 -0.110791
C8    C     C_R   0.739794 0.739210 0.414972 -0.086660
C9    C     C_R   0.673717 0.676664 0.415097 0.340308
C10   C     C_R   0.682969 0.685266 0.495724 -0.113699
C11   C     C_R   0.693811 0.522778 0.769326 -0.162656
C12   C     C_R   0.379109 0.499900 0.379196 0.883772
C13   C     C_R   0.757464 0.521171 0.832721 -0.241624
C14   C     C_R   0.816411 0.498388 0.814946 -0.098322
C15   C     C_R   0.811635 0.475504 0.733534 0.377834
C16   C     C_R   0.746777 0.475680 0.669698 -0.207382
C17   C     C_R   0.688403 0.499774 0.687832 -0.091621
C18   C     C_R   0.253622 0.329883 0.521940 -0.169940
C19   C     C_R   0.189126 0.265053 0.520327 -0.242407
C20   C     C_R   0.186234 0.184650 0.499008 -0.096771
C21   C     C_R   0.246512 0.167509 0.477790 0.375808
C22   C     C_R   0.309989 0.232081 0.477950 -0.208405
C23   C     C_R   0.379693 0.379664 0.500145 0.880319
C24   C     C_R   0.313687 0.313134 0.500380 -0.090420
C25   C     C_R   0.002882 0.620235 0.123233 0.863472
C26   C     C_R   0.124677 0.499866 0.124392 0.858732
C27   C     C_R   0.004497 0.379816 0.884045 0.885642
C28   C     C_R   0.882849 0.499425 0.882277 0.927274
C29   C     C_R   0.000595 0.879605 0.380848 0.893091
C30   C     C_R   0.879700 0.878412 0.498432 0.875718
C31   C     C_R   0.999424 0.120471 0.619286 0.847366
C32   C     C_R   0.120132 0.119533 0.499568 0.921140
C33   C     C_R   0.026382 0.768256 0.195727 -0.170341
C34   C     C_R   0.621383 0.500003 0.621263 0.882998
C35   C     C_R   0.024461 0.831229 0.258534 -0.145621
C36   C     C_R   0.999882 0.812399 0.315553 -0.046043
C37   C     C_R   0.975535 0.730243 0.309794 -0.008537
C38   C     C_R   0.976250 0.666861 0.245757 -0.203338
C39   C     C_R   0.002066 0.686168 0.189300 -0.046124
C40   C     C_R   0.082467 0.321109 0.822693 -0.180687
C41   C     C_R   0.081088 0.256923 0.757631 -0.172363
C42   C     C_R   0.000383 0.187648 0.685429 -0.014057
C43   C     C_R   0.920996 0.181712 0.677892 -0.172441
C44   C     C_R   0.922351 0.244567 0.744289 -0.129760
C45   C     C_3   0.330385 0.567252 0.281961 -0.115187
C46   C     C_R   0.003102 0.314031 0.816229 -0.003004
C47   C     C_3   0.251381 0.575262 0.285723 -0.163326
C48   C     C_3   0.191674 0.499734 0.191394 0.006587
C49   C     C_3   0.269355 0.491683 0.186276 -0.137255
C50   C     C_3   0.252283 0.424215 0.217611 -0.161221
H1    H     H_    0.249000 0.636809 0.311492 0.145973
H2    H     H_    0.648296 0.540768 0.783401 0.166177
H3    H     H_    0.761648 0.538741 0.895885 0.157872
H4    H     H_    0.742467 0.457874 0.606478 0.188431
H5    H     H_    0.255853 0.392322 0.538658 0.163906
H6    H     H_    0.142206 0.277705 0.536651 0.160145
H7    H     H_    0.356687 0.219299 0.461314 0.187497
H8    H     H_    0.045721 0.783189 0.151675 0.162320
H9    H     H_    0.396399 0.622219 0.308563 0.162257
H10   H     H_    0.043132 0.894901 0.263542 0.165998
H11   H     H_    0.957550 0.603006 0.240388 0.161296
H12   H     H_    0.144923 0.375132 0.878591 0.143799
H13   H     H_    0.142559 0.261496 0.763056 0.149410
H14   H     H_    0.858557 0.127698 0.621987 0.150713
H15   H     H_    0.860940 0.239847 0.739212 0.157266
H16   H     H_    0.281731 0.485119 0.131016 0.149831
H17   H     H_    0.254196 0.362449 0.191408 0.157702
H18   H     H_    0.107774 0.376937 0.195397 0.157518
H19   H     H_    0.221802 0.514209 0.372281 0.149180
H20   H     H_    0.762501 0.761368 0.636854 0.166222
H21   H     H_    0.876834 0.872311 0.636768 0.161405
O1    O     O_R   0.592040 0.539900 0.448690 -0.570702
O2    O     O_R   0.054890 0.643310 0.094620 -0.624808
O3    O     O_R   0.044450 0.448260 0.096050 -0.628254
O4    O     O_R   0.147910 0.551670 0.096030 -0.624662
O5    O     O_R   0.952840 0.356630 0.912840 -0.630475
O6    O     O_R   0.056290 0.460040 0.912820 -0.598109
O7    O     O_R   0.859820 0.448260 0.911420 -0.622031
O8    O     O_R   0.963280 0.551670 0.911400 -0.586408
O9    O     O_R   0.052810 0.908290 0.461080 -0.591855
O10   O     O_R   0.948580 0.908330 0.356880 -0.624645
O11   O     O_R   0.960490 0.908280 0.552000 -0.616819
O12   O     O_R   0.591220 0.643330 0.551330 -0.632003
O13   O     O_R   0.856260 0.908310 0.447800 -0.623513
O14   O     O_R   0.051420 0.091500 0.642940 -0.628452
O15   O     O_R   0.947190 0.091540 0.538750 -0.617898
O16   O     O_R   0.143740 0.091510 0.552020 -0.586105
O17   O     O_R   0.039510 0.091550 0.447830 -0.625128
O18   O     O_R   0.408100 0.448290 0.356370 -0.602566
O19   O     O_R   0.407270 0.551710 0.459000 -0.631281
O20   O     O_R   0.408780 0.356670 0.448670 -0.625149
O21   O     O_R   0.407960 0.460100 0.551310 -0.627364
O22   O     O_R   0.592730 0.448290 0.541000 -0.622624
O23   O     O_R   0.591900 0.551710 0.643630 -0.627261
O24   O     O_R   0.951430 0.539890 0.094630 -0.626659
Zn1   Zn    Zn3+2 0.500550 0.430940 0.431470 1.023254
Zn2   Zn    Zn3+2 0.499450 0.569060 0.568530 0.967032
Zn3   Zn    Zn3+2 0.934780 0.430920 0.003740 0.973209
Zn4   Zn    Zn3+2 0.072940 0.569020 0.003710 1.009836
Zn5   Zn    Zn3+2 0.069600 0.999890 0.569480 1.017361
Zn6   Zn    Zn3+2 0.930400 0.999940 0.430340 0.990695
Cl1   Cl    Cl    0.578150 0.590526 0.314702 -0.621451
Cl2   Cl    Cl    0.883557 0.443601 0.708736 -0.614889
Cl3   Cl    Cl    0.242188 0.065400 0.447781 -0.625987
C51   C     C_1   0.947633 0.709268 0.367033 0.159847
N1    N     N_1   0.925231 0.692545 0.412832 -0.181575
C52   C     C_1   0.733826 0.728866 0.332568 0.287838
N2    N     N_1   0.729211 0.720592 0.266820 -0.174064

loop_
_geom_bond_atom_site_label_1
_geom_bond_atom_site_label_2
_ccdc_geom_bond_type
C19   H6    S    
C33   H8    S    
C31   O14   A    
C31   C42   S    
C41   C42   A    
C35   C36   A    
C34   O22   A    
C22   H7    S    
O17   Zn6   S    
O24   Zn3   S    
C7    C8    A    
O3    Zn3   S    
O10   Zn6   S    
C40   C46   A    
C29   C36   S    
C33   C39   A    
C18   C24   A    
O8    Zn4   S    
C36   C37   A    
C3    H19   S    
C2    H18   S    
C20   C32   S    
C5    C6    A    
O5    Zn3   S    
C15   C16   A    
C32   O17   A    
C40   H12   S    
C18   C19   A    
C28   O8    A    
C43   H14   S    
C2    C50   S    
C33   C35   A    
O20   Zn1   S    
C21   Cl3   S    
C11   C17   A    
C19   C20   A    
C9    Cl1   S    
O7    Zn3   S    
C52   N2    T    
C11   H2    S    
C23   O20   A    
C4    C12   S    
C28   O7    A    
C9    C10   A    
O19   Zn2   S    
C26   C48   S    
C38   H11   S    
C7    C30   S    
C21   C22   A    
O9    Zn5   S    
O13   Zn6   S    
C44   H15   S    
C44   C46   A    
O21   Zn2   S    
C13   H3    S    
C4    C45   S    
C45   C47   S    
C6    H21   S    
C1    O1    A    
C49   H16   S    
C12   O18   A    
C38   C39   A    
C8    C9    A    
C47   H1    S    
O23   Zn2   S    
C2    C48   S    
C32   O16   A    
C4    C50   S    
C35   H10   S    
C30   O11   A    
C43   C44   A    
C37   C51   S    
C37   C38   A    
C47   C48   S    
C45   C49   S    
C23   C24   S    
O4    Zn4   S    
C26   O4    A    
C18   H5    S    
C27   C46   S    
C48   C49   S    
C29   O10   A    
C25   O24   A    
O22   Zn1   S    
O12   Zn2   S    
C22   C24   A    
C42   C43   A    
C41   H13   S    
C27   O5    A    
C8    C52   S    
O16   Zn5   S    
C50   H17   S    
C12   O19   A    
O2    Zn4   S    
C40   C41   A    
C14   C15   A    
O11   Zn5   S    
C1    C10   S    
C34   O23   A    
C27   O6    A    
C5    H20   S    
C6    C7    A    
C1    O12   A    
C51   N1    T    
C15   Cl2   S    
O18   Zn1   S    
C2    C3    S    
C5    C10   A    
O14   Zn5   S    
C25   C39   S    
C11   C13   A    
C16   C17   A    
C29   O9    A    
C3    C47   S    
C26   O3    A    
O6    Zn4   S    
C25   O2    A    
C30   O13   A    
C16   H4    S    
O1    Zn1   S    
C20   C21   A    
C45   H9    S    
C49   C50   S    
C17   C34   S    
C31   O15   A    
C23   O21   A    
C14   C28   S    
C13   C14   A    
O15   Zn6   S    
C3    C4    S    
