data_mof_unit_52470.cif
_audit_creation_date              2012-12-11T15:12:49-0500
_audit_creation_method            fapswitch 2.2
_symmetry_space_group_name_H-M    P1
_symmetry_Int_Tables_number       1
_space_group_crystal_system       triclinic
_cell_length_a                    22.338417
_cell_length_b                    6.965713
_cell_length_c                    19.381874
_cell_angle_alpha                 89.913471
_cell_angle_beta                  99.161273
_cell_angle_gamma                 89.890741
_cell_volume                      2977.3971154

loop_
_atom_site_label
_atom_site_type_symbol
_atom_type_description
_atom_site_fract_x
_atom_site_fract_y
_atom_site_fract_z
_atom_type_partial_charge
O1    O     O_R   0.448420 0.506120 0.415750 -0.532674
O2    O     O_R   0.551580 0.006120 0.584250 -0.542842
O3    O     O_R   0.436490 0.174470 0.555610 -0.530215
O4    O     O_R   0.563510 0.674470 0.444390 -0.527846
C1    C     C_R   0.421461 0.344496 0.576138 0.749725
C2    C     C_R   0.578628 0.844499 0.423966 0.749432
O5    O     O_R   0.441310 0.176330 0.414520 -0.544131
O6    O     O_R   0.558690 0.676330 0.585480 -0.535358
O7    O     O_R   0.556430 0.007110 0.442150 -0.534600
O8    O     O_R   0.443570 0.507110 0.557850 -0.532023
C3    C     C_R   0.426385 0.345374 0.388776 0.809447
C4    C     C_R   0.573574 0.845063 0.611275 0.804402
O9    O     O_3   0.537770 0.339560 0.509230 -0.371829
O10   O     O_3   0.462230 0.839560 0.490770 -0.370412
V1    V     V_3+5 0.492990 0.064280 0.498290 1.506746
V2    V     V_3+5 0.507010 0.564280 0.501710 1.518017
C5    C     C_R   0.867707 0.032868 0.697903 0.464203
C6    C     C_R   0.125383 0.427604 0.305536 0.449102
H1    H     H_    0.952126 0.072059 0.766155 0.162160
H2    H     H_    0.039946 0.442987 0.237439 0.160640
C7    C     C_R   0.885400 0.946223 0.820724 -0.251111
C8    C     C_R   0.113982 0.436362 0.179303 -0.231911
C9    C     C_R   0.591156 0.854115 0.738725 -0.247544
C10   C     C_R   0.406358 0.319822 0.261673 -0.300909
C11   C     C_R   0.626082 0.892856 0.802840 -0.210778
C12   C     C_R   0.368559 0.282892 0.199216 -0.102851
C13   C     C_R   0.688528 0.928272 0.808444 0.487592
C14   C     C_R   0.305790 0.282840 0.195606 0.494209
C15   C     C_R   0.717926 0.905366 0.748885 0.016491
C16   C     C_R   0.279199 0.350043 0.253504 -0.064463
C17   C     C_R   0.680967 0.880225 0.681859 -0.060461
C18   C     C_R   0.317904 0.368117 0.319701 -0.029374
C19   C     C_R   0.782456 0.922204 0.753171 -0.135880
C20   C     C_R   0.215614 0.392065 0.248356 -0.161584
C21   C     C_R   0.806493 0.968766 0.691567 -0.141952
C22   C     C_R   0.189421 0.403227 0.310691 -0.103835
C23   C     C_R   0.769992 0.943313 0.625585 0.308151
C24   C     C_R   0.227243 0.386433 0.376228 0.299903
C25   C     C_R   0.709034 0.882009 0.621304 0.228093
C26   C     C_R   0.291063 0.394187 0.380475 0.223031
C27   C     C_R   0.824310 0.892140 0.816149 0.672374
C28   C     C_R   0.177236 0.428098 0.183311 0.589421
C29   C     C_R   0.905842 0.021246 0.762070 -0.289131
C30   C     C_R   0.088700 0.431593 0.240326 -0.300287
C31   C     C_R   0.616811 0.854643 0.677684 -0.061930
C32   C     C_R   0.382384 0.352228 0.322905 -0.061757
H3    H     H_    0.542712 0.834654 0.736219 0.135199
H4    H     H_    0.454971 0.308107 0.263332 0.138207
H5    H     H_    0.603526 0.905056 0.848143 0.129558
H6    H     H_    0.388421 0.239011 0.154251 0.156193
C33   C     C_3   0.810617 0.758828 0.264594 -0.395769
C34   C     C_3   0.189582 0.259088 0.735599 -0.395586
C35   C     C_3   0.784597 0.107459 0.245585 -0.576920
C36   C     C_3   0.215384 0.607432 0.754531 -0.578078
C37   C     C_3   0.735654 0.092007 0.295870 0.616256
C38   C     C_3   0.264402 0.592173 0.704330 0.616453
H7    H     H_    0.855580 0.796407 0.295075 0.177604
H8    H     H_    0.144555 0.297008 0.705173 0.178433
H9    H     H_    0.772759 0.223455 0.206215 0.205568
H10   H     H_    0.227084 0.723104 0.793872 0.206722
H11   H     H_    0.829401 0.148016 0.275803 0.213283
H12   H     H_    0.170567 0.648374 0.724244 0.212939
C39   C     C_1   0.624600 0.854200 0.378843 -0.144191
C40   C     C_1   0.375515 0.354248 0.621297 -0.145684
C41   C     C_3   0.791459 0.914122 0.207824 -0.085069
C42   C     C_3   0.208641 0.413841 0.792327 -0.090218
C43   C     C_3   0.762885 0.740379 0.314763 1.139603
C44   C     C_3   0.237268 0.240998 0.685359 1.139298
C45   C     C_3   0.709072 0.883212 0.293110 -0.091363
C46   C     C_3   0.291042 0.383120 0.707045 -0.090238
C47   C     C_3   0.680120 0.837613 0.215895 0.060690
C48   C     C_3   0.320005 0.336448 0.784251 0.056451
C49   C     C_3   0.728584 0.858515 0.166197 0.486700
C50   C     C_3   0.271549 0.357508 0.833964 0.491316
C51   C     C_1   0.662696 0.865386 0.340633 0.220796
C52   C     C_1   0.337424 0.365393 0.659520 0.220622
C53   C     C_1   0.837680 0.930126 0.160252 0.115213
C54   C     C_1   0.162397 0.429816 0.839870 0.119831
C55   C     C_1   0.875499 0.940492 0.121621 -0.145575
C56   C     C_1   0.124543 0.440253 0.878456 -0.140133
H13   H     H_    0.713445 0.972831 0.127077 0.053580
H14   H     H_    0.286644 0.471518 0.873014 0.064588
H15   H     H_    0.816329 0.618081 0.239274 0.202827
H16   H     H_    0.184046 0.118132 0.760956 0.202780
H17   H     H_    0.642601 0.941551 0.199184 0.045997
H18   H     H_    0.357532 0.439760 0.800966 0.048070
O11   O     O_R   0.056480 0.288780 0.942210 -0.537573
O12   O     O_R   0.943520 0.788780 0.057790 -0.533687
O13   O     O_R   0.058700 0.616820 0.085490 -0.535893
O14   O     O_R   0.941300 0.116820 0.914510 -0.544156
C57   C     C_R   0.073200 0.447880 0.111564 0.800829
C58   C     C_R   0.926892 0.948895 0.888248 0.799140
O15   O     O_R   0.063520 0.618570 0.944410 -0.537401
O16   O     O_R   0.936480 0.118570 0.055590 -0.540112
O17   O     O_R   0.948420 0.787670 0.915740 -0.527343
O18   O     O_R   0.051580 0.287670 0.084260 -0.544501
C59   C     C_R   0.078881 0.449879 0.924043 0.736800
C60   C     C_R   0.921123 0.949947 0.075979 0.733083
O19   O     O_3   0.962260 0.453430 0.990800 -0.365927
O20   O     O_3   0.037740 0.953430 0.009200 -0.372649
V3    V     V_3+5 0.007000 0.728750 0.001710 1.530318
V4    V     V_3+5 0.993000 0.228750 0.998290 1.508119
O21   O     O_3   0.763170 0.130362 0.365036 -0.574454
H19   H     H_    0.780407 0.261468 0.366289 0.382378
O22   O     O_3   0.236960 0.631626 0.635151 -0.571541
H20   H     H_    0.219594 0.762775 0.633957 0.382071
O23   O     O_3   0.688172 0.226065 0.277809 -0.574961
H21   H     H_    0.677722 0.233999 0.226227 0.301060
O24   O     O_3   0.311837 0.725581 0.722530 -0.575045
H22   H     H_    0.322206 0.732842 0.774122 0.301669
F1    F     F_    0.733533 0.689698 0.129506 -0.637759
F2    F     F_    0.266692 0.188558 0.870754 -0.630113
O25   O     O_3   0.655012 0.652059 0.211369 -0.559373
H23   H     H_    0.626925 0.645069 0.166254 0.327767
O26   O     O_3   0.345097 0.150529 0.788747 -0.559084
H24   H     H_    0.373222 0.142795 0.833835 0.329304
F3    F     F_    0.741278 0.555126 0.312418 -0.636048
F4    F     F_    0.258945 0.055559 0.687530 -0.636015
O27   O     O_3   0.795581 0.965524 0.565682 -0.592725
H25   H     H_    0.763769 0.009582 0.527302 0.339554
O28   O     O_3   0.201409 0.358522 0.435729 -0.595582
H26   H     H_    0.230802 0.291161 0.471397 0.352408
O29   O     O_3   0.891408 0.115522 0.643609 -0.585258
H27   H     H_    0.860559 0.206366 0.619935 0.335857
O30   O     O_3   0.096900 0.453686 0.362766 -0.584413
H28   H     H_    0.118820 0.558115 0.390850 0.345373
F5    F     F_    0.807767 0.796964 0.871328 -0.647857
F6    F     F_    0.200598 0.467993 0.124362 -0.654931
O31   O     O_3   0.719499 0.006128 0.869375 -0.598352
H29   H     H_    0.692193 0.014946 0.904908 0.303714
O32   O     O_3   0.273169 0.193600 0.138218 -0.586253
H30   H     H_    0.237776 0.129876 0.153340 0.307003
O33   O     O_3   0.676612 0.822602 0.558351 -0.661189
H31   H     H_    0.704852 0.763817 0.529833 0.318908
O34   O     O_3   0.327417 0.424417 0.444042 -0.661505
H32   H     H_    0.304344 0.498866 0.474620 0.311273
F7    F     F_    0.790649 0.773485 0.382914 -0.635204
F8    F     F_    0.209416 0.275304 0.617271 -0.641126

loop_
_geom_bond_atom_site_label_1
_geom_bond_atom_site_label_2
_ccdc_geom_bond_type
C24   C26   A    
C9    C31   A    
O33   H31   S    
O18   V4    S    
C56   C59   S    
C13   C15   A    
C27   F5    S    
C55   C60   S    
C44   F8    S    
O1    C3    A    
O2    C4    A    
C2    O7    A    
O12   V3    S    
C35   H9    S    
O3    V1    S    
O29   H27   S    
C36   H10   S    
O5    C3    A    
C48   O26   S    
C21   C23   A    
C10   C12   A    
O31   H29   S    
C12   H6    S    
C6    O30   S    
C50   F2    S    
C54   C56   T    
O16   C60   A    
O26   H24   S    
C42   C50   S    
C37   O21   S    
C41   C49   S    
C47   O25   S    
C45   C47   S    
C33   C41   S    
C34   H16   S    
O14   V4    S    
C44   F4    S    
C57   O18   A    
C47   H17   S    
C35   H11   S    
C5    O29   S    
C8    C30   A    
C15   C19   A    
C20   C28   A    
C8    C57   S    
C33   H7    S    
O13   C57   A    
C35   C41   S    
C34   C44   S    
C28   F6    S    
O5    V1    S    
O6    V2    S    
C7    C29   A    
C50   H14   S    
C49   H13   S    
H2    C30   S    
H1    C29   S    
C49   F1    S    
C53   C55   T    
C42   C54   S    
C26   O34   S    
C36   C38   S    
C41   C53   S    
C16   C20   A    
C10   H4    S    
O34   H32   S    
C9    H3    S    
C48   C50   S    
O15   V3    S    
C47   C49   S    
C36   H12   S    
C58   O17   A    
C1    C40   S    
C37   O23   S    
C43   C45   S    
C2    C39   S    
O4    V2    S    
C33   H15   S    
C5    C29   A    
C6    C30   A    
O11   V4    S    
O14   C58   A    
C23   O27   S    
O6    C4    A    
O19   V4    S    
O20   V4    S    
C40   C52   T    
O1    V2    S    
C33   C43   S    
O2    V1    S    
C43   F3    S    
O28   H26   S    
C37   C45   S    
C34   H8    S    
C7    C27   A    
O4    C2    A    
O19   V3    S    
C38   C46   S    
O9    V1    S    
C46   C52   S    
O30   H28   S    
C13   O31   S    
O10   V2    S    
O23   H21   S    
O32   H30   S    
O15   C59   A    
C38   O24   S    
C34   C42   S    
O25   H23   S    
C25   O33   S    
O13   V3    S    
C35   C37   S    
C18   C32   A    
C4    C31   S    
O3    C1    A    
C48   H18   S    
O27   H25   S    
C36   C42   S    
C11   C13   A    
O22   H20   S    
C12   C14   A    
C14   O32   S    
C19   C27   A    
C22   C24   A    
O7    V1    S    
C10   C32   A    
C1    O8    A    
C15   C17   A    
O8    V2    S    
O24   H22   S    
C16   C18   A    
C8    C28   A    
C39   C51   T    
C14   C16   A    
O20   V3    S    
C19   C21   A    
C17   C25   A    
C45   C51   S    
C20   C22   A    
C18   C26   A    
C43   F7    S    
C11   H5    S    
C38   O22   S    
C24   O28   S    
C9    C11   A    
O16   V4    S    
C23   C25   A    
C17   C31   A    
O9    V2    S    
O21   H19   S    
C44   C46   S    
O10   V1    S    
C3    C32   S    
C46   C48   S    
C5    C21   A    
C6    C22   A    
O12   C60   A    
O17   V3    S    
O11   C59   A    
C7    C58   S    
