data_mof_unit_60728.cif
_audit_creation_date              2013-03-05T16:38:53-0500
_audit_creation_method            fapswitch 2.2
_symmetry_space_group_name_H-M    P1
_symmetry_Int_Tables_number       1
_space_group_crystal_system       triclinic
_cell_length_a                    19.315731
_cell_length_b                    18.408585
_cell_length_c                    23.49814
_cell_angle_alpha                 90.004889
_cell_angle_beta                  90.117396
_cell_angle_gamma                 90.000682
_cell_volume                      8355.34004515

loop_
_atom_site_label
_atom_site_type_symbol
_atom_site_description
_atom_site_fract_x
_atom_site_fract_y
_atom_site_fract_z
_atom_type_partial_charge
O1    O     O_R   0.398180 0.560840 0.499980 -0.612732
O2    O     O_R   0.601820 0.439160 0.500020 -0.623479
O3    O     O_R   0.601820 0.560840 0.500020 -0.612512
O4    O     O_R   0.398180 0.439160 0.499980 -0.623351
C1    C     C_R   0.365575 0.499994 0.500024 0.954240
C2    C     C_R   0.634424 0.499995 0.499975 0.952594
O5    O     O_R   0.499980 0.560830 0.416150 -0.563482
O6    O     O_R   0.500020 0.439170 0.583850 -0.635653
O7    O     O_R   0.500020 0.560830 0.583850 -0.563280
O8    O     O_R   0.499980 0.439170 0.416150 -0.635433
C3    C     C_R   0.500502 0.499973 0.389078 1.007573
C4    C     C_R   0.499493 0.499979 0.610921 1.007629
Zn1   Zn    Zn3+2 0.500000 0.581210 0.500000 1.044107
Zn2   Zn    Zn3+2 0.500000 0.418790 0.500000 0.961975
C5    C     C_R   0.561320 0.513411 0.880842 0.687109
C6    C     C_R   0.438639 0.513428 0.119155 0.687117
N1    N     N_R   0.499389 0.513842 0.852635 -0.314807
N2    N     N_R   0.500570 0.513814 0.147362 -0.314800
C7    C     C_R   0.437527 0.517308 0.880698 0.689618
C8    C     C_R   0.562435 0.517243 0.119300 0.689609
C9    C     C_R   0.436124 0.518049 0.940287 -0.183218
C10   C     C_R   0.563838 0.517994 0.059712 -0.183209
C11   C     C_R   0.499703 0.517591 0.970074 -0.076723
C12   C     C_R   0.500258 0.517585 0.029925 -0.076721
C13   C     C_R   0.562795 0.516362 0.940154 -0.113328
C14   C     C_R   0.437166 0.516391 0.059844 -0.113331
C15   C     C_R   0.373441 0.518510 0.970841 0.711181
C16   C     C_R   0.626521 0.518420 0.029158 0.711148
C17   C     C_R   0.374232 0.517227 0.030020 -0.183877
C18   C     C_R   0.625729 0.517150 0.969979 -0.183867
O9    O     O_2   0.621161 0.509316 0.851422 -0.491697
O10   O     O_2   0.378796 0.509368 0.148575 -0.491682
O11   O     O_2   0.377897 0.519903 0.850734 -0.417521
O12   O     O_2   0.622066 0.519793 0.149264 -0.417572
H1    H     H_    0.325238 0.516714 0.052372 0.229006
H2    H     H_    0.674723 0.516610 0.947627 0.229014
C19   C     C_R   0.526428 0.447024 0.234610 0.661716
C20   C     C_R   0.473492 0.447069 0.765378 0.661821
C21   C     C_R   0.527821 0.442221 0.294098 -0.080613
C22   C     C_R   0.472109 0.442261 0.705891 -0.080739
C23   C     C_R   0.500631 0.500797 0.326607 -0.392154
C24   C     C_R   0.499349 0.500814 0.673391 -0.392099
C25   C     C_R   0.474176 0.562726 0.298699 0.512973
C26   C     C_R   0.525835 0.562728 0.701306 0.512887
C27   C     C_R   0.475039 0.567074 0.239906 0.590426
C28   C     C_R   0.524962 0.567083 0.760099 0.590297
C29   C     C_R   0.500700 0.509337 0.207929 -0.128352
C30   C     C_R   0.499257 0.509367 0.792068 -0.128313
C31   C     C_R   0.745729 0.433860 0.501168 -0.256898
C32   C     C_R   0.254285 0.433841 0.501373 -0.260944
C33   C     C_R   0.254199 0.566024 0.499105 -0.237569
C34   C     C_R   0.745784 0.566015 0.498285 -0.234798
H3    H     H_    0.718662 0.382346 0.502321 0.218693
H4    H     H_    0.281365 0.382324 0.502255 0.219195
H5    H     H_    0.281214 0.617574 0.498168 0.223286
H6    H     H_    0.718759 0.617553 0.497104 0.221946
C35   C     C_R   0.817438 0.433813 0.501095 0.618878
C36   C     C_R   0.182575 0.433781 0.501469 0.627237
C37   C     C_R   0.182487 0.565984 0.499159 0.627211
C38   C     C_R   0.817495 0.565977 0.498179 0.618576
C39   C     C_R   0.853054 0.499879 0.499740 -0.212582
C40   C     C_R   0.146961 0.499857 0.500323 -0.222918
C41   C     C_R   0.709600 0.499962 0.499831 -0.239568
C42   C     C_R   0.290398 0.499957 0.500164 -0.241810
C43   C     C_R   0.963417 0.501854 0.552317 0.156832
C44   C     C_R   0.036498 0.497801 0.447488 0.152266
C45   C     C_R   0.036252 0.501789 0.552733 0.168754
C46   C     C_R   0.963803 0.497774 0.447210 0.157838
C47   C     C_R   0.071882 0.499802 0.500203 0.156054
C48   C     C_R   0.928231 0.499831 0.499615 0.148824
C49   C     C_R   0.532558 0.726007 0.457390 -0.089861
C50   C     C_R   0.463252 0.274017 0.459638 -0.154411
C51   C     C_R   0.467445 0.726016 0.542611 -0.089635
C52   C     C_R   0.536750 0.274029 0.540362 -0.154764
H7    H     H_    0.558053 0.695950 0.423885 0.201953
H8    H     H_    0.434462 0.304121 0.427922 0.189832
H9    H     H_    0.441952 0.695966 0.576117 0.202062
H10   H     H_    0.565540 0.304142 0.572077 0.189591
C53   C     C_R   0.533058 0.802195 0.456420 0.613890
C54   C     C_R   0.462678 0.197836 0.458684 0.606089
C55   C     C_R   0.466946 0.802204 0.543581 0.613707
C56   C     C_R   0.537326 0.197848 0.541316 0.606218
C57   C     C_R   0.500003 0.841497 0.500000 -0.035945
C58   C     C_R   0.500003 0.158546 0.500000 -0.019438
N3    N     N_R   0.500000 0.689440 0.500000 -0.169205
N4    N     N_R   0.500000 0.310560 0.500000 -0.160655
C59   C     C_R   0.437366 0.961879 0.501944 0.577693
C60   C     C_R   0.562631 0.038169 0.497897 0.572477
C61   C     C_R   0.562639 0.961880 0.498058 0.577625
C62   C     C_R   0.437375 0.038168 0.502105 0.572531
C63   C     C_R   0.500003 0.077272 0.500001 -0.296831
C64   C     C_R   0.500003 0.922775 0.500000 -0.290640
F1    F     F_    0.311118 0.519041 0.944009 -0.564421
F2    F     F_    0.688844 0.518904 0.055990 -0.564467
F3    F     F_    0.564413 0.837145 0.412634 -0.558996
F4    F     F_    0.427043 0.162881 0.417053 -0.571133
F5    F     F_    0.435594 0.837163 0.587368 -0.559094
F6    F     F_    0.572963 0.162904 0.582947 -0.571084
F7    F     F_    0.375896 0.926131 0.502766 -0.517561
F8    F     F_    0.623984 0.073918 0.494752 -0.521633
F9    F     F_    0.624110 0.926133 0.497235 -0.517666
F10   F     F_    0.376022 0.073916 0.505250 -0.521509
F11   F     F_    0.549861 0.391244 0.201999 -0.602133
F12   F     F_    0.450016 0.391307 0.797981 -0.602010
C65   C     C_3   0.559959 0.375916 0.321448 -0.592003
H11   H     H_    0.600399 0.392694 0.352439 0.217686
H12   H     H_    0.519469 0.343433 0.343160 0.238734
H13   H     H_    0.585379 0.339756 0.290021 0.283639
C66   C     C_3   0.439928 0.375980 0.678529 -0.591643
H14   H     H_    0.399513 0.392789 0.647527 0.217563
H15   H     H_    0.480399 0.343459 0.656826 0.238690
H16   H     H_    0.414466 0.339848 0.709947 0.283776
F13   F     F_    0.446569 0.619171 0.328211 -0.568541
F14   F     F_    0.553484 0.619150 0.671799 -0.568687
F15   F     F_    0.450712 0.627694 0.213729 -0.547038
F16   F     F_    0.549324 0.627688 0.786284 -0.547193
F17   F     F_    0.852247 0.369748 0.502370 -0.598862
F18   F     F_    0.147772 0.369713 0.502614 -0.594905
F19   F     F_    0.147596 0.630002 0.498038 -0.590504
F20   F     F_    0.852362 0.629992 0.496586 -0.594795
C67   C     C_3   0.921554 0.504028 0.607132 -0.750376
H17   H     H_    0.952790 0.505594 0.646565 0.248802
H18   H     H_    0.888227 0.553159 0.607429 0.260230
H19   H     H_    0.888207 0.455033 0.609797 0.256820
C68   C     C_3   0.075331 0.495696 0.391187 -0.724444
H20   H     H_    0.061595 0.445540 0.367516 0.253752
H21   H     H_    0.061436 0.543881 0.365187 0.255513
H22   H     H_    0.132398 0.495982 0.395502 0.234238
C69   C     C_3   0.075238 0.503807 0.609016 -0.732982
H23   H     H_    0.061702 0.554147 0.632530 0.258262
H24   H     H_    0.061396 0.455451 0.634842 0.255811
H25   H     H_    0.132297 0.503423 0.604866 0.229976
C70   C     C_3   0.925134 0.495558 0.390730 -0.729099
H26   H     H_    0.938969 0.543776 0.364792 0.255572
H27   H     H_    0.939028 0.445428 0.367135 0.254138
H28   H     H_    0.868059 0.495685 0.394832 0.231302

loop_
_geom_bond_atom_site_label_1
_geom_bond_atom_site_label_2
_geom_bond_distance
_ccdc_geom_bond_type
C39   C48   1.452093 S    
C36   C40   1.397653 A    
C44   C46   1.404147 A    
C31   C41   1.403071 A    
C15   C17   1.390847 A    
C32   C42   1.403146 A    
N1    C30   1.425592 S    
C50   H8    1.081737 S    
O3    C2    1.284998 A    
N2    C29   1.425590 S    
C49   C53   1.402734 A    
C21   C23   1.422554 A    
C45   C69   1.521003 S    
O5    C3    1.288304 A    
C57   C64   1.496215 S    
C65   H12   1.109585 S    
C32   H4    1.083227 S    
O1    C1    1.285004 A    
C46   C70   1.522145 S    
C7    C9    1.400614 A    
C12   C14   1.408344 A    
C66   H15   1.109588 S    
C5    C13   1.395003 A    
C44   C47   1.414002 A    
C43   C48   1.411915 A    
C36   F18   1.357826 S    
C31   C35   1.385117 A    
N2    C8    1.367470 A    
C16   F2    1.357826 S    
O7    Zn1   2.005750 S    
C62   F10   1.357679 S    
C67   H19   1.110180 S    
C4    C24   1.468012 S    
C34   C38   1.385162 A    
C49   N3    1.361538 A    
C43   C45   1.406866 A    
C68   H22   1.106744 S    
C20   F12   1.359324 S    
C11   C12   1.406399 A    
C3    C23   1.468046 S    
C58   C63   1.496154 S    
C43   C67   1.522746 S    
C19   C29   1.398125 A    
C20   C30   1.398130 A    
O3    Zn1   2.002158 S    
C54   C58   1.408080 A    
C69   H25   1.106664 S    
C8    O12   1.349565 S    
C22   C24   1.422541 A    
C9    C15   1.408911 A    
C26   F14   1.358802 S    
C10   C16   1.408911 A    
C59   C64   1.408653 A    
C23   C25   1.410536 A    
O2    C2    1.284810 A    
C24   C26   1.410519 A    
C52   C56   1.402611 A    
C51   C55   1.402734 A    
C55   C57   1.407977 A    
C26   C28   1.383982 A    
C59   F7    1.357677 S    
C27   C29   1.393311 A    
C6    C14   1.395006 A    
C65   H13   1.109478 S    
C28   C30   1.393318 A    
C49   H7    1.081690 S    
C56   F6    1.357191 S    
C32   C36   1.385144 A    
Zn2   N4    1.992359 S    
C7    O11   1.349564 S    
C66   H16   1.109479 S    
C19   F11   1.359322 S    
O6    Zn2   2.005687 S    
C50   C54   1.402610 A    
C40   C47   1.450201 S    
C38   C39   1.397699 A    
C45   C47   1.414966 A    
C2    C41   1.452088 S    
O1    Zn1   2.002153 S    
C53   F3    1.357208 S    
C68   H21   1.109747 S    
C70   H28   1.106843 S    
C27   F15   1.357722 S    
C60   C63   1.408636 A    
O6    C4    1.287523 A    
C52   N4    1.361251 A    
C61   C64   1.408654 A    
C35   C39   1.397669 A    
C25   C27   1.383979 A    
C51   N3    1.361534 A    
C67   H17   1.105058 S    
C60   F8    1.357679 S    
C6    N2    1.366433 A    
C8    C10   1.400611 A    
C56   C58   1.408077 A    
C9    C11   1.412323 A    
O8    Zn2   2.005750 S    
C70   H26   1.109738 S    
C10   C12   1.412322 A    
C15   F1    1.357825 S    
C54   F4    1.357189 S    
C35   F17   1.357851 S    
C69   H23   1.110382 S    
C13   C18   1.401998 A    
C21   C65   1.512180 S    
C37   C40   1.397684 A    
C37   F19   1.357824 S    
C61   F9    1.357677 S    
C33   C42   1.403065 A    
O4    C1    1.284810 A    
C34   C41   1.403003 A    
C50   N4    1.361252 A    
C5    O9    1.350150 S    
C22   C66   1.512185 S    
C18   H2    1.083319 S    
C6    O10   1.350151 S    
C65   H11   1.110636 S    
C17   H1    1.083319 S    
C44   C68   1.522630 S    
C28   F16   1.357722 S    
C16   C18   1.390844 A    
C19   C21   1.400853 A    
C66   H14   1.110642 S    
C25   F13   1.358804 S    
C20   C22   1.400844 A    
C62   C63   1.408634 A    
C68   H20   1.109758 S    
C55   F5    1.357208 S    
C31   H3    1.083235 S    
N1    C7    1.367469 A    
C38   F20   1.357850 S    
C33   H5    1.083208 S    
C11   C13   1.408343 A    
O4    Zn2   2.002162 S    
O2    Zn2   2.002149 S    
O7    C4    1.288300 A    
C67   H18   1.110165 S    
O8    C3    1.287541 A    
C53   C57   1.407973 A    
O5    Zn1   2.005687 S    
C33   C37   1.385185 A    
C60   C61   1.404372 A    
C1    C42   1.452109 S    
C14   C17   1.402000 A    
C46   C48   1.411886 A    
C52   H10   1.081742 S    
C59   C62   1.404372 A    
Zn1   N3    1.992359 S    
C70   H27   1.109752 S    
C51   H9    1.081688 S    
C5    N1    1.366434 A    
C34   H6    1.083216 S    
C69   H24   1.110381 S    
