data_mof_unit_6380.cif
_audit_creation_date              2013-03-05T16:33:33-0500
_audit_creation_method            fapswitch 2.2
_symmetry_space_group_name_H-M    P1
_symmetry_Int_Tables_number       1
_space_group_crystal_system       triclinic
_cell_length_a                    10.875306
_cell_length_b                    10.865282
_cell_length_c                    9.534419
_cell_angle_alpha                 89.701855
_cell_angle_beta                  89.671737
_cell_angle_gamma                 90.936774
_cell_volume                      1126.43321821

loop_
_atom_site_label
_atom_site_type_symbol
_atom_site_description
_atom_site_fract_x
_atom_site_fract_y
_atom_site_fract_z
_atom_type_partial_charge
O1    O     O_R   0.500000 0.319640 0.618810 -0.555703
O2    O     O_R   0.500010 0.319680 0.381230 -0.588504
C1    C     C_R   0.500123 0.262586 0.500014 0.855855
O3    O     O_R   0.319650 0.499970 0.618810 -0.587347
O4    O     O_R   0.319660 0.500010 0.381230 -0.607414
C2    C     C_R   0.262604 0.497291 0.500414 0.803101
Cu1   Cu    Cu3+1 0.499990 0.499980 0.640670 0.979868
Cu2   Cu    Cu3+1 0.500010 0.500020 0.359330 0.961036
O5    O     O_R   0.499990 0.680320 0.618770 -0.595150
O6    O     O_R   0.500000 0.680360 0.381190 -0.534515
O7    O     O_R   0.680340 0.499990 0.618770 -0.569640
O8    O     O_R   0.680350 0.500030 0.381190 -0.590067
C3    C     C_R   0.497289 0.737819 0.499345 0.826832
C4    C     C_R   0.737284 0.499321 0.499450 0.824541
C5    C     C_R   0.059947 0.464639 0.618267 0.063008
C6    C     C_R   0.129877 0.494383 0.499496 -0.087032
C7    C     C_R   0.066031 0.522634 0.374924 -0.216337
H1    H     H_    0.115142 0.545307 0.278794 0.150465
C8    C     C_R   0.937081 0.523689 0.373805 -0.194504
H2    H     H_    0.890886 0.545887 0.276992 0.151075
C9    C     C_R   0.869790 0.497563 0.497409 -0.072249
C10   C     C_R   0.935736 0.468821 0.616596 -0.013832
C11   C     C_3   0.920244 0.429662 0.765101 0.098906
C12   C     C_3   0.062846 0.428737 0.770873 0.189073
H3    H     H_    0.879053 0.500212 0.833407 0.047117
H4    H     H_    0.105154 0.503727 0.834824 0.032003
C13   C     C_R   0.515680 0.063581 0.622691 0.197819
C14   C     C_R   0.504864 0.129863 0.498316 -0.163096
C15   C     C_R   0.498176 0.066681 0.370748 -0.309601
H5    H     H_    0.492880 0.116291 0.272167 0.181951
C16   C     C_R   0.490264 0.938259 0.369159 0.436443
C17   C     C_R   0.498595 0.871748 0.496885 -0.202301
C18   C     C_R   0.513282 0.936396 0.622336 0.073524
C19   C     C_3   0.433119 0.931761 0.750674 -0.476119
C20   C     C_3   0.436526 0.070843 0.750159 -0.451461
H6    H     H_    0.340119 0.891790 0.730449 0.200284
H7    H     H_    0.480476 0.893318 0.843109 0.208606
H8    H     H_    0.345866 0.112108 0.727438 0.215417
H9    H     H_    0.486657 0.110974 0.840833 0.222927
C21   C     C_R   0.602496 0.536942 0.072676 0.281326
N1    N     N_R   0.500790 0.500930 0.147930 -0.185865
C22   C     C_R   0.404397 0.450442 0.075299 -0.099014
H10   H     H_    0.326355 0.411764 0.131684 0.143129
C23   C     C_R   0.404549 0.450489 0.926395 -0.098665
H11   H     H_    0.327089 0.412161 0.870932 0.181374
N2    N     N_R   0.500790 0.500890 0.852020 -0.190431
C24   C     C_R   0.602090 0.537687 0.925221 0.335832
C25   C     C_3   0.662794 0.661457 0.918390 -0.527720
C26   C     C_3   0.665272 0.659827 0.077376 -0.509804
H12   H     H_    0.755620 0.660373 0.869972 0.194375
H13   H     H_    0.601811 0.732220 0.874523 0.216210
H14   H     H_    0.759771 0.654650 0.120135 0.187121
H15   H     H_    0.607704 0.731488 0.124910 0.276933
N3    N     N_R   0.859053 0.308694 0.775943 0.160807
O9    O     O_R   0.769910 0.291998 0.865896 -0.392949
O10   O     O_R   0.887167 0.219725 0.691143 -0.319552
O11   O     O_3   0.113293 0.311042 0.793121 -0.527562
C27   C     C_3   0.106706 0.281879 0.938172 0.131285
H16   H     H_    0.010592 0.259139 0.969892 0.197828
H17   H     H_    0.140516 0.358986 0.004881 0.084787
C28   C     C_3   0.184594 0.170123 0.969199 -0.825354
H18   H     H_    0.283278 0.193506 0.952951 0.226986
H19   H     H_    0.171091 0.141161 0.080179 0.199478
H20   H     H_    0.157653 0.092508 0.899897 0.269208
O12   O     O_3   0.474901 0.877638 0.243029 -0.579950
C29   C     C_3   0.357808 0.902332 0.186429 0.059667
H21   H     H_    0.365139 0.983482 0.115099 0.157338
H22   H     H_    0.286454 0.920233 0.268367 0.133640
C30   C     C_3   0.314126 0.791362 0.102290 -0.779209
H23   H     H_    0.299644 0.710865 0.173183 0.255525
H24   H     H_    0.225978 0.812347 0.049732 0.195105
H25   H     H_    0.383496 0.767487 0.021460 0.243139

loop_
_geom_bond_atom_site_label_1
_geom_bond_atom_site_label_2
_geom_bond_distance
_ccdc_geom_bond_type
C8    C9    1.408836 A    
C5    C6    1.394087 A    
C28   H20   1.110653 S    
C29   H22   1.117989 S    
C11   C12   1.552331 S    
C15   H5    1.083352 S    
C30   H25   1.110040 S    
C19   H7    1.106731 S    
N1    C22   1.368535 A    
C3    C17   1.455081 S    
C20   H9    1.111896 S    
C16   C17   1.416936 A    
C18   C19   1.498504 S    
Cu2   O8    1.973482 S    
C26   H14   1.109957 S    
C17   C18   1.398861 A    
C27   C28   1.520604 S    
C25   H12   1.107911 S    
C7    H1    1.083392 S    
O8    C4    1.289517 A    
C30   H24   1.110645 S    
Cu1   Cu2   2.682410 S    
C15   C16   1.396755 A    
C5    C12   1.505066 S    
C9    C10   1.384264 A    
C13   C18   1.381748 A    
Cu1   O7    1.971253 S    
C14   C15   1.401424 A    
O11   C27   1.418347 S    
C30   H23   1.111202 S    
C22   C23   1.419707 A    
C28   H19   1.110609 S    
O3    Cu1   1.973481 S    
C26   H15   1.104523 S    
O4    C2    1.291569 A    
C4    C9    1.441505 S    
Cu2   O6    1.971578 S    
C21   N1    1.365715 A    
C7    C8    1.402707 A    
C12   H4    1.115112 S    
O2    C1    1.288489 A    
C19   H6    1.112420 S    
C11   H3    1.107016 S    
C28   H18   1.108657 S    
C19   C20   1.510991 S    
O7    C4    1.292272 A    
N3    O10   1.302537 A    
C16   O12   1.383798 S    
C25   H13   1.105636 S    
C29   C30   1.522725 S    
C1    C14   1.444001 S    
C22   H10   1.080138 S    
C2    C6    1.443359 S    
C21   C26   1.490626 S    
Cu1   N2    2.015243 S    
C24   C25   1.489335 S    
C20   H8    1.111732 S    
C29   H21   1.112269 S    
Cu2   N1    2.015517 S    
C11   N3    1.466383 S    
O3    C2    1.291426 A    
O12   C29   1.415044 S    
N2    C24   1.363064 A    
C13   C14   1.390747 A    
Cu1   O5    1.969459 S    
O4    Cu2   1.971253 S    
C10   C11   1.484204 S    
C25   C26   1.516245 S    
O1    Cu1   1.971578 S    
O5    C3    1.296635 A    
C13   C20   1.488459 S    
C27   H16   1.110071 S    
N3    O9    1.300547 A    
C21   C24   1.405913 A    
C27   H17   1.113452 S    
C5    C10   1.352519 A    
O2    Cu2   1.969457 S    
C23   H11   1.076392 S    
C8    H2    1.081456 S    
C6    C7    1.414088 A    
C23   N2    1.366352 A    
C12   O11   1.415190 S    
O1    C1    1.294026 A    
O6    C3    1.291226 A    
