data_mof_unit_17324.cif
_audit_creation_date              2012-12-11T20:00:37-0500
_audit_creation_method            fapswitch 2.2
_symmetry_space_group_name_H-M    P1
_symmetry_Int_Tables_number       1
_space_group_crystal_system       triclinic
_cell_length_a                    8.31222
_cell_length_b                    16.176825
_cell_length_c                    26.996299
_cell_angle_alpha                 72.475278
_cell_angle_beta                  96.668836
_cell_angle_gamma                 96.194797
_cell_volume                      3427.95253742

loop_
_atom_site_label
_atom_site_type_symbol
_atom_type_description
_atom_site_fract_x
_atom_site_fract_y
_atom_site_fract_z
_atom_type_partial_charge
Ba1   Ba    Ba6+2 0.337820 0.939830 0.518500 1.645268
Ba2   Ba    Ba6+2 0.851970 0.060110 0.481480 1.656471
Br1   Br    Br    0.029398 0.554222 0.533032 -0.678980
Br2   Br    Br    0.033622 0.562310 0.339674 -0.601242
C1    C     C_3   0.118812 0.594175 0.591672 0.077912
C2    C     C_R   0.459590 0.403989 0.191041 0.588681
C3    C     C_2   0.293997 0.282248 0.280510 -0.101635
C4    C     C_3   0.521578 0.642714 0.631214 0.276595
C5    C     C_3   0.282317 0.250834 0.338756 -0.077455
C6    C     C_1   0.480694 0.146390 0.342560 0.039188
C7    C     C_2   0.523412 0.191958 0.295088 -0.089528
C8    C     C_2   0.422620 0.263257 0.260185 0.200168
C9    C     C_R   0.549509 0.413917 0.106338 -0.080578
C10   C     C_R   0.562347 0.323353 0.123536 -0.035225
C11   C     C_R   0.619218 0.284054 0.089848 -0.057729
C12   C     C_3   0.000256 0.616897 0.624393 0.308254
C13   C     C_R   0.495923 0.453991 0.140278 -0.025535
C14   C     C_2   0.365999 0.168834 0.365147 -0.275099
C15   C     C_2   0.832815 0.837522 0.639349 -0.271631
C16   C     C_3   0.480977 0.570087 0.680823 -0.224658
C17   C     C_R   0.704702 0.476403 0.972793 0.020150
C18   C     C_R   0.599502 0.604512 0.985515 0.020682
C19   C     C_R   0.672268 0.565631 0.953878 0.051001
C20   C     C_R   0.787668 0.442545 0.941216 -0.103539
C21   C     C_R   0.832037 0.493535 0.892380 -0.067550
C22   C     C_R   0.793939 0.580449 0.872239 -0.031305
C23   C     C_3   0.090712 0.029553 0.650315 0.280825
C24   C     C_R   0.712959 0.616523 0.902795 -0.082110
C25   C     C_R   0.672949 0.703510 0.882341 -0.035968
C26   C     C_R   0.710173 0.752420 0.831235 0.593929
C27   C     C_R   0.832982 0.631273 0.821749 0.571832
C28   C     C_3   0.573268 0.882123 0.387812 0.296732
C29   C     C_2   0.962609 0.768466 0.728317 -0.077646
C30   C     C_3   0.990734 0.819474 0.672343 -0.042566
C31   C     C_1   0.714960 0.858710 0.660304 0.051663
C32   C     C_2   0.685099 0.815537 0.709315 -0.128701
C33   C     C_2   0.816378 0.766079 0.746834 0.184900
C34   C     C_3   0.097459 0.003537 0.709573 -0.381508
C35   C     C_R   0.654834 0.424483 0.022520 0.019752
C36   C     C_R   0.590738 0.464622 0.055268 0.051374
C37   C     C_R   0.567776 0.555084 0.037547 0.018725
C38   C     C_R   0.665493 0.333283 0.040775 -0.100458
C39   C     C_R   0.481436 0.543975 0.123166 -0.050139
C40   C     C_3   0.489359 0.812167 0.364584 -0.338777
C41   C     C_R   0.559773 0.691808 0.963629 -0.098641
C42   C     C_R   0.595169 0.739817 0.913285 -0.060284
C43   C     C_R   0.515306 0.593251 0.073009 -0.099708
C44   C     C_2   0.402354 0.248555 0.510085 -0.267483
C45   C     C_3   0.606188 0.386097 0.371594 0.350671
C46   C     C_R   0.800886 0.757930 0.488531 -0.271509
C47   C     C_2   0.235122 0.323555 0.549445 -0.118286
C48   C     C_2   0.260857 0.251713 0.537380 0.032951
C49   C     C_2   0.505556 0.318473 0.494222 -0.022165
C50   C     C_3   0.450981 0.406270 0.491419 -0.064289
C51   C     C_3   0.353958 0.402178 0.537212 0.102888
C52   C     C_3   0.569523 0.113082 0.612700 0.318777
C53   C     C_2   0.583001 0.477562 0.485600 -0.093842
C54   C     C_2   0.544284 0.560019 0.470299 -0.080083
C55   C     C_R   0.791178 0.638253 0.431996 0.140288
C56   C     C_3   0.624539 0.470612 0.327990 -0.284508
C57   C     C_R   0.671142 0.631300 0.465654 -0.045048
C58   C     C_R   0.914927 0.704641 0.426475 -0.068797
C59   C     C_R   0.920811 0.763770 0.455271 0.072207
C60   C     C_R   0.672693 0.693562 0.492761 0.008069
C61   C     C_3   0.553967 0.177675 0.643381 -0.207767
C62   C     C_3   0.119580 0.994794 0.359135 0.301342
C63   C     C_3   0.121639 0.032431 0.300319 -0.354969
C64   C     C_3   0.696304 0.247309 0.639550 -0.258377
C65   C     C_3   0.855110 0.209817 0.666263 -0.333749
C66   C     C_3   0.904397 0.534565 0.656231 -0.176012
C67   C     C_3   0.117313 0.386678 0.387582 0.409277
C68   C     C_3   0.792292 0.485225 0.623884 -0.442006
C69   C     C_3   0.526892 0.598881 0.729717 -0.264478
C70   C     C_3   0.481138 0.526963 0.778520 -0.371163
C71   C     C_3   0.190642 0.475603 0.357368 0.070479
C72   C     C_R   0.516525 0.273815 0.173784 0.597592
H1    H     H_    0.913829 0.663060 0.598889 0.002352
H2    H     H_    0.048536 0.035961 0.373337 0.084529
H3    H     H_    0.199856 0.995366 0.285433 0.133527
H4    H     H_    0.169562 0.101490 0.290127 0.065961
H5    H     H_    0.996375 0.028789 0.281224 0.140537
H6    H     H_    0.190926 0.540695 0.615761 0.087836
H7    H     H_    0.961375 0.027273 0.634492 0.025563
H8    H     H_    0.156010 0.982980 0.638615 0.050431
H9    H     H_    0.048834 0.054391 0.722291 0.131997
H10   H     H_    0.023049 0.941871 0.724621 0.077384
H11   H     H_    0.225072 0.995351 0.726555 0.124845
H12   H     H_    0.549708 0.811944 0.330023 0.124467
H13   H     H_    0.198698 0.653170 0.576459 0.144790
H14   H     H_    0.606052 0.330490 0.355465 0.038280
H15   H     H_    0.488159 0.384286 0.387428 -0.091508
H16   H     H_    0.726057 0.468970 0.305057 0.179797
H17   H     H_    0.511118 0.480048 0.301868 0.117212
H18   H     H_    0.648231 0.526410 0.344466 0.143193
H19   H     H_    0.219319 0.347240 0.408853 -0.157620
H20   H     H_    0.046757 0.394269 0.418149 0.123850
H21   H     H_    0.294150 0.497217 0.381628 0.035996
H22   H     H_    0.446398 0.696776 0.627943 0.105963
H23   H     H_    0.493922 0.747389 0.393641 0.062261
H24   H     H_    0.235537 0.471600 0.321088 0.090564
H25   H     H_    0.634495 0.179565 0.281995 0.138732
H26   H     H_    0.629304 0.214478 0.101468 0.123472
H27   H     H_    0.064030 0.738442 0.754035 0.121576
H28   H     H_    0.895365 0.463866 0.870035 0.118949
H29   H     H_    0.823749 0.376914 0.953688 0.069636
H30   H     H_    0.705551 0.297302 0.017382 0.069797
H31   H     H_    0.212120 0.329765 0.256917 0.122150
H32   H     H_    0.442434 0.577099 0.148596 0.129570
H33   H     H_    0.496821 0.724626 0.983985 0.070980
H34   H     H_    0.359709 0.824782 0.352576 0.143675
H35   H     H_    0.652029 0.665872 0.634534 -0.026672
H36   H     H_    0.560848 0.806164 0.898617 0.120931
H37   H     H_    0.565452 0.814165 0.721933 0.129229
H38   H     H_    0.503249 0.662005 0.063705 0.073929
H39   H     H_    0.353167 0.139722 0.406460 0.080624
H40   H     H_    0.817326 0.834913 0.599320 0.060792
H41   H     H_    0.137045 0.322721 0.572910 0.103079
H42   H     H_    0.004028 0.710822 0.399106 0.120293
H43   H     H_    0.428167 0.186371 0.506538 0.053441
H44   H     H_    0.801690 0.806915 0.508432 0.061951
H45   H     H_    0.446653 0.093909 0.597576 0.007253
H46   H     H_    0.708863 0.462639 0.496472 0.148122
H47   H     H_    0.349620 0.551290 0.679741 0.130553
H48   H     H_    0.417698 0.574539 0.462485 0.141303
H49   H     H_    0.544115 0.511709 0.683983 0.116823
H50   H     H_    0.704866 0.873643 0.395314 -0.019898
H51   H     H_    0.520643 0.874405 0.425010 0.067868
H52   H     H_    0.841627 0.174567 0.707950 0.126305
H53   H     H_    0.891003 0.164813 0.646522 0.170829
H54   H     H_    0.952411 0.263262 0.663822 0.110088
H55   H     H_    0.711674 0.283113 0.598043 0.126873
H56   H     H_    0.644269 0.143241 0.579340 0.036121
H57   H     H_    0.666591 0.294554 0.658928 0.116218
H58   H     H_    0.861452 0.440498 0.611987 0.172617
H59   H     H_    0.697697 0.444164 0.647815 0.115730
H60   H     H_    0.732387 0.530502 0.588962 0.187614
H61   H     H_    0.990238 0.489114 0.682658 0.119466
H62   H     H_    0.830326 0.554339 0.681753 0.127223
H63   H     H_    0.350128 0.505135 0.774640 0.148309
H64   H     H_    0.555037 0.470762 0.785043 0.136752
H65   H     H_    0.503500 0.551894 0.812928 0.123979
H66   H     H_    0.659188 0.615714 0.732501 0.158752
H67   H     H_    0.442613 0.212156 0.628091 0.055328
H68   H     H_    0.463162 0.657057 0.727081 0.157357
H69   H     H_    0.538430 0.142192 0.684998 0.143008
H70   H     H_    0.245587 0.995234 0.377374 0.001718
N1    N     N_R   0.466197 0.314027 0.207529 -0.420345
N2    N     N_R   0.786750 0.715955 0.800751 -0.423021
O1    O     O_2   0.431310 0.922990 0.623550 -0.464833
O2    O     O_2   0.841172 0.306564 0.505365 -0.477494
O3    O     O_3   0.737212 0.383976 0.409584 -0.559985
O4    O     O_3   0.663280 0.983100 0.563360 -0.485679
O5    O     O_3   0.016420 0.932050 0.462720 -0.490885
O6    O     O_2   0.959730 0.164640 0.549160 -0.452368
O7    O     O_3   0.165807 0.113631 0.632997 -0.658020
O8    O     O_2   0.941769 0.204722 0.326822 -0.488409
O9    O     O_3   0.013225 0.349153 0.353383 -0.567837
O10   O     O_2   0.519679 0.194808 0.187001 -0.595376
O11   O     O_2   0.904965 0.598957 0.796080 -0.609457
O12   O     O_3   0.048328 0.909537 0.370221 -0.633106
O13   O     O_2   0.423601 0.441380 0.220798 -0.623971
O14   O     O_2   0.676328 0.828067 0.814270 -0.598702
O15   O     O_3   0.126250 0.812630 0.574830 -0.484130
O16   O     O_2   0.297224 0.780205 0.666146 -0.502584
O17   O     O_3   0.640370 0.040008 0.646405 -0.637534
O18   O     O_3   0.093611 0.651783 0.661696 -0.616355
O19   O     O_2   0.229950 0.835370 0.450810 -0.460409
O20   O     O_3   0.517580 0.797570 0.545130 -0.504589
O21   O     O_2   0.341796 0.693135 0.497194 -0.449274
O22   O     O_3   0.486840 0.611640 0.587377 -0.619159
O23   O     O_2   0.758370 0.077020 0.376420 -0.453906
O24   O     O_3   0.526390 0.016840 0.436620 -0.505108
O25   O     O_3   0.063420 0.187310 0.425160 -0.462282
O26   O     O_3   0.550530 0.963007 0.351155 -0.622441
O27   O     O_3   0.173250 0.067890 0.537260 -0.478702
O28   O     O_3   0.672100 0.202370 0.454860 -0.475332
P1    P     P_3+3 0.610630 0.953360 0.619150 0.995928
P2    P     P_3+3 0.057260 0.861390 0.437850 0.997464
P3    P     P_3+3 0.505010 0.698970 0.530257 0.932380
P4    P     P_3+3 0.579040 0.046590 0.380840 0.994728
P5    P     P_3+3 0.689783 0.303522 0.466680 0.977635
P6    P     P_3+3 0.122213 0.766141 0.642424 0.937708
P7    P     P_3+3 0.143566 0.149772 0.564871 0.936403
P8    P     P_3+3 0.073506 0.245767 0.359564 0.978474

loop_
_geom_bond_atom_site_label_1
_geom_bond_atom_site_label_2
_ccdc_geom_bond_type
C31   P1    S    
C43   H38   S    
C2    N1    Am   
C42   H36   S    
C64   H55   S    
O17   P1    S    
C69   C70   S    
C31   C32   D    
O18   P6    S    
C48   P7    S    
C45   H14   S    
C62   O12   S    
O8    P8    D    
C49   C50   S    
C72   O10   D    
C58   C59   A    
C45   C56   S    
C34   H10   S    
C46   H44   S    
C28   H51   S    
C32   C33   S    
C12   H1    S    
Ba2   O25   S    
C10   C11   A    
C61   H67   S    
C40   H23   S    
C41   H33   S    
C68   H60   S    
C18   C37   A    
C67   H19   S    
Ba1   O19   S    
C23   C34   S    
C52   C61   S    
C71   H21   S    
Ba1   O15   S    
C46   C60   A    
O28   P5    S    
Ba1   O4    S    
Ba1   Ba2   S    
C28   H50   S    
O4    P1    S    
C4    H22   S    
C35   C38   A    
C16   H47   S    
Ba2   O28   S    
C53   H46   S    
C50   C51   S    
Ba1   P1    S    
Ba1   O27   S    
O25   P8    S    
C12   O18   S    
C64   C65   S    
C9    C36   A    
C52   O17   S    
Ba1   O1    S    
O9    P8    S    
C44   H43   S    
C47   C51   S    
Ba2   O23   S    
C56   H17   S    
O24   P4    S    
C54   C57   S    
C64   H57   S    
C62   C63   S    
C1    C12   S    
C22   C27   A    
Ba2   O6    S    
C9    C10   A    
O15   P6    S    
C23   O7    S    
C46   C59   A    
C3    C8    D    
Ba2   P4    S    
C45   H15   S    
C62   H2    S    
C32   H37   S    
C4    O22   S    
O3    P5    S    
O2    P5    D    
C69   H66   S    
C56   H16   S    
Ba2   O4    S    
C44   C49   D    
C67   O9    S    
C55   C57   A    
C58   H42   S    
C45   O3    S    
C34   H9    S    
C47   C48   D    
C63   H3    S    
C20   C21   A    
C72   N1    Am   
C4    H35   S    
C35   C36   A    
C60   P3    S    
C33   N2    S    
C65   H54   S    
C68   H59   S    
C67   H20   S    
Ba1   O20   S    
C21   C22   A    
C41   C42   A    
C70   H64   S    
C29   C33   D    
C10   C72   A    
C57   C60   A    
C13   C39   A    
C56   H18   S    
C25   C26   A    
C49   P5    S    
Ba2   O27   S    
C38   H30   S    
Ba1   P2    S    
C68   H58   S    
C17   C35   A    
C2    O13   D    
C61   C64   S    
O6    P7    D    
O19   P2    D    
O1    P1    D    
C29   C30   S    
C37   C43   A    
C12   C66   S    
C7    H25   S    
C4    C16   S    
C19   C24   A    
Ba1   O5    S    
C59   P2    S    
O12   P2    S    
C52   H56   S    
C27   N2    Am   
C36   C37   A    
C70   H65   S    
C63   H5    S    
Ba2   O5    S    
C17   C19   A    
C3    H31   S    
O23   P4    D    
C26   O14   D    
C61   H69   S    
C24   C25   A    
O26   P4    S    
C8    N1    S    
O27   P7    S    
C3    C5    S    
C2    C13   A    
O5    P2    S    
C23   H8    S    
C55   C58   A    
C29   H27   S    
O22   P3    S    
C22   C24   A    
C63   H4    S    
C11   C38   A    
Br1   C1    S    
C15   C30   S    
C14   H39   S    
C7    C8    S    
C21   H28   S    
C26   N2    Am   
O20   P3    S    
C70   H63   S    
C34   H11   S    
Ba1   O24   S    
C54   H48   S    
C9    C13   A    
C25   C42   A    
C6    P4    S    
C52   H45   S    
C23   H7    S    
C16   H49   S    
C65   H52   S    
C5    P8    S    
C15   C31   D    
C50   C53   S    
C67   C71   S    
C1    H6    S    
C66   H62   S    
C53   C54   D    
C28   O26   S    
C15   H40   S    
C6    C14   D    
C71   H24   S    
C47   H41   S    
C16   C69   S    
C30   P6    S    
O7    P7    S    
C39   H32   S    
C11   H26   S    
C27   O11   D    
C62   H70   S    
O16   P6    D    
C6    C7    D    
Br2   C71   S    
C5    C14   S    
C44   C48   S    
C18   C41   A    
C28   C40   S    
C66   H61   S    
C65   H53   S    
C17   C20   A    
C18   C19   A    
C66   C68   S    
C20   H29   S    
C40   H12   S    
C39   C43   A    
O21   P3    D    
C1    H13   S    
Ba2   O24   S    
C69   H68   S    
C40   H34   S    
