data_mof_unit_12533.cif
_audit_creation_date              2012-12-11T15:45:19-0500
_audit_creation_method            fapswitch 2.2
_symmetry_space_group_name_H-M    P1
_symmetry_Int_Tables_number       1
_space_group_crystal_system       triclinic
_cell_length_a                    8.247162
_cell_length_b                    19.069467
_cell_length_c                    22.851204
_cell_angle_alpha                 95.658933
_cell_angle_beta                  90.041997
_cell_angle_gamma                 94.399517
_cell_volume                      3565.60879759

loop_
_atom_site_label
_atom_site_type_symbol
_atom_type_description
_atom_site_fract_x
_atom_site_fract_y
_atom_site_fract_z
_atom_type_partial_charge
Ba1   Ba    Ba6+2 0.850680 0.532880 0.472010 1.647111
Ba2   Ba    Ba6+2 0.339140 0.467180 0.527990 1.673825
C1    C     C_3   0.637132 0.790744 0.319279 -0.358336
C2    C     C_3   0.624450 0.717455 0.340426 0.348001
C3    C     C_3   0.503974 0.334529 0.343169 0.782098
C4    C     C_3   0.634855 0.342855 0.295515 -0.353983
C5    C     C_3   0.068997 0.313974 0.692742 0.297559
C6    C     C_3   0.119086 0.303449 0.755084 -0.342171
C7    C     C_3   0.574116 0.292563 0.665905 0.345762
C8    C     C_3   0.583414 0.222326 0.691442 -0.363461
C9    C     C_R   0.340540 0.517498 0.331830 -0.283410
C10   C     C_R   0.103974 0.564958 0.937978 -0.087618
C11   C     C_R   0.056266 0.563164 0.878154 0.604811
C12   C     C_3   0.100782 0.682601 0.312024 0.313711
C13   C     C_R   0.923543 0.447134 0.881419 0.576398
C14   C     C_R   0.970287 0.447277 0.941195 -0.009824
C15   C     C_R   0.060570 0.506748 0.969680 -0.057745
C16   C     C_R   0.195060 0.623747 0.966669 -0.121948
C17   C     C_R   0.243495 0.625273 0.025721 0.425668
C18   C     C_R   0.195678 0.567878 0.058844 -0.087401
C19   C     C_R   0.107234 0.507983 0.030055 -0.108379
C20   C     C_R   0.929397 0.389029 0.973116 -0.080575
C21   C     C_R   0.977306 0.389678 0.031927 -0.075022
C22   C     C_R   0.066122 0.448953 0.061247 -0.003707
C23   C     C_3   0.077434 0.702556 0.250003 -0.306214
C24   C     C_R   0.116034 0.449874 0.120759 0.585564
C25   C     C_R   0.234539 0.568673 0.119646 0.589526
C26   C     C_2   0.761597 0.491754 0.771063 -0.094649
C27   C     C_3   0.712486 0.494844 0.707102 0.019169
C28   C     C_1   0.000013 0.516570 0.685661 0.033007
C29   C     C_2   0.045019 0.517603 0.741759 -0.126282
C30   C     C_2   0.920102 0.503662 0.788240 0.191508
C31   C     C_R   0.403603 0.538608 0.231302 -0.103232
C32   C     C_R   0.448262 0.543180 0.290892 -0.015140
C33   C     C_R   0.188320 0.486183 0.314551 0.029423
C34   C     C_3   0.151498 0.685484 0.592218 0.391539
C35   C     C_R   0.138579 0.484335 0.255072 -0.123792
C36   C     C_R   0.245895 0.510917 0.212239 0.194524
C37   C     C_2   0.857363 0.487175 0.667196 -0.260978
C38   C     C_R   0.396324 0.703049 0.475248 -0.259257
C39   C     C_R   0.538548 0.725550 0.506525 0.004596
C40   C     C_R   0.592136 0.797250 0.513294 -0.090772
C41   C     C_R   0.495670 0.847970 0.493030 0.025680
C42   C     C_R   0.345845 0.824358 0.464400 -0.149482
C43   C     C_R   0.296480 0.751744 0.456023 0.013618
C44   C     C_R   0.533010 0.967518 0.456110 -0.149993
C45   C     C_3   0.094700 0.759610 0.604630 -0.347392
C46   C     C_R   0.583720 0.039500 0.462678 -0.086291
C47   C     C_R   0.651345 0.071670 0.516015 0.014540
C48   C     C_R   0.668571 0.029986 0.562479 -0.131588
C49   C     C_R   0.622817 0.956309 0.556071 0.428941
C50   C     C_R   0.550393 0.925051 0.502308 0.020297
C51   C     C_R   0.849900 0.175054 0.551557 -0.134792
C52   C     C_R   0.898626 0.247608 0.555049 0.011829
C53   C     C_R   0.653684 0.268899 0.503653 0.046707
C54   C     C_R   0.604092 0.196804 0.499663 -0.108675
C55   C     C_R   0.701227 0.148897 0.523552 0.003583
C56   C     C_3   0.993253 0.319464 0.408178 0.331959
C57   C     C_R   0.797831 0.294077 0.532515 -0.279907
C58   C     C_3   0.967824 0.239726 0.393953 -0.378115
C59   C     C_3   0.550190 0.682079 0.655679 0.650457
C60   C     C_3   0.517247 0.760638 0.663003 -0.338801
H1    H     H_    0.695572 0.719963 0.382038 0.082682
H2    H     H_    0.168546 0.789689 0.640804 0.100432
H3    H     H_    0.108479 0.788359 0.564673 0.081330
H4    H     H_    0.964708 0.756802 0.617813 0.123358
H5    H     H_    0.877661 0.340497 0.422923 -0.018226
H6    H     H_    0.085127 0.331107 0.443873 0.084337
H7    H     H_    0.871572 0.226669 0.359755 0.128519
H8    H     H_    0.930895 0.213991 0.433685 0.057039
H9    H     H_    0.082736 0.218471 0.377485 0.154397
H10   H     H_    0.442740 0.651167 0.636216 0.062931
H11   H     H_    0.766558 0.807697 0.311073 0.139578
H12   H     H_    0.626146 0.793885 0.680088 0.104530
H13   H     H_    0.416038 0.768941 0.694659 0.113569
H14   H     H_    0.480917 0.778512 0.620679 0.069449
H15   H     H_    0.494157 0.702638 0.348898 -0.056433
H16   H     H_    0.588352 0.829067 0.353408 0.067157
H17   H     H_    0.478712 0.388071 0.363656 -0.074925
H18   H     H_    0.638152 0.293126 0.265943 0.102400
H19   H     H_    0.613233 0.387495 0.269423 0.046069
H20   H     H_    0.756403 0.353462 0.316049 0.131336
H21   H     H_    0.565465 0.790340 0.277942 0.128655
H22   H     H_    0.076652 0.654401 0.218383 0.118707
H23   H     H_    0.101826 0.370090 0.685692 0.066898
H24   H     H_    0.935348 0.302446 0.688241 -0.019158
H25   H     H_    0.253210 0.312916 0.760351 0.152357
H26   H     H_    0.060415 0.341351 0.786668 0.125255
H27   H     H_    0.081078 0.248676 0.764893 0.115907
H28   H     H_    0.685392 0.302862 0.640188 -0.047460
H29   H     H_    0.465313 0.288320 0.636723 0.102991
H30   H     H_    0.593131 0.179471 0.655275 0.072266
H31   H     H_    0.472079 0.210366 0.717126 0.135817
H32   H     H_    0.013659 0.636726 0.318168 0.104860
H33   H     H_    0.691743 0.224473 0.720660 0.124515
H34   H     H_    0.943576 0.343449 0.054531 0.119241
H35   H     H_    0.860573 0.342364 0.952594 0.121088
H36   H     H_    0.491584 0.557074 0.200070 0.112688
H37   H     H_    0.231351 0.669041 0.943189 0.138960
H38   H     H_    0.171695 0.529261 0.754410 0.140491
H39   H     H_    0.667336 0.484443 0.803525 0.105444
H40   H     H_    0.018214 0.461432 0.242330 0.134049
H41   H     H_    0.377881 0.519685 0.377422 0.085228
H42   H     H_    0.227171 0.667303 0.316764 -0.039821
H43   H     H_    0.844554 0.457574 0.624048 0.063940
H44   H     H_    0.492837 0.177950 0.476048 0.088043
H45   H     H_    0.570892 0.070010 0.425633 0.083934
H46   H     H_    0.482044 0.944620 0.414198 0.087737
H47   H     H_    0.714069 0.055676 0.604223 0.059263
H48   H     H_    0.930306 0.139120 0.568083 0.073144
H49   H     H_    0.837192 0.349631 0.533552 0.059965
H50   H     H_    0.959104 0.726150 0.246132 0.143358
H51   H     H_    0.356986 0.647314 0.469681 0.066534
H52   H     H_    0.177709 0.741399 0.238987 0.132038
H53   H     H_    0.278084 0.690191 0.577676 -0.160533
H54   H     H_    0.079960 0.657388 0.555325 0.101342
N1    N     N_R   0.967452 0.504540 0.850201 -0.422550
N2    N     N_R   0.196948 0.509830 0.150148 -0.427161
O1    O     O_2   0.896730 0.461690 0.361000 -0.469318
O2    O     O_3   0.686191 0.669640 0.619639 -0.651445
O3    O     O_3   0.070315 0.740404 0.352432 -0.599959
O4    O     O_2   0.292960 0.538340 0.639040 -0.457651
O5    O     O_3   0.052540 0.537650 0.567960 -0.492870
O6    O     O_3   0.532200 0.411510 0.604930 -0.485661
O7    O     O_3   0.141779 0.651639 0.644225 -0.639313
O8    O     O_3   0.629030 0.416090 0.471500 -0.478090
O9    O     O_3   0.120120 0.375640 0.576470 -0.489316
O10   O     O_2   0.234468 0.251117 0.542929 -0.487223
O11   O     O_3   0.150515 0.268040 0.653168 -0.600989
O12   O     O_3   0.137170 0.462400 0.432040 -0.485359
O13   O     O_3   0.560670 0.583970 0.528500 -0.469208
O14   O     O_2   0.373560 0.329680 0.473470 -0.451581
O15   O     O_3   0.569491 0.292837 0.383437 -0.655630
O16   O     O_2   0.378526 0.448184 0.704126 -0.489074
O17   O     O_3   0.564108 0.346591 0.711769 -0.597375
O18   O     O_2   0.092127 0.614363 0.851208 -0.597912
O19   O     O_2   0.844642 0.395547 0.857106 -0.598499
O20   O     O_2   0.089445 0.396644 0.145994 -0.618389
O21   O     O_2   0.300152 0.622412 0.145639 -0.569943
O22   O     O_3   0.657500 0.588540 0.395070 -0.483982
O23   O     O_2   0.786322 0.541819 0.292214 -0.501554
O24   O     O_3   0.045714 0.348956 0.357225 -0.625957
O25   O     O_3   0.687921 0.669343 0.297420 -0.600226
O26   O     O_2   0.816140 0.670340 0.526560 -0.455981
O27   O     O_3   0.069580 0.624410 0.423530 -0.500375
O28   O     O_2   0.957891 0.749839 0.458825 -0.494997
P1    P     P_3+3 0.067040 0.441110 0.370020 0.996015
P2    P     P_3+3 0.640420 0.660110 0.543790 0.971447
P3    P     P_3+3 0.098169 0.716919 0.423681 0.931150
P4    P     P_3+3 0.122660 0.558950 0.629980 1.016786
P5    P     P_3+3 0.101000 0.284296 0.581591 0.937756
P6    P     P_3+3 0.645990 0.583983 0.318224 0.951600
P7    P     P_3+3 0.557351 0.327032 0.457480 0.965721
P8    P     P_3+3 0.546330 0.426847 0.681788 0.991499
O29   O     O_3   0.571007 0.657727 0.712142 -0.657442
C61   C     C_3   0.733297 0.671709 0.733534 0.246126
H55   H     H_    0.735984 0.659989 0.780179 0.061568
H56   H     H_    0.816162 0.636815 0.708367 0.049910
H57   H     H_    0.779990 0.727571 0.732158 0.019820
O30   O     O_3   0.356254 0.297543 0.320899 -0.642828
C62   C     C_3   0.306344 0.318344 0.266312 0.186132
H58   H     H_    0.366152 0.287622 0.229648 0.049709
H59   H     H_    0.332197 0.375723 0.262894 -0.021599
H60   H     H_    0.173236 0.305623 0.260702 0.117904
O31   O     O_3   0.336186 0.684227 0.050762 -0.599691
C63   C     C_3   0.501766 0.674455 0.038756 0.244306
H61   H     H_    0.539149 0.624332 0.054524 0.021846
H62   H     H_    0.578374 0.718832 0.062579 0.079489
H63   H     H_    0.526754 0.675236 0.990915 0.001212
H64   H     H_    0.706988 0.813129 0.535471 0.110884
O32   O     O_3   0.632771 0.914995 0.602796 -0.659399
C64   C     C_3   0.779046 0.932448 0.636299 0.134999
H65   H     H_    0.761268 0.976641 0.671168 0.055768
H66   H     H_    0.886544 0.945139 0.608119 0.021098
H67   H     H_    0.808805 0.886235 0.659203 0.055137
H68   H     H_    0.266715 0.862049 0.449843 0.080915

loop_
_geom_bond_atom_site_label_1
_geom_bond_atom_site_label_2
_ccdc_geom_bond_type
C51   H48   S    
Ba2   P4    S    
C53   C54   A    
C38   C39   A    
O31   C63   S    
C4    H20   S    
C53   C57   A    
C39   C40   A    
Ba1   O27   S    
C17   C18   A    
C61   H57   S    
C30   N1    S    
O26   P2    D    
C7    H29   S    
C2    O25   S    
C62   H58   S    
C5    C6    S    
C29   C30   S    
C51   C52   A    
C54   C55   A    
C3    O15   S    
C2    H1    S    
O17   P8    S    
O15   P7    S    
O4    P4    D    
C45   H3    S    
C26   C27   S    
C33   C35   A    
C22   C24   A    
O11   P5    S    
O6    P8    S    
C3    C4    S    
C41   C50   S    
C28   P4    S    
C46   H45   S    
C56   C58   S    
C13   C14   A    
C44   C50   A    
C58   H7    S    
C47   C55   S    
C21   H34   S    
C34   C45   S    
C53   P7    S    
C31   H36   S    
Ba1   O1    S    
C40   H64   S    
C23   H50   S    
O9    P5    S    
C4    H18   S    
C26   H39   S    
C34   O7    S    
C14   C15   A    
C44   H46   S    
C10   C15   A    
C23   H22   S    
Ba2   O14   S    
C21   C22   A    
C3    H17   S    
C7    C8    S    
O22   P6    S    
C45   H4    S    
C64   H67   S    
C24   O20   D    
Ba2   O9    S    
O5    P4    S    
C8    H30   S    
C4    H19   S    
C59   O2    S    
C63   H62   S    
C60   H14   S    
C59   O29   S    
C62   H59   S    
C64   H66   S    
Ba2   O13   S    
C52   C57   A    
Ba2   O4    S    
C38   C43   A    
C44   C46   A    
C49   C50   A    
C24   N2    Am   
C26   C30   D    
Ba1   O8    S    
Ba1   O12   S    
C45   H2    S    
C32   P6    S    
C16   C17   A    
C8    H31   S    
C48   C49   A    
Ba2   O5    S    
C48   H47   S    
C15   C19   A    
C35   H40   S    
C13   N1    Am   
C6    H26   S    
C36   N2    S    
C61   H56   S    
C41   C42   A    
Ba1   O5    S    
C35   C36   A    
O28   P3    D    
C56   O24   S    
O10   P5    D    
C12   H42   S    
C38   H51   S    
C58   H8    S    
C28   C29   D    
C3    O30   S    
C27   C37   S    
C31   C32   A    
O13   P2    S    
C33   P1    S    
C29   H38   S    
C10   C11   A    
O32   C64   S    
C54   H44   S    
Ba1   O22   S    
C7    O17   S    
C59   H10   S    
C56   H6    S    
O25   P6    S    
O14   P7    D    
O2    P2    S    
C1    H21   S    
C63   H61   S    
C11   O18   D    
C60   H13   S    
Ba1   P1    S    
C40   C41   A    
C1    C2    S    
C34   H54   S    
Ba2   O8    S    
O29   C61   S    
C62   H60   S    
C42   C43   A    
C25   N2    Am   
C37   H43   S    
C61   H55   S    
C14   C20   A    
C20   H35   S    
O12   P1    S    
O24   P1    S    
C9    C32   A    
C42   H68   S    
Ba1   O13   S    
C51   C55   A    
C7    H28   S    
C11   N1    Am   
C52   P5    S    
C18   C25   A    
Ba2   O6    S    
C31   C36   A    
C58   H9    S    
C6    H25   S    
O30   C62   S    
C49   O32   S    
C2    H15   S    
Ba1   O26   S    
C23   H52   S    
C1    H16   S    
C5    H23   S    
C39   P2    S    
C8    H33   S    
C46   C47   A    
Ba1   Ba2   S    
C9    C33   A    
Ba2   O12   S    
O3    P3    S    
C28   C37   D    
C43   P3    S    
C12   C23   S    
C59   C60   S    
C1    H11   S    
C25   O21   D    
C5    O11   S    
O7    P4    S    
C64   H65   S    
C5    H24   S    
O8    P7    S    
C56   H5    S    
C18   C19   A    
C63   H63   S    
C47   C48   A    
C16   H37   S    
C19   C22   A    
C10   C16   A    
C57   H49   S    
C12   O3    S    
C20   C21   A    
C60   H12   S    
Ba1   P2    S    
C9    H41   S    
C6    H27   S    
C17   O31   S    
O16   P8    D    
C34   H53   S    
O1    P1    D    
C12   H32   S    
O27   P3    S    
O23   P6    D    
C27   P8    S    
C13   O19   D    
