data_mof_unit_11458.cif
_audit_creation_date              2012-12-10T18:09:45-0500
_audit_creation_method            fapswitch 2.2
_symmetry_space_group_name_H-M    P1
_symmetry_Int_Tables_number       1
_space_group_crystal_system       triclinic
_cell_length_a                    10.634323
_cell_length_b                    12.606759
_cell_length_c                    13.102531
_cell_angle_alpha                 82.348408
_cell_angle_beta                  90.443034
_cell_angle_gamma                 102.388861
_cell_volume                      1700.00830968

loop_
_atom_site_label
_atom_site_type_symbol
_atom_type_description
_atom_site_fract_x
_atom_site_fract_y
_atom_site_fract_z
_atom_type_partial_charge
C1    C     C_R   0.479891 0.438807 0.691159 0.859474
C2    C     C_3   0.121170 0.498217 0.500553 0.192065
C3    C     C_3   0.095072 0.591009 0.418015 -0.471585
C4    C     C_3   0.077762 0.518766 0.608519 -0.071949
C5    C     C_R   0.401396 0.700046 0.065736 -0.193498
C6    C     C_R   0.499118 0.596542 0.200040 -0.043671
C7    C     C_R   0.499292 0.300655 0.838558 -0.204355
C8    C     C_R   0.510039 0.272179 0.943690 -0.150931
C9    C     C_R   0.494648 0.345205 0.010940 -0.187567
C10   C     C_R   0.461981 0.446593 0.973672 0.080321
C11   C     C_R   0.430755 0.466370 0.869564 0.068841
C12   C     C_R   0.741918 0.500305 0.499851 0.837245
C13   C     C_R   0.460203 0.529167 0.036173 0.036670
C14   C     C_R   0.405409 0.620512 0.000422 0.150043
C15   C     C_R   0.355197 0.629742 0.900936 0.038796
C16   C     C_R   0.369425 0.553325 0.836247 -0.262938
C17   C     C_R   0.514922 0.524125 0.132958 -0.253112
C18   C     C_R   0.445670 0.686781 0.166020 -0.228427
C19   C     C_R   0.463820 0.399275 0.800851 -0.104425
C20   C     C_R   0.319760 0.087862 0.347361 -0.314381
C21   C     C_R   0.655785 0.800698 0.628322 0.628026
C22   C     C_R   0.692111 0.908467 0.650860 -0.360794
C23   C     C_R   0.512485 0.561030 0.308688 0.846426
C24   C     C_R   0.631986 0.988346 0.602941 -0.266818
C25   C     C_R   0.537135 0.963066 0.529025 0.025174
C26   C     C_R   0.507102 0.854427 0.504616 0.147327
C27   C     C_R   0.473383 0.041850 0.476896 0.008165
C28   C     C_R   0.382817 0.011163 0.400092 0.198433
C29   C     C_R   0.356725 0.904522 0.376193 -0.300675
C30   C     C_R   0.418351 0.827583 0.427605 -0.202205
C31   C     C_R   0.495711 0.150691 0.497652 -0.060001
C32   C     C_R   0.346895 0.194187 0.371068 0.004295
C33   C     C_R   0.258120 0.499381 0.499854 0.842694
C34   C     C_3   0.899701 0.386497 0.477397 -0.393756
C35   C     C_3   0.042519 0.387347 0.472968 -0.394834
C36   C     C_3   0.950438 0.590227 0.416320 -0.405459
C37   C     C_3   0.933074 0.520986 0.607155 -0.436715
C38   C     C_3   0.878558 0.499724 0.500139 0.158187
H1    H     H_    0.856945 0.367051 0.402417 0.183050
H2    H     H_    0.132348 0.600842 0.623878 0.152569
H3    H     H_    0.935694 0.672085 0.429853 0.189987
H4    H     H_    0.148888 0.672357 0.435307 0.184210
H5    H     H_    0.432490 0.743698 0.217899 0.149811
H6    H     H_    0.359970 0.770326 0.041156 0.157303
H7    H     H_    0.566726 0.461351 0.160069 0.145508
H8    H     H_    0.522665 0.247269 0.786635 0.151321
H9    H     H_    0.505591 0.319097 0.091735 0.133850
H10   H     H_    0.535869 0.195410 0.972870 0.141689
H11   H     H_    0.851993 0.320371 0.538573 0.171319
H12   H     H_    0.330800 0.561835 0.759759 0.178612
H13   H     H_    0.299467 0.254891 0.330960 0.133030
H14   H     H_    0.288561 0.880396 0.317145 0.146702
H15   H     H_    0.250652 0.065870 0.288396 0.144050
H16   H     H_    0.561262 0.181538 0.555115 0.121993
H17   H     H_    0.664347 0.069446 0.623757 0.152231
H18   H     H_    0.768734 0.931883 0.703494 0.151888
H19   H     H_    0.395758 0.747853 0.404493 0.207205
H20   H     H_    0.062482 0.316761 0.526255 0.184759
H21   H     H_    0.069735 0.375782 0.393883 0.171737
H22   H     H_    0.912207 0.575054 0.339021 0.160955
H23   H     H_    0.128381 0.579978 0.340517 0.165843
H24   H     H_    0.921332 0.602717 0.623612 0.205902
H25   H     H_    0.877873 0.458970 0.668234 0.154190
N1    N     N_R   0.433240 0.222190 0.444680 -0.101856
N2    N     N_R   0.566070 0.776970 0.554790 -0.164823
O1    O     O_R   0.468120 0.366740 0.627160 -0.614381
O2    O     O_R   0.510770 0.544830 0.662520 -0.579860
O3    O     O_R   0.663880 0.410950 0.482330 -0.636530
O4    O     O_R   0.706530 0.589040 0.517700 -0.565465
O5    O     O_R   0.489230 0.455170 0.337480 -0.615312
O6    O     O_R   0.531880 0.633260 0.372840 -0.636094
O7    O     O_R   0.293470 0.410960 0.482300 -0.622284
O8    O     O_R   0.336120 0.589050 0.517670 -0.660241
Zn1   Zn    Zn3+2 0.471520 0.381090 0.476390 0.929189
Zn2   Zn    Zn3+2 0.528480 0.618910 0.523610 0.957862
N3    N     N_3   0.293661 0.718357 0.864715 -0.471807
H26   H     H_    0.273487 0.719194 0.786398 0.183511
H27   H     H_    0.204937 0.703229 0.903762 0.177611
O9    O     O_3   0.719673 0.720552 0.670394 -0.590942
C39   C     C_3   0.715443 0.709372 0.779320 0.100557
H28   H     H_    0.614970 0.698138 0.808860 0.160798
H29   H     H_    0.776848 0.781532 0.808458 0.122648
C40   C     C_3   0.767709 0.609714 0.822939 -0.826226
H30   H     H_    0.872283 0.624251 0.804486 0.231730
H31   H     H_    0.753485 0.594477 0.907969 0.212817
H32   H     H_    0.717201 0.536030 0.789834 0.259311
N4    N     N_3   0.106025 0.436876 0.691121 -0.486553
H33   H     H_    0.089793 0.462159 0.761828 0.183950
H34   H     H_    0.042278 0.361555 0.688985 0.198591

loop_
_geom_bond_atom_site_label_1
_geom_bond_atom_site_label_2
_ccdc_geom_bond_type
C2    C35   S    
N4    H33   S    
C3    H4    S    
C12   O4    A    
C37   H24   S    
C7    C8    A    
C4    N4    S    
C24   H17   S    
C12   O3    A    
C11   C19   A    
C29   C30   A    
C35   H20   S    
C28   C29   A    
C16   H12   S    
O3    Zn1   S    
C15   C16   A    
O1    Zn1   S    
C30   H19   S    
C35   H21   S    
C34   C35   S    
C33   O7    A    
C4    H2    S    
C8    C9    A    
O5    Zn1   S    
C9    C10   A    
C15   N3    S    
C13   C14   A    
O8    Zn2   S    
C23   O5    A    
C36   H3    S    
C39   C40   S    
C37   H25   S    
C3    H23   S    
C6    C18   A    
C1    C19   S    
C27   C31   A    
C34   H1    S    
C7    H8    S    
C23   O6    A    
N3    H26   S    
C32   N1    A    
O7    Zn1   S    
C39   H28   S    
C22   H18   S    
C5    C18   A    
C20   C28   A    
C25   C26   A    
C17   H7    S    
C2    C4    S    
C8    H10   S    
C32   H13   S    
C37   C38   S    
C11   C16   A    
C40   H30   S    
C21   O9    S    
C1    O1    A    
C24   C25   A    
C5    C14   A    
C2    C33   S    
C39   H29   S    
C40   H31   S    
C5    H6    S    
C26   C30   A    
C7    C19   A    
N4    H34   S    
C22   C24   A    
O2    Zn2   S    
C20   C32   A    
C33   O8    A    
C6    C17   A    
C34   H11   S    
C21   N2    A    
C34   C38   S    
C26   N2    A    
C31   N1    A    
N3    H27   S    
C20   H15   S    
C36   H22   S    
C10   C13   A    
C9    H9    S    
C25   C27   A    
N2    Zn2   S    
C13   C17   A    
C36   C38   S    
C2    C3    S    
C18   H5    S    
O6    Zn2   S    
C3    C36   S    
C6    C23   S    
C1    O2    A    
O4    Zn2   S    
C31   H16   S    
C12   C38   S    
C10   C11   A    
O9    C39   S    
C40   H32   S    
C4    C37   S    
C27   C28   A    
N1    Zn1   S    
C14   C15   A    
C21   C22   A    
C29   H14   S    
