data_mof_unit_26792.cif
_audit_creation_date              2012-12-10T20:07:50-0500
_audit_creation_method            fapswitch 2.2
_symmetry_space_group_name_H-M    P1
_symmetry_Int_Tables_number       1
_space_group_crystal_system       triclinic
_cell_length_a                    12.992341
_cell_length_b                    18.484611
_cell_length_c                    19.158468
_cell_angle_alpha                 89.595719
_cell_angle_beta                  89.917767
_cell_angle_gamma                 70.09334
_cell_volume                      4326.03608486

loop_
_atom_site_label
_atom_site_type_symbol
_atom_type_description
_atom_site_fract_x
_atom_site_fract_y
_atom_site_fract_z
_atom_type_partial_charge
C1    C     C_R   0.499327 0.500050 0.634284 0.966334
C2    C     C_R   0.990538 0.458525 0.502444 -0.063931
C3    C     C_R   0.885218 0.466988 0.527502 -0.022291
C4    C     C_R   0.036707 0.513685 0.524703 0.082785
C5    C     C_R   0.994675 0.559612 0.584547 0.064163
C6    C     C_R   0.900460 0.555748 0.617448 0.439321
C7    C     C_R   0.843931 0.512194 0.586762 -0.278806
C8    C     C_R   0.120793 0.526792 0.487572 -0.150244
C9    C     C_R   0.142325 0.611414 0.577420 -0.159947
C10   C     C_R   0.823540 0.428611 0.493832 -0.136268
C11   C     C_R   0.588699 0.528178 0.261885 -0.262535
C12   C     C_R   0.704855 0.457227 0.499627 0.878977
C13   C     C_R   0.602820 0.528441 0.190477 -0.186721
C14   C     C_R   0.542610 0.497233 0.147420 0.128750
C15   C     C_R   0.469986 0.462836 0.175468 0.481939
C16   C     C_R   0.451661 0.466155 0.247785 0.254323
C17   C     C_R   0.512688 0.498081 0.290631 -0.174849
C18   C     C_R   0.639949 0.460276 0.035478 0.293599
C19   C     C_R   0.634938 0.459166 0.962527 0.301972
C20   C     C_R   0.544731 0.512206 0.927899 -0.239368
C21   C     C_R   0.463505 0.568789 0.965639 0.425635
C22   C     C_R   0.462046 0.563045 0.038009 0.291075
C23   C     C_R   0.500174 0.500210 0.365623 0.951421
C24   C     C_R   0.548548 0.507086 0.072467 -0.195309
C25   C     C_R   0.436349 0.497040 0.825045 0.448190
C26   C     C_R   0.424030 0.495396 0.752626 0.265254
C27   C     C_R   0.509464 0.498489 0.709239 -0.176524
C28   C     C_R   0.604342 0.505932 0.737415 -0.298937
C29   C     C_R   0.615378 0.510271 0.808702 -0.176261
C30   C     C_R   0.531966 0.506079 0.852746 0.030360
C31   C     C_R   0.569920 0.260487 0.455179 -0.123860
C32   C     C_R   0.574924 0.183421 0.451154 0.311445
C33   C     C_R   0.505156 0.157317 0.493085 -0.017562
C34   C     C_R   0.295357 0.542572 0.500816 0.938229
C35   C     C_R   0.433020 0.210014 0.538948 0.334549
C36   C     C_R   0.433221 0.286178 0.542471 0.442062
C37   C     C_R   0.540537 0.028673 0.552103 0.376201
C38   C     C_R   0.531079 0.954969 0.554749 0.322674
C39   C     C_R   0.503740 0.921973 0.494203 -0.275400
C40   C     C_R   0.477668 0.967093 0.432284 0.358700
C41   C     C_R   0.473870 0.044443 0.432640 0.298320
C42   C     C_R   0.508672 0.075159 0.491730 -0.147049
C43   C     C_R   0.409979 0.823776 0.473457 -0.246114
C44   C     C_R   0.410948 0.747474 0.475674 -0.009003
C45   C     C_R   0.047589 0.609061 0.609852 -0.109778
C46   C     C_R   0.589906 0.704828 0.522712 -0.016159
C47   C     C_R   0.592212 0.780187 0.521538 -0.256146
C48   C     C_R   0.501643 0.841083 0.496429 0.212889
C49   C     C_R   0.180321 0.567963 0.517385 -0.088592
C50   C     C_R   0.873122 0.370091 0.446337 -0.333142
C51   C     C_R   0.983537 0.351044 0.430495 0.395869
C52   C     C_R   0.043599 0.394990 0.457533 0.305858
H1    H     H_    0.189512 0.642797 0.601611 0.163118
H2    H     H_    0.658196 0.555066 0.168620 0.156146
H3    H     H_    0.669378 0.509614 0.704167 0.167168
H4    H     H_    0.688284 0.518170 0.829545 0.196127
H5    H     H_    0.623243 0.280428 0.422769 0.191917
H6    H     H_    0.337967 0.868953 0.454293 0.182777
H7    H     H_    0.018654 0.643401 0.656086 0.180540
H8    H     H_    0.340333 0.734634 0.457512 0.140418
H9    H     H_    0.660791 0.658555 0.541077 0.123798
H10   H     H_    0.664987 0.790680 0.539179 0.157967
H11   H     H_    0.145877 0.501891 0.436901 0.204423
H12   H     H_    0.825601 0.339677 0.420940 0.202668
H13   H     H_    0.769979 0.510679 0.611200 0.139398
H14   H     H_    0.636157 0.552518 0.294831 0.179995
N1    N     N_R   0.499990 0.310560 0.500020 -0.164736
N2    N     N_R   0.500140 0.689420 0.500040 -0.084791
O1    O     O_R   0.500000 0.439160 0.601820 -0.557554
O2    O     O_R   0.500040 0.560780 0.601820 -0.634772
O3    O     O_R   0.653580 0.409000 0.499980 -0.627426
O4    O     O_R   0.653630 0.530610 0.499980 -0.627443
O5    O     O_R   0.499960 0.439220 0.398180 -0.578106
O6    O     O_R   0.500000 0.560840 0.398180 -0.618524
O7    O     O_R   0.346370 0.469390 0.500020 -0.509636
O8    O     O_R   0.346420 0.591000 0.500020 -0.645464
Zn1   Zn    Zn3+2 0.499970 0.418800 0.500000 1.049175
Zn2   Zn    Zn3+2 0.500030 0.581200 0.500000 0.939806
O9    O     O_3   0.406979 0.436099 0.130977 -0.608679
C53   C     C_3   0.440395 0.354725 0.134314 0.140585
H15   H     H_    0.368797 0.338270 0.119373 0.197003
H16   H     H_    0.465221 0.330643 0.187625 0.176213
C54   C     C_3   0.533625 0.318029 0.082966 -0.452315
H17   H     H_    0.511111 0.344711 0.030556 0.223406
H18   H     H_    0.608389 0.328278 0.101165 0.264152
C55   C     C_3   0.559033 0.231356 0.077773 -0.896934
H19   H     H_    0.585089 0.203474 0.129415 0.291231
H20   H     H_    0.626431 0.206907 0.039813 0.260638
H21   H     H_    0.485961 0.218560 0.059669 0.264068
Cl1   Cl    Cl    0.344627 0.438298 0.282884 -0.534766
O10   O     O_3   0.727789 0.409420 0.071166 -0.637797
C56   C     C_3   0.817606 0.435943 0.067388 0.109490
H22   H     H_    0.792676 0.498752 0.078540 0.116125
H23   H     H_    0.855489 0.424813 0.014672 0.189839
C57   C     C_3   0.902971 0.392450 0.121459 -0.336361
H24   H     H_    0.865545 0.402131 0.174332 0.244569
H25   H     H_    0.930367 0.329794 0.110355 0.242816
C58   C     C_3   0.002049 0.419046 0.120470 -0.875876
H26   H     H_    0.041014 0.409685 0.068129 0.253138
H27   H     H_    0.062999 0.385683 0.159638 0.298453
H28   H     H_    0.976953 0.481087 0.133596 0.269735
O11   O     O_3   0.720077 0.408526 0.925084 -0.632849
C59   C     C_3   0.703085 0.337330 0.919931 0.115367
H29   H     H_    0.625557 0.344440 0.891629 0.119138
H30   H     H_    0.700749 0.312113 0.972623 0.169911
C60   C     C_3   0.797332 0.281692 0.878727 -0.312216
H31   H     H_    0.802059 0.306803 0.826413 0.235360
H32   H     H_    0.875635 0.272888 0.906684 0.230660
C61   C     C_3   0.781755 0.204110 0.869550 -0.963511
H33   H     H_    0.777343 0.177699 0.921235 0.268930
H34   H     H_    0.852100 0.164789 0.840156 0.269561
H35   H     H_    0.705444 0.211356 0.839866 0.267190
O12   O     O_3   0.379061 0.625281 0.931985 -0.547856
C62   C     C_3   0.418354 0.681252 0.902102 0.094763
H36   H     H_    0.371366 0.702587 0.853315 0.172429
H37   H     H_    0.506430 0.658461 0.886721 0.112487
C63   C     C_3   0.398864 0.748954 0.951969 -0.313278
H38   H     H_    0.310304 0.773343 0.964843 0.261328
H39   H     H_    0.445417 0.728529 0.001069 0.235518
C64   C     C_3   0.435551 0.811849 0.919695 -0.967563
H40   H     H_    0.525079 0.789454 0.909840 0.263864
H41   H     H_    0.417307 0.861021 0.956179 0.280682
H42   H     H_    0.391615 0.832643 0.869833 0.265679
Cl2   Cl    Cl    0.351033 0.626559 0.084865 -0.543147
O13   O     O_3   0.350602 0.497775 0.868282 -0.568777
C65   C     C_3   0.362300 0.421416 0.886848 0.102596
H43   H     H_    0.441375 0.393055 0.914155 0.087474
H44   H     H_    0.357892 0.387669 0.839659 0.180955
C66   C     C_3   0.269906 0.422520 0.936682 -0.260145
H45   H     H_    0.277368 0.452733 0.985402 0.258332
H46   H     H_    0.189683 0.454367 0.912018 0.248097
C67   C     C_3   0.273691 0.341179 0.954925 -0.972624
H47   H     H_    0.261227 0.311231 0.907298 0.278166
H48   H     H_    0.207869 0.343819 0.992840 0.269928
H49   H     H_    0.353718 0.307816 0.978730 0.267304
Cl3   Cl    Cl    0.298393 0.495900 0.717513 -0.546104
O14   O     O_3   0.870459 0.588300 0.682569 -0.632390
C68   C     C_3   0.771192 0.650714 0.677600 0.042672
H50   H     H_    0.702585 0.630696 0.662963 0.143767
H51   H     H_    0.778362 0.693800 0.638581 0.130848
C69   C     C_3   0.745363 0.689128 0.748897 -0.288462
H52   H     H_    0.736361 0.646950 0.788003 0.222183
H53   H     H_    0.814053 0.708140 0.765408 0.232644
C70   C     C_3   0.640170 0.758570 0.746775 -0.975523
H54   H     H_    0.648626 0.801763 0.708773 0.301032
H55   H     H_    0.624061 0.785517 0.799053 0.264112
H56   H     H_    0.569826 0.740708 0.731781 0.263030
Cl4   Cl    Cl    0.672806 0.120681 0.395747 -0.596682
O15   O     O_3   0.368473 0.185397 0.584230 -0.598856
C71   C     C_3   0.267436 0.194073 0.551661 0.166059
H57   H     H_    0.276448 0.179443 0.494985 0.190976
H58   H     H_    0.211697 0.254471 0.557653 0.211410
C72   C     C_3   0.215919 0.140729 0.587557 -0.392853
H59   H     H_    0.270752 0.080106 0.581398 0.217626
H60   H     H_    0.206400 0.153902 0.644220 0.247210
C73   C     C_3   0.104079 0.149939 0.556377 -0.874490
H61   H     H_    0.047537 0.210094 0.562417 0.272277
H62   H     H_    0.068590 0.110812 0.583817 0.255900
H63   H     H_    0.112199 0.135091 0.500074 0.301919
Cl5   Cl    Cl    0.346658 0.349085 0.602779 -0.478048
O16   O     O_3   0.570863 0.058202 0.611626 -0.593371
C74   C     C_3   0.684676 0.043783 0.609218 0.098242
H64   H     H_    0.709227 0.064207 0.559025 0.155868
H65   H     H_    0.729996 0.980989 0.615537 0.158387
C75   C     C_3   0.715671 0.086873 0.668849 -0.313742
H66   H     H_    0.668370 0.149371 0.663820 0.234408
H67   H     H_    0.694351 0.066002 0.719553 0.232015
C76   C     C_3   0.837735 0.075251 0.668086 -0.962778
H68   H     H_    0.886750 0.013235 0.674043 0.266753
H69   H     H_    0.857412 0.107180 0.712025 0.269371
H70   H     H_    0.860324 0.097313 0.618382 0.273724
O17   O     O_3   0.548652 0.915518 0.617688 -0.631753
C77   C     C_3   0.446741 0.921047 0.648250 0.106584
H71   H     H_    0.452515 0.862858 0.667068 0.161843
H72   H     H_    0.375627 0.939708 0.611483 0.117186
C78   C     C_3   0.423627 0.975649 0.710460 -0.313690
H73   H     H_    0.492105 0.955034 0.748531 0.235490
H74   H     H_    0.417552 0.034153 0.692276 0.269309
C79   C     C_3   0.316831 0.980364 0.746591 -0.980846
H75   H     H_    0.246843 0.003341 0.709955 0.267010
H76   H     H_    0.303189 0.019459 0.792031 0.278459
H77   H     H_    0.320571 0.922555 0.765396 0.265085
O18   O     O_3   0.447761 0.938086 0.372123 -0.586656
C80   C     C_3   0.541936 0.887525 0.338655 0.101754
H78   H     H_    0.516620 0.843984 0.310475 0.174437
H79   H     H_    0.608089 0.854798 0.375520 0.120844
C81   C     C_3   0.587191 0.931317 0.285558 -0.299008
H80   H     H_    0.520858 0.964119 0.249200 0.265112
H81   H     H_    0.617724 0.972594 0.313290 0.264483
C82   C     C_3   0.681104 0.876520 0.243598 -0.933276
H82   H     H_    0.749038 0.843862 0.278907 0.269633
H83   H     H_    0.712416 0.909981 0.205934 0.283705
H84   H     H_    0.652395 0.835498 0.214039 0.263893
Cl6   Cl    Cl    0.419979 0.103361 0.359214 -0.488425
Cl7   Cl    Cl    0.186921 0.359289 0.443415 -0.549517
Cl8   Cl    Cl    0.043537 0.272672 0.374582 -0.516365

loop_
_geom_bond_atom_site_label_1
_geom_bond_atom_site_label_2
_ccdc_geom_bond_type
C9    C45   A    
C82   H82   S    
O2    Zn2   S    
C50   H12   S    
C41   C42   A    
O1    Zn1   S    
C57   H24   S    
N1    Zn1   S    
C4    C8    A    
C47   H10   S    
C62   H36   S    
C57   C58   S    
O15   C71   S    
C20   C30   S    
C77   H71   S    
O17   C77   S    
C16   Cl1   S    
C26   C27   A    
C75   H66   S    
C18   C24   A    
C33   C42   S    
C37   O16   S    
C28   C29   A    
C37   C38   A    
O8    Zn2   S    
C13   H2    S    
C3    C7    A    
C51   Cl8   S    
C63   H39   S    
C5    C6    A    
C19   O11   S    
C55   H20   S    
C77   C78   S    
C60   H31   S    
C15   C16   A    
C80   H78   S    
C18   C19   A    
C14   C24   S    
C37   C42   A    
C25   O13   S    
C56   H22   S    
C81   C82   S    
O4    Zn2   S    
C59   H29   S    
C82   H84   S    
C57   H25   S    
C78   C79   S    
C15   O9    S    
C31   C32   A    
C67   H47   S    
C71   C72   S    
C65   H44   S    
C72   H60   S    
C43   C48   A    
C43   H6    S    
C11   H14   S    
C34   O7    A    
C66   C67   S    
C76   H69   S    
C12   O4    A    
C75   H67   S    
C13   C14   A    
C63   C64   S    
C45   H7    S    
C52   Cl7   S    
C23   O5    A    
C70   H56   S    
C28   H3    S    
C64   H41   S    
O16   C74   S    
C74   H65   S    
C76   H70   S    
N2    Zn2   S    
C36   N1    A    
C46   H9    S    
C51   C52   A    
C47   C48   A    
C76   H68   S    
C9    C49   A    
C41   Cl6   S    
C70   H55   S    
C61   H35   S    
C39   C40   A    
C55   H19   S    
C16   C17   A    
C65   C66   S    
C25   C26   A    
C5    C45   A    
C55   H21   S    
C56   C57   S    
C1    O1    A    
C79   H75   S    
C35   C36   A    
C31   N1    A    
C43   C44   A    
O18   C80   S    
C46   N2    A    
C29   C30   A    
C2    C52   A    
C7    H13   S    
C74   C75   S    
C69   H53   S    
C54   H17   S    
C56   H23   S    
C50   C51   A    
C59   H30   S    
C17   C23   S    
C72   C73   S    
C22   Cl2   S    
O7    Zn1   S    
C77   H72   S    
C10   C12   S    
C32   Cl4   S    
C21   O12   S    
C78   H73   S    
C54   H18   S    
C12   O3    A    
C75   C76   S    
C58   H27   S    
O13   C65   S    
C22   C24   A    
C44   N2    A    
C9    H1    S    
C18   O10   S    
C23   O6    A    
C10   C50   A    
O3    Zn1   S    
C64   H40   S    
C53   C54   S    
O12   C62   S    
C69   C70   S    
C25   C30   A    
C46   C47   A    
C73   H61   S    
C34   C49   S    
C82   H83   S    
C71   H57   S    
C73   H63   S    
C53   H15   S    
C68   C69   S    
C11   C17   A    
C79   H77   S    
C62   H37   S    
C64   H42   S    
C38   O17   S    
C6    C7    A    
C68   H51   S    
C29   H4    S    
C74   H64   S    
C58   H28   S    
O14   C68   S    
C19   C20   A    
C63   H38   S    
C1    O2    A    
C80   C81   S    
C70   H54   S    
C32   C33   A    
C40   O18   S    
C6    O14   S    
C61   H34   S    
C2    C3    A    
C66   H45   S    
C81   H80   S    
C3    C10   A    
C69   H52   S    
C11   C13   A    
C31   H5    S    
C38   C39   A    
C60   H32   S    
C44   H8    S    
C65   H43   S    
C2    C4    A    
C73   H62   S    
C67   H49   S    
C33   C35   A    
C53   H16   S    
C80   H79   S    
C59   C60   S    
C71   H58   S    
O11   C59   S    
C81   H81   S    
C62   C63   S    
C26   Cl3   S    
C68   H50   S    
C36   Cl5   S    
C8    H11   S    
O9    C53   S    
C4    C5    A    
C54   C55   S    
C20   C21   A    
C67   H48   S    
C58   H26   S    
O6    Zn2   S    
C61   H33   S    
C27   C28   A    
C1    C27   S    
O5    Zn1   S    
C14   C15   A    
C39   C48   S    
C40   C41   A    
C35   O15   S    
C79   H76   S    
C72   H59   S    
C21   C22   A    
C8    C49   A    
O10   C56   S    
C34   O8    A    
C78   H74   S    
C66   H46   S    
C60   C61   S    
