data_mof_unit_67196.cif
_audit_creation_date              2013-03-05T16:01:22-0500
_audit_creation_method            fapswitch 2.2
_symmetry_space_group_name_H-M    P1
_symmetry_Int_Tables_number       1
_space_group_crystal_system       triclinic
_cell_length_a                    20.194517
_cell_length_b                    19.990642
_cell_length_c                    8.381457
_cell_angle_alpha                 89.99992
_cell_angle_beta                  91.632058
_cell_angle_gamma                 90.166525
_cell_volume                      3382.21868358

loop_
_atom_site_label
_atom_site_type_symbol
_atom_site_description
_atom_site_fract_x
_atom_site_fract_y
_atom_site_fract_z
_atom_type_partial_charge
P1    P     P_3+3 0.136530 0.426510 0.931350 0.475700
P2    P     P_3+3 0.136530 0.573490 0.431350 0.463653
P3    P     P_3+3 0.636530 0.926510 0.931350 0.463352
P4    P     P_3+3 0.636530 0.073490 0.431350 0.462182
O1    O     O_2   0.130070 0.404060 0.104920 -0.389487
O2    O     O_2   0.130070 0.595940 0.604920 -0.381802
O3    O     O_2   0.630070 0.904060 0.104920 -0.382885
O4    O     O_2   0.630070 0.095940 0.604920 -0.376912
O5    O     O_3   0.075780 0.466370 0.861070 -0.409850
O6    O     O_3   0.075780 0.533630 0.361070 -0.404063
O7    O     O_3   0.575780 0.966370 0.861070 -0.407670
O8    O     O_3   0.575780 0.033630 0.361070 -0.406315
O9    O     O_3   0.022320 0.344950 0.359800 -0.404914
O10   O     O_3   0.022320 0.655050 0.859800 -0.405125
O11   O     O_3   0.522320 0.844950 0.359800 -0.403840
O12   O     O_3   0.522320 0.155050 0.859800 -0.396541
O13   O     O_2   0.124897 0.283460 0.240485 -0.354245
O14   O     O_2   0.126820 0.714569 0.744336 -0.365528
O15   O     O_2   0.625183 0.783623 0.241122 -0.347927
O16   O     O_2   0.633399 0.206075 0.749339 -0.366403
O17   O     O_3   0.206544 0.478432 0.939598 -0.529068
O18   O     O_3   0.206190 0.521592 0.438664 -0.548555
O19   O     O_3   0.706655 0.978272 0.939087 -0.554089
O20   O     O_3   0.706232 0.021548 0.439812 -0.547395
O21   O     O_3   0.032793 0.204135 0.351432 -0.439439
O22   O     O_3   0.035224 0.796259 0.846875 -0.475199
O23   O     O_3   0.533657 0.703362 0.350782 -0.447540
O24   O     O_3   0.548395 0.295587 0.833673 -0.488926
H1    H     H_    0.947626 0.256720 0.287023 0.144876
H2    H     H_    0.948040 0.743436 0.800181 0.126746
H3    H     H_    0.448066 0.755334 0.287017 0.144775
H4    H     H_    0.453010 0.259047 0.799493 0.153521
C1    C     C_3   0.921864 0.156276 0.339591 -0.070137
C2    C     C_3   0.925862 0.846389 0.825412 -0.042167
C3    C     C_3   0.423747 0.653672 0.331613 -0.055211
C4    C     C_3   0.453176 0.365671 0.840561 -0.002504
H5    H     H_    0.869148 0.171975 0.333414 0.067646
H6    H     H_    0.874102 0.830271 0.796809 0.071655
H7    H     H_    0.370696 0.668123 0.320486 0.067113
H8    H     H_    0.462567 0.380405 0.716132 0.153599
H9    H     H_    0.932865 0.133820 0.222457 0.186288
H10   H     H_    0.945587 0.869046 0.715782 0.171843
H11   H     H_    0.437367 0.632828 0.214648 0.184188
H12   H     H_    0.478123 0.403068 0.919568 0.212836
P5    P     P_3+3 0.863410 0.426100 0.379280 0.484000
P6    P     P_3+3 0.863410 0.573900 0.879280 0.481536
P7    P     P_3+3 0.363410 0.926100 0.379280 0.482966
P8    P     P_3+3 0.363410 0.073900 0.879280 0.481906
P9    P     P_3+3 0.916366 0.283335 0.928585 0.444255
P10   P     P_3+3 0.916481 0.716761 0.428017 0.438112
P11   P     P_3+3 0.416367 0.783273 0.928127 0.442986
P12   P     P_3+3 0.417122 0.217335 0.428250 0.469447
O25   O     O_2   0.869860 0.403670 0.205810 -0.379462
O26   O     O_2   0.869860 0.596330 0.705810 -0.383203
O27   O     O_2   0.369860 0.903670 0.205810 -0.378198
O28   O     O_2   0.369860 0.096330 0.705810 -0.385130
O29   O     O_3   0.977590 0.344880 0.951200 -0.344104
O30   O     O_3   0.977590 0.655120 0.451200 -0.378954
O31   O     O_3   0.477590 0.844880 0.951200 -0.344088
O32   O     O_3   0.477590 0.155120 0.451200 -0.384445
O33   O     O_2   0.865710 0.294847 0.060094 -0.428794
O34   O     O_2   0.867332 0.708586 0.564695 -0.428600
O35   O     O_2   0.365787 0.794541 0.059992 -0.428487
O36   O     O_2   0.368333 0.209592 0.565908 -0.379166
O37   O     O_3   0.794330 0.478531 0.373948 -0.508981
O38   O     O_3   0.793991 0.521524 0.875265 -0.519896
O39   O     O_3   0.294382 0.978566 0.373519 -0.511452
O40   O     O_3   0.294205 0.021140 0.875284 -0.524115
O41   O     O_3   0.951729 0.206558 0.980106 -0.536465
O42   O     O_3   0.951985 0.795521 0.461673 -0.541384
O43   O     O_3   0.451857 0.706397 0.978845 -0.540716
O44   O     O_3   0.453856 0.295625 0.461435 -0.517770
C5    C     C_3   0.990073 0.183775 0.853917 0.043120
C6    C     C_3   0.019633 0.792910 0.427252 0.072526
C7    C     C_3   0.490990 0.684440 0.853228 0.070852
C8    C     C_3   0.521097 0.292198 0.422933 0.060309
H13   H     H_    0.031618 0.219047 0.831903 0.129653
H14   H     H_    0.045851 0.762246 0.519407 0.178166
H15   H     H_    0.534377 0.718286 0.839338 0.130121
H16   H     H_    0.547998 0.262782 0.516413 0.179772
H17   H     H_    0.958975 0.178112 0.743488 0.085741
H18   H     H_    0.027549 0.770440 0.307725 0.077350
H19   H     H_    0.461638 0.682790 0.739712 0.085781
H20   H     H_    0.527872 0.267540 0.305358 0.065920
C9    C     C_3   0.017296 0.114729 0.899634 0.360709
C10   C     C_3   0.047686 0.864382 0.430601 0.348731
C11   C     C_3   0.514302 0.613070 0.890860 0.343129
C12   C     C_3   0.549433 0.363590 0.416086 0.377017
H21   H     H_    0.974045 0.082351 0.926017 0.116706
H22   H     H_    0.028971 0.890642 0.537098 0.129051
H23   H     H_    0.469428 0.581959 0.911625 0.090069
H24   H     H_    0.528421 0.394020 0.512742 0.123013
C13   C     C_3   0.809934 0.459254 0.811228 0.240707
C14   C     C_3   0.811678 0.541671 0.316157 0.259560
C15   C     C_3   0.310258 0.959193 0.809430 0.253187
C16   C     C_3   0.311814 0.041769 0.316133 0.259543
H25   H     H_    0.819628 0.465217 0.682946 0.099409
H26   H     H_    0.822318 0.537561 0.187972 0.096040
H27   H     H_    0.317351 0.965485 0.680139 0.099677
H28   H     H_    0.321724 0.037901 0.187542 0.095546
H29   H     H_    0.853757 0.436723 0.873650 0.089370
H30   H     H_    0.855249 0.563123 0.382243 0.090712
H31   H     H_    0.355623 0.937498 0.866749 0.086704
H32   H     H_    0.355806 0.062922 0.381108 0.088255
C17   C     C_3   0.751256 0.411816 0.830873 -0.072629
C18   C     C_3   0.753561 0.589142 0.337720 -0.108466
C19   C     C_3   0.253276 0.910249 0.835236 -0.093217
C20   C     C_3   0.254078 0.089415 0.340230 -0.115677
H33   H     H_    0.756967 0.367352 0.753665 0.090987
H34   H     H_    0.761228 0.635983 0.270337 0.061568
H35   H     H_    0.258492 0.866131 0.756745 0.093298
H36   H     H_    0.261416 0.136360 0.273015 0.059518
H37   H     H_    0.750687 0.394658 0.956814 0.110944
H38   H     H_    0.750538 0.601945 0.466217 0.122051
H39   H     H_    0.255636 0.892767 0.960933 0.110778
H40   H     H_    0.251942 0.101993 0.468980 0.121194
Ba1   Ba    Ba6+2 0.999980 0.452130 0.155200 1.574046
Ba2   Ba    Ba6+2 0.999980 0.547870 0.655200 1.562086
Ba3   Ba    Ba6+2 0.499980 0.952130 0.155200 1.572161
Ba4   Ba    Ba6+2 0.499980 0.047870 0.655200 1.568451
C21   C     C_3   0.189178 0.542192 0.992513 0.440677
C22   C     C_3   0.188540 0.457618 0.490007 0.370517
C23   C     C_3   0.689712 0.041937 0.993212 0.434959
C24   C     C_3   0.688638 0.957841 0.493153 0.424256
H41   H     H_    0.153814 0.566391 0.906747 0.115924
H42   H     H_    0.150380 0.434762 0.408806 0.124589
H43   H     H_    0.654066 0.066399 0.908572 0.120958
H44   H     H_    0.653188 0.933459 0.407551 0.117847
C25   C     C_3   0.251719 0.584821 0.005036 -0.936551
C26   C     C_3   0.250011 0.413895 0.489314 -0.817072
C27   C     C_3   0.752478 0.084272 0.004652 -0.939924
C28   C     C_3   0.751092 0.915444 0.505938 -0.920883
H45   H     H_    0.286482 0.563757 0.096915 0.284045
H46   H     H_    0.288734 0.435132 0.571455 0.305796
H47   H     H_    0.787718 0.062617 0.094652 0.284935
H48   H     H_    0.786072 0.936980 0.596977 0.286651
H49   H     H_    0.239478 0.636802 0.038704 0.201424
H50   H     H_    0.238079 0.362421 0.528188 0.208474
H51   H     H_    0.740739 0.136117 0.040324 0.204706
H52   H     H_    0.738852 0.863561 0.540913 0.196027
H53   H     H_    0.276349 0.585847 0.888239 0.272261
H54   H     H_    0.269554 0.411726 0.366902 0.251201
H55   H     H_    0.776354 0.085776 0.886939 0.271767
H56   H     H_    0.775494 0.914036 0.388878 0.276054
O45   O     O_3   0.924190 0.533610 0.949240 -0.396327
O46   O     O_3   0.924190 0.466390 0.449240 -0.401390
O47   O     O_3   0.424190 0.033610 0.949240 -0.396424
O48   O     O_3   0.424190 0.966390 0.449240 -0.401826
P13   P     P_3+3 0.078322 0.721048 0.883128 0.486225
P14   P     P_3+3 0.077798 0.278754 0.382579 0.514149
P15   P     P_3+3 0.582769 0.217496 0.881208 0.483804
P16   P     P_3+3 0.577742 0.778599 0.382563 0.512409
C29   C     C_3   0.965137 0.217880 0.372588 0.308510
C30   C     C_3   0.967408 0.785339 0.874822 0.261740
C31   C     C_3   0.465658 0.715814 0.370696 0.296261
C32   C     C_3   0.481289 0.295916 0.873877 0.229912
H57   H     H_    0.957246 0.235365 0.496120 -0.008838
H58   H     H_    0.960106 0.773480 0.002723 0.069680
H59   H     H_    0.456711 0.732123 0.494468 -0.000132
H60   H     H_    0.475610 0.283998 0.002571 0.060465
C33   C     C_R   0.238448 0.303538 0.007235 0.019361
C34   C     C_R   0.241776 0.693592 0.501123 -0.064137
C35   C     C_R   0.740033 0.804681 0.004199 -0.073466
C36   C     C_R   0.742186 0.193414 0.502381 -0.053761
C37   C     C_R   0.149513 0.346489 0.821043 0.265493
C38   C     C_R   0.150236 0.652802 0.319690 0.257501
C39   C     C_R   0.649825 0.846682 0.820399 0.273717
C40   C     C_R   0.650743 0.152561 0.320772 0.260004
C41   C     C_R   0.111529 0.336718 0.680050 -0.522734
C42   C     C_R   0.111417 0.663127 0.180375 -0.533698
C43   C     C_R   0.611404 0.836559 0.680173 -0.516440
C44   C     C_R   0.612425 0.162457 0.181081 -0.539629
C45   C     C_R   0.124092 0.283656 0.576652 0.205111
C46   C     C_R   0.123905 0.716458 0.077563 0.246923
C47   C     C_R   0.624058 0.783581 0.576539 0.208401
C48   C     C_R   0.626025 0.214816 0.077194 0.248503
C49   C     C_R   0.172703 0.236698 0.619123 -0.196376
C50   C     C_R   0.172956 0.763262 0.119290 -0.222495
C51   C     C_R   0.672866 0.736784 0.618558 -0.198940
C52   C     C_R   0.674976 0.261687 0.118307 -0.209620
C53   C     C_R   0.209035 0.242239 0.764878 0.083798
C54   C     C_R   0.211303 0.756001 0.261385 0.033142
C55   C     C_R   0.709750 0.742744 0.763373 0.058187
C56   C     C_R   0.712329 0.255284 0.261734 0.024777
C57   C     C_R   0.198816 0.298122 0.866001 0.009988
C58   C     C_R   0.201165 0.699928 0.361878 -0.027802
C59   C     C_R   0.699863 0.798861 0.863981 -0.021389
C60   C     C_R   0.701772 0.199573 0.362971 -0.030568
H61   H     H_    0.074094 0.372994 0.645754 0.173781
H62   H     H_    0.073355 0.627164 0.146904 0.176713
H63   H     H_    0.573603 0.872549 0.646520 0.171873
H64   H     H_    0.574370 0.126511 0.147356 0.176547
C61   C     C_R   0.797788 0.699898 0.945704 -0.046966
C62   C     C_R   0.799870 0.298561 0.444195 -0.036721
C63   C     C_R   0.297177 0.199482 0.947262 -0.015623
C64   C     C_R   0.299644 0.798609 0.443261 -0.035575
C65   C     C_R   0.787324 0.755555 0.046982 0.042771
C66   C     C_R   0.789479 0.242696 0.545182 0.067629
C67   C     C_R   0.286534 0.255021 0.048860 0.067574
C68   C     C_R   0.289252 0.742704 0.544003 0.071002
C69   C     C_R   0.848620 0.652796 0.988769 0.246131
C70   C     C_R   0.849365 0.346911 0.488949 0.232345
C71   C     C_R   0.348552 0.152824 0.989271 0.247143
C72   C     C_R   0.349323 0.846789 0.488178 0.233362
C73   C     C_R   0.886285 0.662202 0.129208 -0.569812
C74   C     C_R   0.886432 0.338144 0.630377 -0.539831
C75   C     C_R   0.386701 0.162687 0.128965 -0.551140
C76   C     C_R   0.386593 0.837785 0.629240 -0.540928
C77   C     C_R   0.872043 0.713684 0.234042 0.265889
C78   C     C_R   0.873178 0.285501 0.733204 0.223090
C79   C     C_R   0.372623 0.214294 0.233856 0.249410
C80   C     C_R   0.373073 0.785374 0.732451 0.218255
C81   C     C_R   0.823456 0.760820 0.192704 -0.203995
C82   C     C_R   0.825644 0.237346 0.690416 -0.257549
C83   C     C_R   0.323809 0.261249 0.192796 -0.245566
C84   C     C_R   0.325318 0.737379 0.689594 -0.243149
C85   C     C_R   0.757274 0.693721 0.806189 -0.023107
C86   C     C_R   0.760434 0.303872 0.303275 0.005227
C87   C     C_R   0.256577 0.193215 0.807833 -0.001229
C88   C     C_R   0.259804 0.804314 0.302882 0.007432
H65   H     H_    0.182102 0.195905 0.538025 0.168817
H66   H     H_    0.181588 0.804815 0.039748 0.176350
H67   H     H_    0.682073 0.695865 0.537690 0.170100
H68   H     H_    0.684309 0.302539 0.037233 0.175493
H69   H     H_    0.813697 0.801275 0.274681 0.166072
H70   H     H_    0.816491 0.196296 0.771297 0.162053
H71   H     H_    0.314407 0.301970 0.274209 0.166378
H72   H     H_    0.315915 0.696467 0.770686 0.161070
H73   H     H_    0.924388 0.626483 0.162693 0.182002
H74   H     H_    0.923552 0.374842 0.665575 0.178339
H75   H     H_    0.425004 0.127124 0.162034 0.178118
H76   H     H_    0.423938 0.874293 0.664173 0.178212
H77   H     H_    0.762097 0.650923 0.729080 0.165362
H78   H     H_    0.765347 0.346456 0.225574 0.171253
H79   H     H_    0.261722 0.150616 0.730279 0.153796
H80   H     H_    0.264649 0.847109 0.225882 0.169947
N1    N     N_R   0.688756 0.444798 0.789075 0.327371
O49   O     O_R   0.681423 0.476235 0.654000 -0.241231
O50   O     O_R   0.639712 0.442298 0.886105 -0.230686
N2    N     N_R   0.691725 0.558337 0.281953 0.330768
O51   O     O_R   0.685843 0.535325 0.137025 -0.249742
O52   O     O_R   0.642481 0.552953 0.377852 -0.179682
N3    N     N_R   0.189288 0.941562 0.801008 0.324723
O53   O     O_R   0.178219 0.972250 0.666173 -0.236323
O54   O     O_R   0.142277 0.937179 0.903385 -0.219454
N4    N     N_R   0.191890 0.058745 0.286678 0.329234
O55   O     O_R   0.184508 0.037392 0.140644 -0.251169
O56   O     O_R   0.144502 0.050288 0.386644 -0.176804
H81   H     H_    0.167126 0.538769 0.111533 0.086834
H82   H     H_    0.170135 0.460317 0.612827 0.095810
H83   H     H_    0.668218 0.038293 0.112805 0.090334
H84   H     H_    0.666620 0.961393 0.612141 0.089840
N5    N     N_R   0.931307 0.106462 0.464519 0.260715
O57   O     O_R   0.982810 0.067603 0.462043 -0.208726
O58   O     O_R   0.883637 0.092973 0.560968 -0.416778
N6    N     N_R   0.924671 0.896182 0.952098 0.296516
O59   O     O_R   0.948913 0.955529 0.928649 -0.276000
O60   O     O_R   0.890971 0.884897 0.079234 -0.381366
N7    N     N_R   0.431700 0.602590 0.454545 0.270708
O61   O     O_R   0.466234 0.549367 0.424849 -0.218133
O62   O     O_R   0.391554 0.601745 0.573664 -0.437286
N8    N     N_R   0.382070 0.366938 0.863334 0.227056
O63   O     O_R   0.357504 0.405379 0.971868 -0.358990
O64   O     O_R   0.342608 0.337690 0.759611 -0.416164
N9    N     N_R   0.053586 0.084298 0.770320 0.262250
O65   O     O_R   0.104429 0.114564 0.711622 -0.356586
O66   O     O_R   0.042454 0.022090 0.732992 -0.226731
N10   N     N_R   0.025705 0.900050 0.286400 0.279790
O67   O     O_R   0.046713 0.882036 0.147532 -0.304149
O68   O     O_R   0.984643 0.949711 0.295973 -0.227527
N11   N     N_R   0.549793 0.584080 0.758308 0.258922
O69   O     O_R   0.603066 0.612702 0.706925 -0.347779
O70   O     O_R   0.534273 0.524231 0.708304 -0.281393
N12   N     N_R   0.530965 0.393997 0.262616 0.257732
O71   O     O_R   0.562707 0.378015 0.135360 -0.367519
O72   O     O_R   0.476660 0.428596 0.248095 -0.300464
H85   H     H_    0.233509 0.345913 0.085637 0.153827
H86   H     H_    0.236773 0.651008 0.579078 0.170025
H87   H     H_    0.735209 0.847193 0.082348 0.169746
H88   H     H_    0.737234 0.150789 0.580265 0.173430
N13   N     N_R   0.060166 0.119233 0.042030 0.275710
O73   O     O_R   0.048144 0.081619 0.164259 -0.228954
O74   O     O_R   0.112387 0.157568 0.044656 -0.340231
N14   N     N_R   0.120039 0.864024 0.444650 0.219460
O75   O     O_R   0.149033 0.833934 0.564990 -0.402330
O76   O     O_R   0.154995 0.903205 0.355772 -0.287763
N15   N     N_R   0.556632 0.612175 0.034748 0.272116
O77   O     O_R   0.544851 0.568996 0.146662 -0.243694
O78   O     O_R   0.608748 0.650587 0.047087 -0.322940
N16   N     N_R   0.621487 0.363782 0.441098 0.217324
O79   O     O_R   0.647516 0.334146 0.565875 -0.404086
O80   O     O_R   0.657985 0.405049 0.361526 -0.280178

loop_
_geom_bond_atom_site_label_1
_geom_bond_atom_site_label_2
_geom_bond_distance
_ccdc_geom_bond_type
C28   H56   1.110807 S    
C79   C83   1.399034 A    
C66   C82   1.405852 A    
P1    O17   1.751321 S    
O23   P16   1.761928 S    
C40   C60   1.429639 A    
C63   C71   1.433568 A    
C11   H23   1.115359 S    
C74   H74   1.082302 S    
C23   H83   1.105921 S    
P3    O19   1.751184 S    
O13   P14   1.547870 D    
C2    H10   1.108112 S    
P3    O7    1.565731 S    
C10   N10   1.462007 S    
O44   C8    1.406495 S    
C7    H19   1.106984 S    
C8    H20   1.113953 S    
C37   C41   1.403746 A    
C63   C87   1.413658 A    
P2    Ba2   3.416580 S    
P3    C39   1.870889 S    
P8    Ba4   3.421676 S    
O27   Ba3   2.841118 S    
O24   P15   1.751609 S    
C44   H64   1.082242 S    
C61   C85   1.413112 A    
C44   C48   1.393244 A    
P8    C71   1.856803 S    
C24   C28   1.522826 S    
N12   O72   1.301028 A    
C84   H72   1.083200 S    
C35   H87   1.079288 S    
C18   H38   1.110397 S    
C67   C83   1.408985 A    
C47   C51   1.398682 A    
C35   C59   1.413479 A    
N14   O75   1.300135 A    
C11   N15   1.458371 S    
O9    P14   1.743321 S    
N16   O79   1.300576 A    
P3    O3    1.531421 D    
O23   C31   1.410874 S    
O12   Ba4   2.772233 S    
C29   H57   1.108739 S    
C42   C46   1.397709 A    
N5    O57   1.300609 A    
P4    O20   1.751376 S    
C1    C29   1.528628 S    
O9    Ba1   2.774256 S    
P6    O45   1.569665 S    
C25   H53   1.110759 S    
C14   H26   1.104740 S    
C15   H27   1.104253 S    
Ba3   O47   2.799922 S    
N11   O69   1.301184 A    
C62   C70   1.430734 A    
P8    O47   1.569665 S    
C20   N4    1.455317 S    
O30   Ba2   2.772406 S    
P9    O29   1.748166 S    
P6    Ba2   3.421676 S    
Ba1   O45   2.799922 S    
P13   C46   1.851103 S    
C54   C58   1.419962 A    
C5    H17   1.109210 S    
C34   C68   1.409682 A    
C49   C53   1.411193 A    
C12   N12   1.461893 S    
C33   C57   1.413887 A    
P12   O32   1.752264 S    
N3    O53   1.299952 A    
C11   N11   1.459994 S    
H4    C32   1.111454 S    
P16   C47   1.854943 S    
C73   H73   1.082408 S    
P11   C80   1.836982 S    
C9    H21   1.112840 S    
P6    C69   1.853968 S    
C41   C45   1.398084 A    
P1    O5    1.565731 S    
C12   H24   1.107910 S    
P10   C77   1.835449 S    
C15   H31   1.111483 S    
P5    C70   1.855692 S    
O10   Ba2   2.772233 S    
N6    O60   1.299967 A    
P9    C78   1.833867 S    
O42   C6    1.405386 S    
P12   C79   1.839064 S    
O31   Ba3   2.770377 S    
N15   O78   1.302737 A    
O41   C5    1.405120 S    
N12   O71   1.300277 A    
C41   H61   1.082066 S    
P4    O8    1.562095 S    
O14   P13   1.547531 D    
C3    H11   1.107409 S    
N9    O65   1.299045 A    
P2    C38   1.865062 S    
C83   H71   1.082871 S    
C17   N1    1.459486 S    
P8    O28   1.530484 D    
C4    H12   1.109049 S    
P4    O4    1.531644 D    
C24   H44   1.110659 S    
C13   C17   1.528107 S    
P9    O41   1.743828 S    
C56   C86   1.408409 A    
C16   C20   1.525550 S    
P7    O27   1.530708 D    
P5    O25   1.530708 D    
C55   C85   1.412834 A    
O20   C24   1.398014 S    
C18   N2    1.455800 S    
N1    O49   1.299843 A    
C15   C19   1.528371 S    
C75   C79   1.390670 A    
O5    Ba2   2.799811 S    
O28   Ba4   2.846325 S    
C19   N3    1.458590 S    
C73   C77   1.389268 A    
P2    O2    1.531644 D    
C65   C81   1.408549 A    
P11   O43   1.745024 S    
C10   N14   1.462563 S    
C6    H18   1.113772 S    
C49   H65   1.082274 S    
C26   H54   1.110612 S    
O7    Ba4   2.799811 S    
C12   N16   1.464192 S    
P7    O39   1.746480 S    
O11   P16   1.744957 S    
C64   C88   1.411120 A    
C36   C66   1.409409 A    
O18   C22   1.397797 S    
P11   O31   1.749367 S    
C63   C67   1.419804 A    
C2    C30   1.533310 S    
C34   H86   1.079359 S    
N4    O56   1.300442 A    
O43   C7    1.405380 S    
O40   C15   1.398499 S    
P9    O33   1.542719 D    
C33   C67   1.411220 A    
C31   H59   1.107313 S    
P5    O46   1.566000 S    
P10   O30   1.753369 S    
C51   C55   1.410735 A    
C3    N7    1.456611 S    
P3    Ba3   3.418986 S    
C4    H8    1.105123 S    
P11   O35   1.543133 D    
C86   H78   1.077890 S    
C62   C86   1.409762 A    
P12   O36   1.545885 D    
C13   H29   1.111645 S    
C64   C68   1.419407 A    
C34   C58   1.413078 A    
C53   C57   1.421359 A    
N4    O55   1.300696 A    
C2    H6    1.112486 S    
Ba2   O46   2.794746 S    
N8    O64   1.300207 A    
N3    O54   1.300444 A    
Ba3   O48   2.952102 S    
C78   C82   1.397053 A    
C43   C47   1.398432 A    
C1    H5    1.110538 S    
C8    C12   1.537755 S    
C20   H36   1.106342 S    
C2    N6    1.456165 S    
C51   H67   1.082194 S    
O21   P14   1.760082 S    
C80   C84   1.398039 A    
C4    N8    1.454248 S    
C53   C87   1.413367 A    
C22   H42   1.110810 S    
C3    H7    1.111780 S    
C21   H41   1.110645 S    
P12   O44   1.748886 S    
O3    Ba3   2.842611 S    
C22   H82   1.105737 S    
O8    Ba3   2.794634 S    
C74   C78   1.390461 A    
C13   H25   1.104733 S    
C23   H43   1.110648 S    
N15   O77   1.301171 A    
C32   H60   1.113675 S    
C28   H48   1.110918 S    
C39   C59   1.432819 A    
N6    O59   1.299214 A    
P6    O26   1.530484 D    
C17   H33   1.107703 S    
N2    O52   1.300578 A    
O15   P16   1.548366 D    
C43   H63   1.082062 S    
P1    Ba1   3.418986 S    
P8    O40   1.747991 S    
N9    O66   1.299714 A    
C5    C9    1.531870 S    
C50   C54   1.409707 A    
C87   H79   1.078353 S    
C76   H76   1.082290 S    
O38   C13   1.397681 S    
C72   C76   1.395288 A    
C7    C11   1.533665 S    
O37   C14   1.399136 S    
O24   C32   1.405762 S    
N10   O68   1.299314 A    
C38   C42   1.403344 A    
H2    C30   1.109155 S    
N14   O76   1.301322 A    
N1    O50   1.300155 A    
C10   H22   1.111545 S    
O39   C16   1.399528 S    
P10   O34   1.545308 D    
C25   H45   1.110892 S    
O22   C30   1.412293 S    
C64   C72   1.431348 A    
O29   Ba1   2.770377 S    
C85   H77   1.078526 S    
N7    O61   1.301740 A    
P2    O6    1.562095 S    
O26   Ba2   2.846325 S    
C6    C10   1.535418 S    
P1    O1    1.531421 D    
C27   H55   1.110760 S    
P7    Ba3   3.419236 S    
C4    C32   1.529819 S    
N16   O80   1.301180 A    
N5    O58   1.302218 A    
C18   H34   1.106301 S    
C40   C44   1.399300 A    
C17   H37   1.110259 S    
N11   O70   1.302176 A    
O4    Ba4   2.837444 S    
C46   C50   1.397790 A    
P7    O48   1.566000 S    
C14   C18   1.526189 S    
C69   C73   1.395559 A    
P15   C48   1.839231 S    
Ba4   O48   2.794746 S    
C23   C27   1.522793 S    
P1    C37   1.870470 S    
C38   C58   1.429689 A    
P4    C40   1.858075 S    
C19   H35   1.107351 S    
C88   H80   1.077534 S    
Ba2   O45   2.951242 S    
C36   H88   1.079546 S    
C8    H16   1.110136 S    
C3    C31   1.531313 S    
C36   C60   1.411660 A    
C19   H39   1.109763 S    
O19   C23   1.397858 S    
H3    C31   1.108921 S    
Ba3   Ba4   4.607087 S    
P6    O38   1.746844 S    
N8    O63   1.300796 A    
P4    Ba4   3.416580 S    
C26   H46   1.110460 S    
C28   H52   1.106986 S    
C42   H62   1.082064 S    
C27   H47   1.110898 S    
O16   P15   1.544301 D    
C39   C43   1.404082 A    
C61   C65   1.419403 A    
P2    O18   1.750042 S    
C1    H9    1.108020 S    
N13   O74   1.301480 A    
C20   H40   1.110079 S    
C16   H32   1.111258 S    
N13   O73   1.298825 A    
C21   C25   1.522683 S    
O22   P13   1.761502 S    
O21   C29   1.410557 S    
C33   H85   1.078679 S    
Ba1   Ba2   4.607087 S    
P5    O37   1.746910 S    
C75   H75   1.082383 S    
C62   C66   1.420005 A    
C61   C69   1.433598 A    
C71   C75   1.396781 A    
C81   H69   1.083334 S    
C21   H81   1.106010 S    
C16   H28   1.104544 S    
O10   P13   1.742600 S    
C76   C80   1.390097 A    
N2    O51   1.301038 A    
C68   C84   1.407367 A    
O11   Ba3   2.774256 S    
P7    C72   1.854690 S    
C52   H68   1.081944 S    
O12   P15   1.749111 S    
O25   Ba1   2.841118 S    
N7    O62   1.303992 A    
P10   O42   1.747703 S    
C82   H70   1.083236 S    
C77   C81   1.398813 A    
P5    Ba1   3.419236 S    
C27   H51   1.106885 S    
O32   Ba4   2.772406 S    
C54   C88   1.410028 A    
Ba1   O46   2.952102 S    
C56   C60   1.419389 A    
C48   C52   1.396093 A    
P14   C45   1.855352 S    
C25   H49   1.107260 S    
N10   O67   1.301305 A    
C35   C65   1.411035 A    
Ba4   O47   2.951242 S    
C24   H84   1.105796 S    
C70   C74   1.395129 A    
O1    Ba1   2.842611 S    
C1    N5    1.453991 S    
O6    Ba1   2.794634 S    
C30   H58   1.111725 S    
C5    H13   1.113777 S    
C50   H66   1.081963 S    
O17   C21   1.398489 S    
C9    N13   1.456964 S    
C9    N9    1.459348 S    
C37   C57   1.432629 A    
C45   C49   1.398951 A    
C7    H15   1.114176 S    
C22   C26   1.520442 S    
C55   C59   1.421374 A    
C52   C56   1.406917 A    
C14   H30   1.111292 S    
O2    Ba2   2.837444 S    
C6    H14   1.109618 S    
H1    C29   1.108770 S    
C26   H50   1.107282 S    
