data_mof_unit_47179.cif
_audit_creation_date              2012-12-11T15:36:47-0500
_audit_creation_method            fapswitch 2.2
_symmetry_space_group_name_H-M    P1
_symmetry_Int_Tables_number       1
_space_group_crystal_system       triclinic
_cell_length_a                    15.056297
_cell_length_b                    15.058781
_cell_length_c                    34.851383
_cell_angle_alpha                 91.173335
_cell_angle_beta                  91.754227
_cell_angle_gamma                 60.126452
_cell_volume                      6848.55774927

loop_
_atom_site_label
_atom_site_type_symbol
_atom_type_description
_atom_site_fract_x
_atom_site_fract_y
_atom_site_fract_z
_atom_type_partial_charge
C1    C     C_R   0.610544 0.302953 0.443962 0.549120
C2    C     C_R   0.738769 0.683735 0.182133 0.028757
C3    C     C_R   0.613923 0.139792 0.829324 0.016948
C4    C     C_R   0.659394 0.184689 0.852338 -0.094402
C5    C     C_R   0.687837 0.155906 0.890799 0.016765
C6    C     C_R   0.573670 0.254421 0.772590 -0.114267
C7    C     C_R   0.577162 0.267078 0.733278 -0.062374
C8    C     C_R   0.606715 0.183739 0.708119 0.064388
C9    C     C_R   0.628496 0.088603 0.722338 -0.110722
C10   C     C_R   0.626491 0.075403 0.761762 -0.108812
C11   C     C_R   0.601227 0.157711 0.787385 0.029321
C12   C     C_R   0.553360 0.187612 0.639690 -0.186982
C13   C     C_R   0.825825 0.619700 0.160905 -0.124653
C14   C     C_R   0.554175 0.214477 0.601651 -0.147475
C15   C     C_R   0.691710 0.249304 0.617932 -0.087824
C16   C     C_R   0.689723 0.224168 0.656026 0.381840
C17   C     C_R   0.618358 0.196192 0.667265 0.030001
C18   C     C_R   0.621158 0.248720 0.590740 -0.034701
C19   C     C_R   0.046643 0.738296 0.048221 0.541783
C20   C     C_R   0.747266 0.746339 0.064005 0.543794
C21   C     C_R   0.751387 0.040294 0.050687 0.535711
C22   C     C_R   0.017167 0.722463 0.939813 0.548138
C23   C     C_R   0.717160 0.730129 0.954917 0.539767
C24   C     C_R   0.826611 0.635485 0.121612 -0.129329
C25   C     C_R   0.720824 0.025588 0.942359 0.537148
C26   C     C_R   0.774432 0.579967 0.241388 -0.118030
C27   C     C_R   0.766126 0.574107 0.280890 -0.113979
C28   C     C_R   0.724351 0.663348 0.303708 0.026447
C29   C     C_R   0.696032 0.757673 0.286622 -0.117956
C30   C     C_R   0.703635 0.763561 0.247142 -0.116471
C31   C     C_R   0.740333 0.675169 0.224150 0.024748
C32   C     C_R   0.603311 0.732834 0.357873 -0.117532
C33   C     C_R   0.593304 0.610309 0.449424 0.546263
C34   C     C_R   0.571282 0.720245 0.393403 -0.110609
C35   C     C_R   0.733245 0.563652 0.403017 -0.129443
C36   C     C_R   0.765491 0.576561 0.367517 -0.124219
C37   C     C_R   0.699325 0.659318 0.344044 0.028853
C38   C     C_R   0.634425 0.633536 0.415644 0.017611
C39   C     C_R   0.109439 0.723390 0.083382 0.005243
C40   C     C_R   0.159058 0.626498 0.100665 -0.116958
C41   C     C_R   0.189453 0.614784 0.139470 0.021782
C42   C     C_R   0.174799 0.702280 0.160722 0.044187
C43   C     C_R   0.134671 0.797072 0.142232 -0.141879
C44   C     C_R   0.301930 0.592842 0.442599 0.551455
C45   C     C_R   0.102132 0.807707 0.103850 -0.139002
C46   C     C_R   0.260788 0.710536 0.223444 0.025311
C47   C     C_R   0.266586 0.701349 0.263607 -0.103233
C48   C     C_R   0.195336 0.686069 0.283525 0.018967
C49   C     C_R   0.116080 0.682232 0.262895 -0.120529
C50   C     C_R   0.110292 0.689517 0.223126 -0.135787
C51   C     C_R   0.183682 0.700210 0.202973 0.042297
C52   C     C_R   0.184840 0.602580 0.343595 -0.108580
C53   C     C_R   0.199972 0.585648 0.383455 -0.031651
C54   C     C_R   0.257302 0.711295 0.387271 0.356324
C55   C     C_R   0.605633 0.300531 0.553735 0.547538
C56   C     C_R   0.235139 0.731505 0.348414 -0.090099
C57   C     C_R   0.204580 0.673532 0.325767 -0.045917
C58   C     C_R   0.247533 0.632790 0.404980 0.024130
C59   C     C_R   0.725568 0.097654 0.087160 0.022648
C60   C     C_R   0.802616 0.103280 0.109015 -0.126615
C61   C     C_R   0.787402 0.132122 0.147554 -0.125657
C62   C     C_R   0.694470 0.157340 0.164575 0.030792
C63   C     C_R   0.614086 0.161177 0.141870 -0.119246
C64   C     C_R   0.629733 0.130904 0.103438 -0.128086
C65   C     C_R   0.598030 0.250104 0.222823 -0.126243
C66   C     C_R   0.587496 0.606305 0.559127 0.536226
C67   C     C_R   0.587522 0.257272 0.262539 -0.062842
C68   C     C_R   0.663737 0.182503 0.286507 0.062468
C69   C     C_R   0.750993 0.101036 0.270168 -0.124305
C70   C     C_R   0.761583 0.094102 0.230468 -0.117095
C71   C     C_R   0.685124 0.168586 0.206530 0.026158
C72   C     C_R   0.737957 0.187674 0.350602 -0.182985
C73   C     C_R   0.725896 0.215330 0.389269 -0.144871
C74   C     C_R   0.551150 0.248021 0.385273 -0.088911
C75   C     C_R   0.563080 0.220484 0.346517 0.374104
C76   C     C_R   0.655437 0.194134 0.328553 0.033745
C77   C     C_R   0.298113 0.589035 0.551746 0.538355
C78   C     C_R   0.630998 0.249982 0.406530 -0.037077
C79   C     C_R   0.691445 0.689928 0.919908 0.018415
C80   C     C_R   0.765192 0.596867 0.903588 -0.128903
C81   C     C_R   0.752884 0.571992 0.865753 -0.122664
C82   C     C_R   0.666737 0.639739 0.843592 0.029109
C83   C     C_R   0.588610 0.727923 0.861106 -0.117043
C84   C     C_R   0.600673 0.752604 0.898961 -0.126619
C85   C     C_R   0.570882 0.651761 0.782052 -0.114325
C86   C     C_R   0.565874 0.651067 0.742028 -0.108278
C87   C     C_R   0.653604 0.623858 0.720699 0.032060
C88   C     C_R   0.740099 0.715291 0.103082 0.020806
C89   C     C_R   0.747179 0.594089 0.740039 -0.106679
C90   C     C_R   0.752107 0.595406 0.780080 -0.106829
C91   C     C_R   0.663663 0.625691 0.801496 0.026589
C92   C     C_R   0.718520 0.543810 0.656570 -0.108830
C93   C     C_R   0.704114 0.540922 0.616892 -0.125037
C94   C     C_R   0.550688 0.707533 0.619926 -0.125201
C95   C     C_R   0.564830 0.710044 0.659559 -0.124561
C96   C     C_R   0.646752 0.626655 0.678355 0.027686
C97   C     C_R   0.617806 0.621058 0.598390 0.019031
C98   C     C_R   0.067589 0.698385 0.902677 -0.035548
C99   C     C_R   0.650911 0.774661 0.124034 -0.125912
C100  C     C_R   0.097483 0.764575 0.887202 -0.086310
C101  C     C_R   0.127880 0.753046 0.849255 0.375610
C102  C     C_R   0.127946 0.675358 0.826232 0.033331
C103  C     C_R   0.104866 0.604961 0.842494 -0.185179
C104  C     C_R   0.075199 0.616162 0.880516 -0.149176
C105  C     C_R   0.207232 0.578595 0.766407 -0.124693
C106  C     C_R   0.216345 0.574620 0.726739 -0.118154
C107  C     C_R   0.161941 0.664058 0.704857 0.023048
C108  C     C_R   0.098981 0.757714 0.723114 -0.120648
C109  C     C_R   0.089246 0.761572 0.762800 -0.059000
C110  C     C_R   0.650408 0.759157 0.163227 -0.125096
C111  C     C_R   0.143507 0.672047 0.784701 0.060289
C112  C     C_R   0.201398 0.725518 0.645602 -0.116615
C113  C     C_R   0.233681 0.707964 0.607781 -0.125271
C114  C     C_R   0.204212 0.563597 0.603867 -0.124041
C115  C     C_R   0.172464 0.580921 0.641662 -0.122469
C116  C     C_R   0.175183 0.659120 0.663213 0.030807
C117  C     C_R   0.239917 0.623828 0.587258 0.022958
C118  C     C_R   0.671960 0.078323 0.906066 0.038040
C119  C     C_R   0.618421 0.040469 0.883859 -0.140655
C120  C     C_R   0.589728 0.070824 0.845939 -0.131298
Cr1   Cr    Cr6+3 0.426010 0.422500 0.497000 1.010179
Cr2   Cr    Cr6+3 0.651300 0.426310 0.501970 1.015162
Cr3   Cr    Cr6+3 0.422670 0.651170 0.501050 1.075225
Cr4   Cr    Cr6+3 0.905130 0.911420 0.992650 1.011254
Cr5   Cr    Cr6+3 0.911860 0.682710 0.002320 1.009464
Cr6   Cr    Cr6+3 0.682710 0.906840 0.004710 1.011551
H1    H     H_    0.582856 0.836273 0.110549 0.129522
H2    H     H_    0.494768 0.775409 0.402373 0.176382
H3    H     H_    0.894646 0.560843 0.175030 0.101996
H4    H     H_    0.784047 0.496641 0.419791 0.125007
H5    H     H_    0.165982 0.560916 0.084691 0.122943
H6    H     H_    0.063418 0.883418 0.091319 0.126248
H7    H     H_    0.245761 0.790544 0.335738 0.133455
H8    H     H_    0.328050 0.704620 0.279357 0.104604
H9    H     H_    0.058222 0.673866 0.277490 0.109922
H10   H     H_    0.896583 0.588692 0.106242 0.126639
H11   H     H_    0.048454 0.685827 0.207799 0.111571
H12   H     H_    0.159040 0.558835 0.326322 0.129325
H13   H     H_    0.120680 0.864863 0.158403 0.103450
H14   H     H_    0.877326 0.077954 0.097256 0.123310
H15   H     H_    0.568997 0.127615 0.087146 0.118486
H16   H     H_    0.520917 0.322425 0.274582 0.152246
H17   H     H_    0.539047 0.308756 0.204821 0.098273
H18   H     H_    0.840599 0.519829 0.357776 0.102935
H19   H     H_    0.849827 0.130094 0.164559 0.103232
H20   H     H_    0.810686 0.042676 0.288134 0.108519
H21   H     H_    0.828699 0.029588 0.218383 0.111045
H22   H     H_    0.809858 0.167420 0.337373 0.119269
H23   H     H_    0.789030 0.215445 0.404977 0.148185
H24   H     H_    0.541707 0.180593 0.154500 0.108186
H25   H     H_    0.477411 0.273529 0.397940 0.151295
H26   H     H_    0.835565 0.546430 0.919131 0.123352
H27   H     H_    0.542323 0.824771 0.910701 0.130816
H28   H     H_    0.509729 0.775744 0.675745 0.107433
H29   H     H_    0.787247 0.500554 0.293208 0.106578
H30   H     H_    0.493271 0.672062 0.727686 0.115497
H31   H     H_    0.501884 0.674074 0.797793 0.123607
H32   H     H_    0.813187 0.502310 0.853215 0.107044
H33   H     H_    0.815710 0.573090 0.724173 0.105141
H34   H     H_    0.824323 0.576791 0.794208 0.105032
H35   H     H_    0.782416 0.478680 0.670468 0.131261
H36   H     H_    0.757102 0.473098 0.601146 0.129310
H37   H     H_    0.521512 0.781948 0.844751 0.115569
H38   H     H_    0.483621 0.770667 0.606579 0.129435
H39   H     H_    0.093743 0.827595 0.904024 0.147271
H40   H     H_    0.802878 0.510982 0.224082 0.104821
H41   H     H_    0.052378 0.564183 0.891769 0.143038
H42   H     H_    0.150571 0.530155 0.654694 0.107305
H43   H     H_    0.267008 0.501905 0.713155 0.109394
H44   H     H_    0.249927 0.508841 0.782829 0.106395
H45   H     H_    0.056336 0.827318 0.706610 0.119979
H46   H     H_    0.037633 0.834058 0.776296 0.161744
H47   H     H_    0.203856 0.786356 0.661871 0.114510
H48   H     H_    0.260384 0.755864 0.595630 0.129122
H49   H     H_    0.104243 0.544672 0.825197 0.116501
H50   H     H_    0.581681 0.807814 0.179026 0.106783
H51   H     H_    0.206949 0.498991 0.588557 0.130410
H52   H     H_    0.604424 0.982022 0.895038 0.130700
H53   H     H_    0.558543 0.341504 0.722477 0.131501
H54   H     H_    0.551821 0.319697 0.791478 0.103101
H55   H     H_    0.552382 0.036970 0.829117 0.110625
H56   H     H_    0.651214 0.023753 0.703125 0.109633
H57   H     H_    0.649463 0.999622 0.772269 0.109167
H58   H     H_    0.498215 0.165744 0.648038 0.118958
H59   H     H_    0.665237 0.827279 0.303648 0.118320
H60   H     H_    0.498994 0.213419 0.581239 0.137808
H61   H     H_    0.677408 0.238869 0.839792 0.110629
H62   H     H_    0.743762 0.275911 0.610394 0.149236
H63   H     H_    0.679027 0.837513 0.234400 0.117319
H64   H     H_    0.550192 0.796832 0.340236 0.116517
O1    O     O_R   0.324990 0.503440 0.453910 -0.542247
O2    O     O_R   0.639980 0.519500 0.542640 -0.505796
O3    O     O_R   0.500750 0.673190 0.545480 -0.521035
O4    O     O_R   0.336260 0.640450 0.538210 -0.505157
O5    O     O_3   0.499990 0.499990 0.500010 -0.246350
O6    O     O_R   0.834210 0.019400 0.034570 -0.523916
O7    O     O_R   0.002210 0.824620 0.031030 -0.499914
O8    O     O_R   0.024400 0.669340 0.039790 -0.521878
O9    O     O_R   0.830490 0.694950 0.045870 -0.502439
O10   O     O_R   0.675430 0.831160 0.051290 -0.516627
O11   O     O_R   0.698870 0.998880 0.039560 -0.499775
O12   O     O_R   0.522030 0.339050 0.458320 -0.502688
O13   O     O_R   0.811290 0.006780 0.950620 -0.515885
O14   O     O_R   0.980960 0.812920 0.953200 -0.500369
O15   O     O_R   0.001480 0.656720 0.955830 -0.516313
O16   O     O_R   0.809240 0.683250 0.968050 -0.501847
O17   O     O_R   0.652500 0.818540 0.967340 -0.520134
O18   O     O_R   0.677620 0.987170 0.961730 -0.505361
O19   O     O_3   0.833240 0.833660 0.999890 -0.234330
O20   O     O_R   0.676180 0.324490 0.458320 -0.512023
O21   O     O_R   0.643570 0.521510 0.464260 -0.507457
O22   O     O_R   0.504630 0.675350 0.460920 -0.476481
O23   O     O_R   0.339850 0.642450 0.459830 -0.417175
O24   O     O_R   0.321120 0.501280 0.538470 -0.522833
O25   O     O_R   0.518440 0.337050 0.536710 -0.495316
O26   O     O_R   0.672300 0.322330 0.542880 -0.519056
C121  C     C_3   0.335084 0.734531 0.203932 -0.276832
C122  C     C_3   0.418850 0.642057 0.183051 -0.436485
H65   H     H_    0.458984 0.576116 0.202884 0.149369
H66   H     H_    0.386146 0.620691 0.158003 0.164361
H67   H     H_    0.475794 0.661470 0.172339 0.143676
H68   H     H_    0.293393 0.798729 0.183548 0.140869
H69   H     H_    0.373020 0.760961 0.225486 0.137405
C123  C     C_3   0.226359 0.510913 0.157740 -0.271403
C124  C     C_3   0.338532 0.459179 0.170689 -0.440610
H70   H     H_    0.387091 0.456919 0.146913 0.148751
H71   H     H_    0.348648 0.499496 0.195916 0.166268
H72   H     H_    0.363905 0.379326 0.179323 0.134394
H73   H     H_    0.178388 0.518030 0.182389 0.146779
H74   H     H_    0.217961 0.458197 0.137061 0.129446
C125  C     C_3   0.163983 0.518150 0.401361 -0.266504
C126  C     C_3   0.050328 0.556571 0.392572 -0.448606
H75   H     H_    0.003363 0.638254 0.401191 0.164374
H76   H     H_    0.036431 0.548262 0.361600 0.146813
H77   H     H_    0.025138 0.510806 0.408934 0.138579
H78   H     H_    0.210426 0.438479 0.390455 0.166313
H79   H     H_    0.171564 0.516921 0.433021 0.175468
F1    F     F_    0.293712 0.765962 0.406785 -0.630389
F2    F     F_    0.483308 0.223111 0.326287 -0.650446
F3    F     F_    0.154603 0.819262 0.834777 -0.647535
C127  C     C_3   0.734934 0.208937 0.914166 -0.269511
C128  C     C_3   0.667197 0.270806 0.947431 -0.429308
H80   H     H_    0.589490 0.327459 0.936468 0.154064
H81   H     H_    0.660585 0.220075 0.968406 0.157050
H82   H     H_    0.701351 0.312681 0.962565 0.139072
H83   H     H_    0.812760 0.152977 0.924981 0.178551
H84   H     H_    0.745053 0.262921 0.895969 0.132901
F4    F     F_    0.754581 0.231114 0.682262 -0.638743

loop_
_geom_bond_atom_site_label_1
_geom_bond_atom_site_label_2
_ccdc_geom_bond_type
C92   H35   S    
C121  H69   S    
C15   C18   A    
C115  H42   S    
C101  C102  A    
C22   C98   S    
C94   H38   S    
C41   C42   A    
C14   C18   A    
C75   F2    S    
C95   C96   A    
C112  C116  A    
Cr2   O5    S    
C72   C76   A    
C123  C124  S    
C56   H7    S    
C85   C91   A    
C50   H11   S    
C122  H65   S    
C7    C8    A    
C20   O9    A    
C12   H58   S    
C85   C86   A    
C56   C57   A    
C59   C64   A    
C62   C63   A    
Cr4   O14   S    
Cr1   O25   S    
C66   C97   S    
C28   C29   A    
C124  H70   S    
Cr1   O12   S    
C21   C59   S    
C77   C117  S    
C69   C70   A    
C109  C111  A    
C44   O1    A    
C55   O25   A    
C79   C84   A    
C65   H17   S    
C33   O22   A    
C98   C104  A    
C106  C107  A    
C10   H57   S    
C15   C16   A    
C20   C88   S    
Cr5   O16   S    
C92   C96   A    
C124  H72   S    
C108  C109  A    
C127  C128  S    
C30   H63   S    
C46   C51   A    
C2    C13   A    
C86   H30   S    
C118  C119  A    
C100  C101  A    
C61   H19   S    
C9    H56   S    
C103  C104  A    
C122  H66   S    
C2    C110  A    
C35   C36   A    
Cr6   O18   S    
C16   C17   A    
C65   C67   A    
C66   O2    A    
C12   C17   A    
C48   C49   A    
C52   H12   S    
C107  C108  A    
Cr2   O20   S    
Cr3   O4    S    
C43   H13   S    
C70   C71   A    
C119  H52   S    
C25   O18   A    
C120  H55   S    
C74   C78   A    
C109  H46   S    
C42   C51   S    
C39   C45   A    
C23   O17   A    
C24   H10   S    
C112  H47   S    
C49   H9    S    
C59   C60   A    
C100  H39   S    
C46   C121  S    
C34   C38   A    
C25   C118  S    
C101  F3    S    
C90   H34   S    
C69   H20   S    
Cr3   O5    S    
C102  C111  S    
C61   C62   A    
C85   H31   S    
C1    O12   A    
C103  H49   S    
C112  C113  A    
C77   O24   A    
C89   H33   S    
C16   F4    S    
Cr6   O11   S    
C27   H29   S    
C107  C116  S    
C54   C56   A    
C19   O7    A    
C128  H82   S    
C105  H44   S    
Cr4   O13   S    
C32   H64   S    
C67   C68   A    
C114  C117  A    
C47   C48   A    
C21   O11   A    
C48   C57   S    
C35   C38   A    
C3    C11   S    
C54   F1    S    
C74   C75   A    
C44   C58   S    
C55   O26   A    
Cr5   O19   S    
C86   C87   A    
C68   C69   A    
C99   H1    S    
C41   C123  S    
C94   C97   A    
C121  C122  S    
C72   H22   S    
C99   C110  A    
Cr4   O7    S    
C126  H77   S    
C81   C82   A    
C82   C91   S    
C44   O23   A    
C22   O15   A    
C2    C31   S    
C32   C34   A    
C75   C76   A    
C63   H24   S    
C15   H62   S    
C29   C30   A    
C123  H74   S    
C43   C45   A    
C84   H27   S    
C127  H83   S    
C128  H81   S    
C83   C84   A    
Cr6   O17   S    
C73   C78   A    
C114  H51   S    
Cr3   O22   S    
Cr4   O6    S    
C126  H76   S    
C50   C51   A    
C8    C9    A    
C7    H53   S    
C94   C95   A    
C32   C37   A    
C119  C120  A    
Cr2   O2    S    
C24   C88   A    
C35   H4    S    
Cr5   O9    S    
C125  H78   S    
C19   C39   S    
C18   C55   S    
C60   H14   S    
C113  C117  A    
C26   H40   S    
C40   C41   A    
C40   H5    S    
C53   C125  S    
Cr5   O8    S    
C49   C50   A    
C98   C100  A    
C10   C11   A    
C87   C89   A    
C47   H8    S    
C26   C27   A    
C1    C78   S    
C54   C58   A    
C106  H43   S    
C74   H25   S    
C42   C43   A    
C3    C4    A    
C93   C97   A    
C6    C11   A    
C66   O3    A    
C52   C53   A    
C4    H61   S    
C122  H67   S    
C9    C10   A    
Cr6   O10   S    
C121  H68   S    
C80   H26   S    
C83   H37   S    
C46   C47   A    
C36   C37   A    
C19   O8    A    
C81   H32   S    
C6    H54   S    
C1    O20   A    
C127  H84   S    
C26   C31   A    
Cr3   O3    S    
C33   C38   S    
C12   C14   A    
C72   C73   A    
C25   O13   A    
Cr6   O19   S    
Cr1   O1    S    
C52   C57   A    
C53   C58   A    
C87   C96   S    
C114  C115  A    
C6    C7    A    
C63   C64   A    
C110  H50   S    
C68   C76   S    
C105  C106  A    
C8    C17   S    
C22   O14   A    
C5    C118  A    
C125  H79   S    
C95   H28   S    
C23   C79   S    
Cr1   O24   S    
Cr3   O23   S    
C36   H18   S    
C23   O16   A    
C77   O4    A    
C65   C71   A    
C123  H73   S    
C104  H41   S    
C33   O21   A    
C90   C91   A    
C30   C31   A    
C28   C37   S    
C14   H60   S    
C64   H15   S    
C128  H80   S    
Cr5   O15   S    
C92   C93   A    
C124  H71   S    
C29   H59   S    
C62   C71   S    
C21   O6    A    
C105  C111  A    
C102  C103  A    
C93   H36   S    
C80   C81   A    
C88   C99   A    
Cr2   O26   S    
C3    C120  A    
C79   C80   A    
C39   C40   A    
C73   H23   S    
C4    C5    A    
C13   C24   A    
C45   H6    S    
C34   H2    S    
C82   C83   A    
Cr4   O19   S    
C108  H45   S    
C125  C126  S    
C13   H3    S    
Cr2   O21   S    
C60   C61   A    
C70   H21   S    
C5    C127  S    
C89   C90   A    
C67   H16   S    
Cr1   O5    S    
C20   O10   A    
C115  C116  A    
C126  H75   S    
C113  H48   S    
C27   C28   A    
