data_mof_unit_30107.cif
_audit_creation_date              2013-03-05T16:11:03-0500
_audit_creation_method            fapswitch 2.2
_symmetry_space_group_name_H-M    P1
_symmetry_Int_Tables_number       1
_space_group_crystal_system       triclinic
_cell_length_a                    11.023248
_cell_length_b                    9.711788
_cell_length_c                    10.705133
_cell_angle_alpha                 90.223241
_cell_angle_beta                  91.331943
_cell_angle_gamma                 91.347543
_cell_volume                      1145.40496916

loop_
_atom_site_label
_atom_site_type_symbol
_atom_site_description
_atom_site_fract_x
_atom_site_fract_y
_atom_site_fract_z
_atom_type_partial_charge
O1    O     O_R   0.317570 0.620260 0.500070 -0.613401
O2    O     O_R   0.317570 0.379740 0.500070 -0.544555
C1    C     C_R   0.260886 0.498715 0.497683 0.939857
O3    O     O_R   0.499850 0.620240 0.316900 -0.533302
O4    O     O_R   0.499850 0.379760 0.316900 -0.573332
C2    C     C_R   0.499008 0.499844 0.260786 0.920515
Cu1   Cu    Cu3+1 0.499860 0.642410 0.500060 1.049892
Cu2   Cu    Cu3+1 0.499860 0.357590 0.500060 1.048595
O5    O     O_R   0.682190 0.620260 0.500030 -0.502607
O6    O     O_R   0.682190 0.379740 0.500030 -0.558124
O7    O     O_R   0.499910 0.620280 0.683200 -0.565507
O8    O     O_R   0.499910 0.379720 0.683200 -0.534046
C3    C     C_R   0.740070 0.502736 0.512918 0.841937
C4    C     C_R   0.501695 0.500035 0.740271 0.862502
C5    C     C_3   0.462653 0.620555 0.041060 0.475795
C6    C     C_3   0.426537 0.399920 0.039690 0.458640
C7    C     C_3   0.386649 0.520724 0.956143 -0.432036
H1    H     H_    0.292681 0.531981 0.920544 0.216811
C8    C     C_3   0.502461 0.499507 0.878377 -0.226147
C9    C     C_3   0.576901 0.599360 0.964691 0.410888
C10   C     C_3   0.540154 0.378664 0.963233 0.427357
C11   C     C_3   0.616263 0.478144 0.048493 -0.513491
C12   C     C_3   0.500283 0.499782 0.124604 -0.191819
H2    H     H_    0.707917 0.461503 0.090032 0.180990
C13   C     C_3   0.085761 0.626901 0.580396 0.267011
C14   C     C_3   0.067816 0.363695 0.560698 0.347334
H3    H     H_    0.126195 0.722245 0.538788 0.078255
H4    H     H_    0.061627 0.282267 0.487174 0.119812
C15   C     C_3   0.944686 0.645682 0.572961 0.375389
C16   C     C_3   0.936429 0.392363 0.602808 0.242158
H5    H     H_    0.926452 0.725598 0.504649 0.166683
H6    H     H_    0.883697 0.298820 0.587160 0.175439
H7    H     H_    0.871626 0.570555 0.320857 0.252361
H8    H     H_    0.891091 0.395103 0.344752 0.254210
C17   C     C_3   0.063024 0.513176 0.364601 0.406086
C18   C     C_3   0.123211 0.498631 0.500065 -0.280475
C19   C     C_3   0.881337 0.509891 0.519915 -0.227378
C20   C     C_3   0.921862 0.497036 0.380854 -0.647190
C21   C     C_3   0.627699 0.085134 0.505365 0.573180
C22   C     C_3   0.624549 0.919771 0.526459 0.546090
H9    H     H_    0.469565 0.111641 0.701012 0.255773
H10   H     H_    0.434890 0.868759 0.692065 0.207582
C23   C     C_3   0.431495 0.080561 0.608796 -0.275023
C24   C     C_3   0.419435 0.915952 0.599475 -0.313890
C25   C     C_3   0.433303 0.080751 0.391981 -0.262799
C26   C     C_3   0.447103 0.917157 0.384748 -0.244091
N1    N     N_3   0.500250 0.143650 0.502780 -0.236267
N2    N     N_3   0.500250 0.856350 0.502780 -0.226540
H11   H     H_    0.334836 0.103588 0.396065 0.204265
H12   H     H_    0.355993 0.869274 0.364961 0.221565
H13   H     H_    0.458381 0.130730 0.303528 0.235923
H14   H     H_    0.498054 0.890218 0.301247 0.254356
H15   H     H_    0.339332 0.123442 0.609485 0.176199
H16   H     H_    0.323213 0.888389 0.575927 0.156144
N3    N     N_R   0.704727 0.142240 0.608372 0.112660
O9    O     O_R   0.811462 0.091299 0.630154 -0.426277
O10   O     O_R   0.660373 0.216926 0.694812 -0.348070
N4    N     N_R   0.660207 0.883160 0.657841 0.115012
O11   O     O_R   0.689581 0.758930 0.683230 -0.270469
O12   O     O_R   0.630487 0.956651 0.753883 -0.389609
N5    N     N_R   0.689971 0.122516 0.386544 0.139447
O13   O     O_R   0.655291 0.070455 0.279259 -0.435175
O14   O     O_R   0.797123 0.181318 0.390746 -0.336742
N6    N     N_R   0.716255 0.865066 0.441178 0.135138
O15   O     O_R   0.685808 0.801526 0.337608 -0.362712
O16   O     O_R   0.827453 0.911753 0.451949 -0.317223
O17   O     O_3   0.419164 0.743018 0.093318 -0.545313
C27   C     C_3   0.419132 0.848528 0.003661 -0.231333
H17   H     H_    0.355514 0.928469 0.033143 0.171496
H18   H     H_    0.389711 0.812259 0.909173 0.134121
H19   H     H_    0.510494 0.897325 0.999282 0.196744
O18   O     O_3   0.351782 0.295480 0.090492 -0.540153
C28   C     C_3   0.283065 0.230330 0.993957 -0.199600
H20   H     H_    0.342132 0.186261 0.921840 0.139811
H21   H     H_    0.217299 0.302140 0.950913 0.216879
H22   H     H_    0.229661 0.144026 0.034574 0.188618
O19   O     O_3   0.652794 0.705125 0.918426 -0.526867
C29   C     C_3   0.733739 0.752945 0.013494 -0.153632
H23   H     H_    0.804689 0.676114 0.033328 0.174964
H24   H     H_    0.685596 0.779586 0.099997 0.201438
H25   H     H_    0.780235 0.848161 0.980793 0.182651
O20   O     O_3   0.577389 0.251687 0.915583 -0.556527
C30   C     C_3   0.621786 0.169969 0.013726 -0.165358
H26   H     H_    0.547844 0.141437 0.078054 0.189079
H27   H     H_    0.699368 0.221021 0.064975 0.185801
H28   H     H_    0.657007 0.074020 0.973724 0.208653
O21   O     O_3   0.124329 0.606877 0.706865 -0.458479
C31   C     C_3   0.204846 0.711821 0.751396 -0.318910
H29   H     H_    0.185993 0.815717 0.714155 0.089257
H30   H     H_    0.298405 0.683915 0.732051 0.188380
H31   H     H_    0.195615 0.720042 0.853938 0.195769
O22   O     O_3   0.141744 0.318565 0.662698 -0.505015
C32   C     C_3   0.113610 0.179560 0.691908 -0.290350
H32   H     H_    0.181014 0.143140 0.761701 0.135849
H33   H     H_    0.118524 0.110454 0.609113 0.149322
H34   H     H_    0.023228 0.169320 0.734692 0.206899
O23   O     O_3   0.899849 0.683496 0.691458 -0.483861
C33   C     C_3   0.941306 0.816950 0.730929 -0.051939
H35   H     H_    0.988460 0.878381 0.658261 0.107257
H36   H     H_    0.999292 0.807545 0.815897 0.144963
H37   H     H_    0.865557 0.878126 0.763907 0.231019
O24   O     O_3   0.945595 0.429486 0.732027 -0.485792
C34   C     C_3   0.841773 0.396200 0.799707 -0.012885
H38   H     H_    0.758640 0.436517 0.754449 0.167681
H39   H     H_    0.850867 0.447449 0.892292 0.174197
H40   H     H_    0.837106 0.283952 0.817742 0.186872
N7    N     N_R   0.097426 0.648225 0.310368 0.110754
O25   O     O_R   0.205809 0.666765 0.266818 -0.323178
O26   O     O_R   0.019455 0.745455 0.293681 -0.351417
N8    N     N_R   0.099141 0.406192 0.274745 0.145222
O27   O     O_R   0.053325 0.407629 0.161538 -0.323032
O28   O     O_R   0.180210 0.315107 0.301782 -0.363609

loop_
_geom_bond_atom_site_label_1
_geom_bond_atom_site_label_2
_geom_bond_distance
_ccdc_geom_bond_type
O21   C31   1.409879 S    
C6    C10   1.529574 S    
N7    O26   1.301786 A    
C28   H20   1.112223 S    
C8    C9    1.545275 S    
C6    O18   1.410476 S    
N3    O9    1.303448 A    
O23   C33   1.423416 S    
Cu1   Cu2   2.766110 S    
O19   C29   1.407911 S    
Cu1   O7    1.973105 S    
C32   H32   1.106345 S    
C9    O19   1.408209 S    
C8    C10   1.545592 S    
O4    C2    1.314054 A    
O7    C4    1.320412 A    
C29   H24   1.110642 S    
C25   H13   1.103665 S    
C14   O22   1.423963 S    
C33   H35   1.113149 S    
C26   H14   1.100618 S    
C13   O21   1.425031 S    
Cu1   O5    2.026379 S    
N5    O14   1.299576 A    
C22   N2    1.504648 S    
N8    O27   1.302291 A    
O5    C3    1.326732 A    
C23   H15   1.107172 S    
C21   N3    1.474472 S    
C17   C18   1.588827 S    
C6    C7    1.543971 S    
N7    O25   1.301383 A    
C3    C19   1.557192 S    
C5    C12   1.536708 S    
C32   H33   1.112773 S    
O1    Cu1   2.015874 S    
C10   C11   1.545866 S    
H9    C23   1.101913 S    
O24   C34   1.400772 S    
H10   C24   1.104949 S    
O3    Cu1   1.971701 S    
C25   N1    1.502354 S    
C13   C15   1.570241 S    
C5    C9    1.534778 S    
C21   N5    1.501145 S    
C26   N2    1.508709 S    
C22   N4    1.497944 S    
O17   C27   1.406719 S    
C17   C20   1.574013 S    
O3    C2    1.312191 A    
C21   C22   1.622315 S    
C29   H23   1.111082 S    
C27   H17   1.108216 S    
N4    O11   1.284988 A    
C25   C26   1.601359 S    
C16   C19   1.573057 S    
O1    C1    1.322425 A    
N6    O16   1.299329 A    
C23   C24   1.603575 S    
C19   C20   1.569499 S    
C30   H26   1.110100 S    
C31   H31   1.107527 S    
C25   H11   1.114768 S    
Cu2   O8    1.971437 S    
C5    O17   1.411172 S    
C16   O24   1.428850 S    
C7    H1    1.103380 S    
C34   H39   1.108747 S    
C10   O20   1.406426 S    
C17   N8    1.480809 S    
C14   C18   1.580803 S    
C30   H27   1.110998 S    
C9    C11   1.546960 S    
C14   C16   1.557772 S    
C6    C12   1.532778 S    
C33   H36   1.104822 S    
N3    O10   1.286044 A    
C28   H22   1.108906 S    
C11   H2    1.109947 S    
C13   H3    1.116913 S    
C28   H21   1.111317 S    
C21   N1    1.527533 S    
C5    C7    1.545250 S    
H8    C20   1.104331 S    
C4    C8    1.478294 S    
O2    Cu2   2.025935 S    
C31   H30   1.096631 S    
O18   C28   1.406423 S    
O6    C3    1.346010 A    
O4    Cu2   1.973370 S    
C32   H34   1.108688 S    
C33   H37   1.100114 S    
C26   H12   1.112281 S    
C14   H4    1.113401 S    
H7    C20   1.111133 S    
C22   N6    1.483919 S    
C15   O23   1.422099 S    
N6    O15   1.300145 A    
O2    C1    1.326501 A    
O8    C4    1.315969 A    
Cu2   N1    2.078162 S    
C15   H5    1.087419 S    
Cu1   N2    2.077732 S    
C16   H6    1.077367 S    
C29   H25   1.108565 S    
C23   N1    1.503803 S    
C1    C18   1.518418 S    
C27   H19   1.104969 S    
C2    C12   1.458245 S    
O22   C32   1.415816 S    
C7    C8    1.557475 S    
C34   H40   1.108050 S    
N5    O13   1.298776 A    
N8    O28   1.300786 A    
C17   N7    1.481164 S    
C13   C18   1.579282 S    
C24   H16   1.110830 S    
C30   H28   1.106384 S    
C31   H29   1.108777 S    
Cu2   O6    2.016319 S    
O20   C30   1.405004 S    
C15   C19   1.575338 S    
C34   H38   1.107039 S    
C27   H18   1.108601 S    
C11   C12   1.549922 S    
N4    O12   1.301824 A    
C24   N2    1.504196 S    
