data_mof_unit_23024.cif
_audit_creation_date              2012-12-10T17:31:29-0500
_audit_creation_method            fapswitch 2.2
_symmetry_space_group_name_H-M    P1
_symmetry_Int_Tables_number       1
_space_group_crystal_system       triclinic
_cell_length_a                    19.18396
_cell_length_b                    18.509848
_cell_length_c                    12.317206
_cell_angle_alpha                 90.310588
_cell_angle_beta                  128.942828
_cell_angle_gamma                 89.760645
_cell_volume                      3401.73035376

loop_
_atom_site_label
_atom_site_type_symbol
_atom_type_description
_atom_site_fract_x
_atom_site_fract_y
_atom_site_fract_z
_atom_type_partial_charge
C1    C     C_R   0.607627 0.894712 0.646821 0.820484
C2    C     C_R   0.612752 0.101810 0.653757 0.802964
C3    C     C_R   0.107680 0.394738 0.646886 0.820232
C4    C     C_R   0.112754 0.601808 0.653760 0.802980
C5    C     C_R   0.234894 0.786988 0.021953 0.085468
C6    C     C_R   0.242348 0.224406 0.039689 0.092809
C7    C     C_R   0.734881 0.287010 0.021910 0.085486
C8    C     C_R   0.742343 0.724417 0.039675 0.092783
C9    C     C_R   0.657373 0.282738 0.011696 0.146877
C10   C     C_R   0.678836 0.746181 0.056825 0.159703
C11   C     C_R   0.157399 0.782694 0.011772 0.146885
C12   C     C_R   0.178784 0.246119 0.056744 0.159720
C13   C     C_R   0.581530 0.247874 0.897732 -0.211763
C14   C     C_R   0.605348 0.787088 0.954522 -0.178734
C15   C     C_R   0.081559 0.747820 0.897826 -0.211908
C16   C     C_R   0.105297 0.287013 0.954407 -0.178720
C17   C     C_R   0.585095 0.210028 0.803368 -0.174730
C18   C     C_R   0.594791 0.807794 0.837105 -0.143498
C19   C     C_R   0.085112 0.709999 0.803428 -0.174719
C20   C     C_R   0.094796 0.307757 0.837048 -0.143598
C21   C     C_R   0.311076 0.821060 0.138826 -0.238657
C22   C     C_R   0.314531 0.181690 0.144181 -0.235248
C23   C     C_R   0.811065 0.321072 0.138799 -0.238751
C24   C     C_R   0.814503 0.681663 0.144117 -0.235197
C25   C     C_R   0.231798 0.850768 0.226974 -0.169122
C26   C     C_R   0.255749 0.177100 0.269694 -0.146334
C27   C     C_R   0.731770 0.350803 0.226910 -0.169096
C28   C     C_R   0.755828 0.677177 0.269796 -0.146389
C29   C     C_R   0.675276 0.163030 0.735878 -0.197970
C30   C     C_R   0.660076 0.826744 0.717121 -0.193585
C31   C     C_R   0.175280 0.663026 0.735892 -0.197964
C32   C     C_R   0.160223 0.326813 0.717285 -0.193684
C33   C     C_R   0.683718 0.983206 0.287909 -0.144377
C34   C     C_R   0.183728 0.483266 0.287915 -0.144613
C35   C     C_R   0.344735 0.002298 0.628563 0.096164
C36   C     C_R   0.844734 0.502271 0.628561 0.096224
C37   C     C_R   0.311361 0.002724 0.701534 -0.170967
C38   C     C_R   0.811360 0.502691 0.701533 -0.170660
C39   C     C_R   0.386290 0.100277 0.345095 0.798726
C40   C     C_R   0.383811 0.901908 0.341276 0.806523
C41   C     C_R   0.886292 0.600279 0.345095 0.798742
C42   C     C_R   0.883807 0.401911 0.341269 0.806409
C43   C     C_R   0.369990 0.000656 0.847114 -0.105838
C44   C     C_R   0.869991 0.500647 0.847115 -0.106163
C45   C     C_R   0.463558 0.998340 0.922334 0.040710
C46   C     C_R   0.963559 0.498350 0.922335 0.040723
C47   C     C_R   0.494465 0.998046 0.842599 0.232890
C48   C     C_R   0.994466 0.498059 0.842599 0.232984
C49   C     C_R   0.527366 0.996475 0.072885 -0.028448
C50   C     C_R   0.027368 0.496490 0.072887 -0.028470
C51   C     C_R   0.620347 0.989561 0.140297 0.076671
C52   C     C_R   0.120353 0.489602 0.140300 0.076800
C53   C     C_R   0.648320 0.991972 0.059487 -0.222962
C54   C     C_R   0.148323 0.492013 0.059487 -0.222944
C55   C     C_R   0.587283 0.996888 0.915515 -0.182250
C56   C     C_R   0.087284 0.496908 0.915513 -0.182177
C57   C     C_R   0.503018 0.001773 0.160183 0.029783
C58   C     C_R   0.003018 0.501764 0.160183 0.029836
C59   C     C_R   0.654095 0.990366 0.365820 0.031067
C60   C     C_R   0.154102 0.490414 0.365824 0.030854
C61   C     C_R   0.656303 0.314555 0.114298 -0.156699
C62   C     C_R   0.686961 0.723672 0.172823 -0.136169
C63   C     C_R   0.156337 0.814503 0.114387 -0.156774
C64   C     C_R   0.186864 0.223574 0.172685 -0.136611
C65   C     C_R   0.309036 0.854896 0.238190 -0.050088
C66   C     C_R   0.318799 0.154909 0.253913 -0.064565
C67   C     C_R   0.809022 0.354911 0.238160 -0.050115
C68   C     C_R   0.818814 0.654924 0.253920 -0.064705
C69   C     C_R   0.747347 0.177401 0.733091 -0.097152
C70   C     C_R   0.712561 0.794768 0.683746 -0.082970
C71   C     C_R   0.247352 0.677402 0.733110 -0.097178
C72   C     C_R   0.212880 0.294941 0.684136 -0.082875
C73   C     C_R   0.304089 0.736887 0.807558 -0.016661
C74   C     C_R   0.272545 0.237932 0.766822 -0.027891
C75   C     C_R   0.804088 0.236885 0.807537 -0.016658
C76   C     C_R   0.772273 0.737790 0.766480 -0.027798
C77   C     C_R   0.299669 0.773191 0.902261 -0.246443
C78   C     C_R   0.284032 0.216907 0.885743 -0.245944
C79   C     C_R   0.799674 0.273191 0.902246 -0.246438
C80   C     C_R   0.783920 0.716861 0.885578 -0.245974
C81   C     C_R   0.734732 0.255529 0.916786 0.071058
C82   C     C_R   0.731448 0.745971 0.918927 0.065744
C83   C     C_R   0.234736 0.755518 0.916813 0.071065
C84   C     C_R   0.231504 0.245987 0.919002 0.065716
C85   C     C_R   0.664574 0.208161 0.818519 0.080642
C86   C     C_R   0.661943 0.794688 0.824125 0.073985
C87   C     C_R   0.164581 0.708148 0.818549 0.080686
C88   C     C_R   0.162006 0.294702 0.824176 0.074029
Cu1   Cu    Cu3+1 0.526340 0.000000 0.421010 0.984514
Cu2   Cu    Cu3+1 0.026340 0.500000 0.421010 0.984543
Cu3   Cu    Cu3+1 0.473640 0.000000 0.578990 0.929258
Cu4   Cu    Cu3+1 0.973640 0.500000 0.578990 0.929223
H1    H     H_    0.228796 0.877349 0.302514 0.159218
H2    H     H_    0.258559 0.157491 0.355034 0.196250
H3    H     H_    0.728764 0.377388 0.302442 0.159208
H4    H     H_    0.758673 0.657599 0.355185 0.196504
H5    H     H_    0.718545 0.992484 0.106747 0.189104
H6    H     H_    0.218548 0.492537 0.106745 0.189129
H7    H     H_    0.434196 0.007447 0.117712 0.122086
H8    H     H_    0.934193 0.507413 0.117712 0.122051
H9    H     H_    0.298664 0.003818 0.515724 0.130546
H10   H     H_    0.798662 0.503777 0.515721 0.130667
H11   H     H_    0.340242 0.000339 0.897724 0.121865
H12   H     H_    0.840242 0.500331 0.897724 0.121873
H13   H     H_    0.239723 0.004496 0.645022 0.147265
H14   H     H_    0.739722 0.504445 0.645020 0.147348
H15   H     H_    0.616658 0.999994 0.865781 0.216195
H16   H     H_    0.116657 0.500001 0.865776 0.216179
H17   H     H_    0.519748 0.249566 0.882770 0.192391
H18   H     H_    0.554669 0.801536 0.964003 0.163632
H19   H     H_    0.019789 0.749484 0.882902 0.192537
H20   H     H_    0.054585 0.301433 0.963827 0.163712
H21   H     H_    0.596819 0.312157 0.106418 0.155875
H22   H     H_    0.638166 0.739908 0.185688 0.144201
H23   H     H_    0.096863 0.812089 0.106532 0.155849
H24   H     H_    0.138024 0.239767 0.185475 0.144311
H25   H     H_    0.373447 0.821272 0.155391 0.164460
H26   H     H_    0.368467 0.168199 0.142486 0.160248
H27   H     H_    0.873442 0.321273 0.155379 0.164370
H28   H     H_    0.868382 0.668107 0.142325 0.160206
H29   H     H_    0.345513 0.817604 0.960067 0.162488
H30   H     H_    0.329827 0.172969 0.944849 0.171662
H31   H     H_    0.845523 0.317600 0.960058 0.162524
H32   H     H_    0.829767 0.672954 0.944715 0.171479
H33   H     H_    0.523476 0.185569 0.715564 0.186112
H34   H     H_    0.530580 0.830228 0.753711 0.182102
H35   H     H_    0.023489 0.685545 0.715624 0.185986
H36   H     H_    0.030586 0.330184 0.753625 0.182120
H37   H     H_    0.700676 0.985191 0.478118 0.209772
H38   H     H_    0.200685 0.485262 0.478123 0.209952
N1    N     N_R   0.566260 0.000000 0.302220 -0.194974
N2    N     N_R   0.066260 0.500000 0.302220 -0.194903
N3    N     N_R   0.434410 0.000000 0.697680 -0.227058
N4    N     N_R   0.934410 0.500000 0.697680 -0.227180
O1    O     O_R   0.608610 0.924520 0.551740 -0.556399
O2    O     O_R   0.608610 0.075480 0.551740 -0.559669
O3    O     O_R   0.108610 0.424520 0.551740 -0.556376
O4    O     O_R   0.108610 0.575480 0.551740 -0.559690
O5    O     O_R   0.564110 0.924510 0.685150 -0.615949
O6    O     O_R   0.564110 0.075490 0.685150 -0.607142
O7    O     O_R   0.064110 0.424510 0.685150 -0.615885
O8    O     O_R   0.064110 0.575490 0.685150 -0.607169
O9    O     O_R   0.435880 0.075470 0.314850 -0.589528
O10   O     O_R   0.435880 0.924530 0.314850 -0.578335
O11   O     O_R   0.935880 0.575470 0.314850 -0.589530
O12   O     O_R   0.935880 0.424530 0.314850 -0.578394
O13   O     O_R   0.391380 0.075460 0.448260 -0.590199
O14   O     O_R   0.391380 0.924540 0.448260 -0.595358
O15   O     O_R   0.891380 0.575460 0.448260 -0.590219
O16   O     O_R   0.891380 0.424540 0.448260 -0.595311
C89   C     C_2   0.779917 0.965662 0.364974 0.857895
O17   O     O_2   0.802414 0.922121 0.317080 -0.585694
O18   O     O_R   0.844606 0.996085 0.496760 -0.729361
H39   H     H_    0.907513 0.979041 0.540428 0.351655
C90   C     C_2   0.279934 0.465748 0.364988 0.857776
O19   O     O_2   0.302450 0.422211 0.317115 -0.585727
O20   O     O_R   0.344611 0.496190 0.496760 -0.729173
H40   H     H_    0.407524 0.479162 0.540436 0.351731
C91   C     C_2   0.763444 0.132492 0.651055 0.949363
O21   O     O_2   0.798053 0.072951 0.694115 -0.565128
O22   O     O_R   0.740451 0.159130 0.526271 -0.737741
H41   H     H_    0.756730 0.124531 0.481298 0.350139
C92   C     C_2   0.704884 0.818887 0.561962 0.929948
O23   O     O_2   0.769776 0.845218 0.579794 -0.575591
O24   O     O_R   0.623925 0.809910 0.427057 -0.748353
H42   H     H_    0.627100 0.827773 0.352590 0.319896
C93   C     C_2   0.263461 0.632492 0.651090 0.949304
O25   O     O_2   0.298015 0.572931 0.694113 -0.564990
O26   O     O_R   0.240546 0.659150 0.526370 -0.737763
H43   H     H_    0.256825 0.624545 0.481406 0.350204
C94   C     C_2   0.205494 0.319235 0.562705 0.930240
O27   O     O_2   0.270421 0.345853 0.581021 -0.575376
O28   O     O_R   0.124790 0.310065 0.427583 -0.748320
H44   H     H_    0.128178 0.328010 0.353386 0.319976
C95   C     C_2   0.366952 0.764664 0.785985 0.832660
O29   O     O_2   0.408253 0.723512 0.766641 -0.579590
O30   O     O_R   0.377547 0.839208 0.786036 -0.781066
H45   H     H_    0.415929 0.852798 0.759290 0.321693
C96   C     C_2   0.323946 0.197757 0.732267 0.837776
O31   O     O_2   0.295055 0.191770 0.611467 -0.603267
O32   O     O_R   0.404722 0.164359 0.838810 -0.793103
H46   H     H_    0.434099 0.140030 0.802889 0.329943
C97   C     C_2   0.866940 0.264659 0.785939 0.832554
O33   O     O_2   0.908221 0.223503 0.766559 -0.579656
O34   O     O_R   0.877543 0.339203 0.785996 -0.781042
H47   H     H_    0.915920 0.352789 0.759238 0.321701
C98   C     C_2   0.823519 0.697532 0.731738 0.838269
O35   O     O_2   0.794316 0.691257 0.610815 -0.603489
O36   O     O_R   0.904509 0.664391 0.838268 -0.793131
H48   H     H_    0.933779 0.640013 0.802211 0.329924

loop_
_geom_bond_atom_site_label_1
_geom_bond_atom_site_label_2
_ccdc_geom_bond_type
C26   H2    S    
C14   H18   S    
C83   C87   A    
C94   O27   D    
C25   H1    S    
O20   H40   S    
Cu1   O1    S    
C90   O20   S    
O26   H43   S    
C14   C18   A    
C27   H3    S    
C92   O23   D    
C3    O7    A    
C48   C56   A    
C75   C97   S    
C70   C92   S    
C35   N3    A    
C69   C91   S    
Cu3   O13   S    
O22   H41   S    
C44   H12   S    
C93   O26   S    
O24   H42   S    
O32   H46   S    
C15   C19   A    
C94   O28   S    
C59   N1    A    
C18   C86   A    
C2    C29   S    
C9    C61   A    
C48   N4    A    
C28   C68   A    
C62   H22   S    
Cu2   O11   S    
C19   C87   A    
C97   O34   S    
C6    C12   A    
C12   C64   A    
C41   O15   A    
C77   C83   A    
C21   H25   S    
C6    C22   A    
C49   C57   A    
C95   O30   S    
C41   O11   A    
C36   H10   S    
C25   C63   A    
C23   C67   A    
C9    C13   A    
C56   H16   S    
C13   H17   S    
C27   C61   A    
C30   C70   A    
C11   C15   A    
C22   C66   A    
C74   C96   S    
C12   C16   A    
C44   C46   A    
C49   C51   A    
C50   C52   A    
C89   O17   D    
C91   O22   S    
C3    O3    A    
C30   C86   A    
Cu4   O8    S    
C29   C85   A    
C1    O5    A    
C63   H23   S    
C53   C55   A    
C33   C59   A    
Cu1   O2    S    
C71   C93   S    
C47   N3    A    
C34   C60   A    
C60   N2    A    
C10   C62   A    
C34   C90   S    
C21   C65   A    
Cu3   O14   S    
Cu2   O4    S    
C52   C54   A    
C41   C68   S    
C29   C69   A    
C45   C47   A    
C54   C56   A    
C24   H28   S    
C6    C84   A    
C40   O14   A    
O28   H44   S    
C26   C66   A    
C72   C94   S    
C15   H19   S    
C31   C87   A    
C32   C72   A    
C10   C14   A    
C58   N2    A    
C93   O25   D    
C71   C73   A    
C77   H29   S    
C53   H5    S    
C37   H13   S    
C82   C86   A    
C79   H31   S    
C64   H24   S    
C2    O2    A    
Cu3   O6    S    
C55   H15   S    
C51   C53   A    
C50   C58   A    
C73   C95   S    
C97   O33   D    
C38   C44   A    
C42   O16   A    
Cu2   Cu4   S    
C91   O21   D    
Cu3   N3    S    
C45   C49   A    
C16   C20   A    
C4    O8    A    
C38   H14   S    
C58   H8    S    
Cu4   O7    S    
C43   C45   A    
C76   C98   S    
Cu3   O5    S    
C72   C74   A    
C7    C81   A    
C39   O9    A    
C40   C65   S    
C40   O10   A    
C5    C11   A    
Cu4   O16   S    
C42   C67   S    
C39   C66   S    
C17   C85   A    
C37   C43   A    
C32   C88   A    
Cu1   Cu3   S    
C70   C76   A    
C60   H38   S    
C42   O12   A    
C90   O19   D    
Cu2   O3    S    
C16   H20   S    
C47   C55   A    
C80   H32   S    
C92   O24   S    
O36   H48   S    
C7    C9    A    
C22   H26   S    
C59   H37   S    
C33   C89   S    
C35   C37   A    
C34   C52   A    
C57   N1    A    
Cu4   N4    S    
C76   C80   A    
C35   H9    S    
C36   N4    A    
C5    C83   A    
C20   H36   S    
C26   C64   A    
C33   C51   A    
Cu1   O10   S    
C46   C50   A    
C79   C81   A    
Cu1   N1    S    
C13   C17   A    
C28   H4    S    
C2    O6    A    
C36   C38   A    
Cu2   N2    S    
C98   O35   D    
Cu2   O12   S    
C95   O29   D    
Cu1   O9    S    
C18   H34   S    
C61   H21   S    
C17   H33   S    
O34   H47   S    
C84   C88   A    
C7    C23   A    
C20   C88   A    
C19   H35   S    
C1    C30   S    
C8    C24   A    
C80   C82   A    
C69   C75   A    
C89   O18   S    
C3    C32   S    
C78   H30   S    
C43   H11   S    
C98   O36   S    
C4    C31   S    
C27   C67   A    
C24   C68   A    
C4    O4    A    
C96   O31   D    
C46   C48   A    
C78   C84   A    
C8    C82   A    
C5    C21   A    
C8    C10   A    
O30   H45   S    
C74   C78   A    
C39   O13   A    
Cu4   O15   S    
C25   C65   A    
C73   C77   A    
C54   H6    S    
C23   H27   S    
O18   H39   S    
C1    O1    A    
C11   C63   A    
C75   C79   A    
C81   C85   A    
C28   C62   A    
C31   C71   A    
C96   O32   S    
C57   H7    S    
