data_mof_unit_43807.cif
_audit_creation_date              2012-12-11T15:48:56-0500
_audit_creation_method            fapswitch 2.2
_symmetry_space_group_name_H-M    P1
_symmetry_Int_Tables_number       1
_space_group_crystal_system       triclinic
_cell_length_a                    11.011757
_cell_length_b                    10.946643
_cell_length_c                    18.740855
_cell_angle_alpha                 90.128534
_cell_angle_beta                  89.837329
_cell_angle_gamma                 60.334223
_cell_volume                      1962.93011096

loop_
_atom_site_label
_atom_site_type_symbol
_atom_type_description
_atom_site_fract_x
_atom_site_fract_y
_atom_site_fract_z
_atom_type_partial_charge
C1    C     C_R   0.237040 0.645480 0.610117 0.528613
C2    C     C_R   0.532304 0.250987 0.725974 -0.119545
C3    C     C_R   0.546524 0.245463 0.799916 -0.114961
C4    C     C_R   0.629960 0.590073 0.608796 0.551155
C5    C     C_3   0.932205 0.030130 0.779187 -0.247144
C6    C     C_3   0.915800 0.042612 0.698658 -0.275268
C7    C     C_R   0.649111 0.202625 0.680603 0.010611
C8    C     C_R   0.192951 0.660284 0.837409 -0.005447
C9    C     C_R   0.211951 0.541630 0.798822 0.001284
C10   C     C_R   0.216080 0.540190 0.724727 0.015042
C11   C     C_R   0.200754 0.765514 0.725364 -0.173795
C12   C     C_3   0.751161 0.507648 0.800929 -0.282551
C13   C     C_R   0.208452 0.761273 0.799573 -0.165935
C14   C     C_3   0.145923 0.451017 0.801195 -0.280495
C15   C     C_3   0.144152 0.454982 0.719872 -0.285903
C16   C     C_R   0.624568 0.233876 0.604668 0.532863
C17   C     C_R   0.199718 0.656874 0.686043 -0.004240
C18   C     C_R   0.647597 0.668780 0.166132 0.015730
C19   C     C_R   0.716897 0.537160 0.199083 0.019988
C20   C     C_R   0.717582 0.527451 0.272094 0.043502
C21   C     C_R   0.559147 0.775429 0.283171 -0.174142
C22   C     C_R   0.558805 0.786808 0.208531 -0.164878
C23   C     C_3   0.686714 0.667899 0.815606 0.042412
C24   C     C_3   0.864590 0.417812 0.193898 -0.269702
C25   C     C_3   0.865511 0.411557 0.274440 -0.268057
C26   C     C_R   0.647618 0.645879 0.315725 0.020178
C27   C     C_R   0.666323 0.129007 0.181371 0.022841
C28   C     C_R   0.218385 0.651344 0.402877 0.549265
C29   C     C_R   0.560964 0.122285 0.218857 0.027060
C30   C     C_R   0.554417 0.133792 0.291753 0.023684
C31   C     C_R   0.777542 0.124613 0.294002 -0.158871
C32   C     C_R   0.781433 0.117886 0.219761 -0.149597
C33   C     C_3   0.406915 0.208021 0.209535 -0.282227
C34   C     C_3   0.649630 0.622198 0.682817 0.006306
C35   C     C_3   0.398098 0.222660 0.289803 -0.266882
C36   C     C_R   0.655552 0.150317 0.329485 0.021150
C37   C     C_R   0.111360 0.693541 0.190380 0.021444
C38   C     C_R   0.100561 0.808006 0.228483 0.042422
C39   C     C_R   0.111555 0.805546 0.300835 0.025000
C40   C     C_R   0.641233 0.621809 0.391517 0.552008
C41   C     C_R   0.120205 0.580732 0.302752 -0.169857
C42   C     C_R   0.109161 0.584189 0.228270 -0.168688
C43   C     C_3   0.176488 0.887757 0.217620 -0.273908
C44   C     C_3   0.188668 0.887158 0.297648 -0.269590
C45   C     C_3   0.723153 0.711178 0.685818 -0.225607
C46   C     C_R   0.138263 0.684172 0.338069 0.019891
C47   C     C_R   0.700827 0.105596 0.897412 0.538425
C48   C     C_R   0.719997 0.686148 0.889747 0.539171
C49   C     C_R   0.120071 0.704515 0.906231 0.538664
C50   C     C_R   0.678087 0.100516 0.105877 0.536648
C51   C     C_R   0.695098 0.689637 0.097067 0.546014
C52   C     C_R   0.618085 0.225512 0.396477 0.550534
C53   C     C_R   0.086449 0.712976 0.114740 0.546563
C54   C     C_3   0.525394 0.739966 0.799244 0.150311
C55   C     C_3   0.507542 0.703058 0.721555 -0.203883
C56   C     C_3   0.736180 0.482077 0.722398 -0.255481
C57   C     C_3   0.757464 0.725647 0.763809 -0.216336
C58   C     C_R   0.679925 0.180670 0.830191 0.006674
C59   C     C_R   0.791965 0.155258 0.785609 -0.009129
C60   C     C_R   0.776747 0.166340 0.711978 -0.006866
Cr1   Cr    Cr6+3 0.392960 0.397920 0.502240 1.009181
Cr2   Cr    Cr6+3 0.398340 0.708480 0.501250 1.010922
Cr3   Cr    Cr6+3 0.708670 0.393570 0.496460 1.007251
Cr4   Cr    Cr6+3 0.937650 0.938540 0.007610 1.022504
Cr5   Cr    Cr6+3 0.625330 0.937370 0.994520 1.100243
Cr6   Cr    Cr6+3 0.937940 0.625230 0.001190 1.005017
H1    H     H_    0.841553 0.417977 0.697826 0.155972
H2    H     H_    0.201123 0.852500 0.698606 0.193514
H3    H     H_    0.480853 0.691600 0.835429 0.098453
H4    H     H_    0.207302 0.848147 0.827367 0.215627
H5    H     H_    0.042332 0.501846 0.826841 0.174500
H6    H     H_    0.217861 0.344640 0.822437 0.150920
H7    H     H_    0.208678 0.349935 0.695113 0.149923
H8    H     H_    0.038680 0.514554 0.696484 0.129178
H9    H     H_    0.495398 0.868183 0.315183 0.123915
H10   H     H_    0.499811 0.889930 0.184970 0.140451
H11   H     H_    0.940911 0.446883 0.173251 0.164759
H12   H     H_    0.871358 0.667429 0.770675 0.098116
H13   H     H_    0.870503 0.323696 0.168004 0.128601
H14   H     H_    0.876200 0.312737 0.295470 0.141482
H15   H     H_    0.461715 0.632945 0.722571 0.087310
H16   H     H_    0.935996 0.444851 0.299359 0.136450
H17   H     H_    0.863218 0.122933 0.322814 0.118564
H18   H     H_    0.872545 0.107411 0.192532 0.131545
H19   H     H_    0.360410 0.145436 0.188507 0.135655
H20   H     H_    0.374969 0.308665 0.181319 0.140210
H21   H     H_    0.361916 0.332066 0.307349 0.170908
H22   H     H_    0.344753 0.170265 0.315341 0.129109
H23   H     H_    0.820132 0.662369 0.653045 0.126399
H24   H     H_    0.130421 0.490275 0.331257 0.119808
H25   H     H_    0.107495 0.498552 0.200545 0.118775
H26   H     H_    0.110011 0.994473 0.195474 0.133514
H27   H     H_    0.437376 0.798585 0.690803 0.210453
H28   H     H_    0.278496 0.824171 0.189941 0.146312
H29   H     H_    0.298960 0.826311 0.314898 0.175606
H30   H     H_    0.127975 0.993524 0.321966 0.122897
H31   H     H_    0.729804 0.835335 0.775622 0.179163
H32   H     H_    0.653509 0.817460 0.663403 0.161016
H33   H     H_    0.864173 0.447636 0.814059 0.151179
H34   H     H_    0.430207 0.289029 0.704076 0.157770
H35   H     H_    0.698125 0.464153 0.834610 0.116742
H36   H     H_    0.678777 0.423738 0.718798 0.128245
H37   H     H_    0.226967 0.103411 0.775901 0.357085
H38   H     H_    0.455404 0.273785 0.832703 0.157688
H39   H     H_    0.933694 0.934876 0.800703 0.157429
H40   H     H_    0.012804 0.053791 0.799683 0.167453
H41   H     H_    0.987743 0.072564 0.672266 0.153181
H42   H     H_    0.909501 0.953920 0.673320 0.136992
O1    O     O_R   0.507380 0.255700 0.581440 -0.520200
O2    O     O_R   0.837170 0.593410 0.915250 -0.550932
O3    O     O_R   0.065200 0.635530 0.931570 -0.505652
O4    O     O_R   0.280320 0.527350 0.578930 -0.500042
O5    O     O_R   0.068260 0.828890 0.091840 -0.517655
O6    O     O_R   0.798870 0.057410 0.079340 -0.517087
O7    O     O_R   0.584930 0.080350 0.076780 -0.518783
O8    O     O_R   0.626960 0.809650 0.067060 -0.502987
O9    O     O_R   0.816040 0.596610 0.076510 -0.527282
O10   O     O_R   0.045610 0.638500 0.081060 -0.509675
O11   O     O_3   0.833640 0.833710 0.001100 -0.266823
O12   O     O_R   0.524480 0.695810 0.424040 -0.504865
O13   O     O_R   0.260510 0.739590 0.584590 -0.535083
O14   O     O_R   0.532300 0.695080 0.573820 -0.506215
O15   O     O_R   0.744840 0.503500 0.576370 -0.520505
O16   O     O_R   0.699120 0.276560 0.571960 -0.512648
O17   O     O_R   0.498940 0.256500 0.419860 -0.522578
O18   O     O_R   0.272500 0.528080 0.429150 -0.509681
O19   O     O_R   0.252060 0.740380 0.423010 -0.524605
O20   O     O_2   0.370869 0.956206 0.890596 -0.288888
O21   O     O_2   0.501735 0.002892 0.799389 -0.296680
O22   O     O_3   0.278863 0.003105 0.761531 -0.610968
O23   O     O_R   0.736390 0.504290 0.414790 -0.514063
O24   O     O_R   0.691300 0.277290 0.422170 -0.505730
O25   O     O_3   0.499990 0.499990 0.499980 -0.267829
O26   O     O_R   0.089400 0.825690 0.930570 -0.514116
O27   O     O_R   0.818460 0.054440 0.929850 -0.510442
O28   O     O_R   0.606060 0.077150 0.915510 -0.458064
O29   O     O_R   0.646550 0.806680 0.917570 -0.419835
S1    S     S_3+6 0.420365 0.929586 0.814345 -0.044539

loop_
_geom_bond_atom_site_label_1
_geom_bond_atom_site_label_2
_ccdc_geom_bond_type
C3    H38   S    
C48   O2    A    
C49   O26   A    
C34   C56   S    
C8    C13   A    
C47   O28   A    
C27   C29   A    
C25   H14   S    
C14   H5    S    
C2    C7    A    
C22   H10   S    
C55   H27   S    
Cr1   O1    S    
Cr3   O16   S    
Cr1   O25   S    
C5    H39   S    
C12   C23   S    
C45   C57   S    
C29   C30   A    
Cr4   O11   S    
C48   O29   A    
Cr3   O25   S    
Cr2   O25   S    
C50   O7    A    
C45   H32   S    
C31   C36   A    
C1    O4    A    
C5    C6    S    
C13   H4    S    
C10   C17   A    
C29   C33   S    
C43   H28   S    
C31   H17   S    
C42   H25   S    
C41   C42   A    
C37   C42   A    
C33   H19   S    
C12   H33   S    
O20   S1    D    
C33   C35   S    
C35   H21   S    
O21   S1    D    
C19   C20   A    
C28   O18   A    
C8    C9    A    
Cr6   O9    S    
C18   C51   S    
C6    H41   S    
Cr1   O18   S    
C23   C48   S    
Cr3   O23   S    
Cr6   O3    S    
C55   H15   S    
C45   H23   S    
C9    C10   A    
Cr2   O12   S    
C36   C52   S    
C27   C50   S    
C49   O3    A    
Cr5   O29   S    
C41   H24   S    
Cr4   O27   S    
C2    H34   S    
C34   C55   S    
C21   C22   A    
C33   H20   S    
Cr5   O7    S    
C21   C26   A    
C53   O5    A    
C16   O1    A    
C4    C34   S    
C5    H40   S    
C38   C39   A    
C32   H18   S    
Cr4   O26   S    
Cr4   O6    S    
C5    C59   S    
C52   O24   A    
C6    C60   S    
C20   C25   S    
C24   C25   S    
C53   O10   A    
C18   C19   A    
C58   C59   A    
C4    O15   A    
C10   C15   S    
C50   O6    A    
C9    C14   S    
C59   C60   A    
C37   C38   A    
C44   H30   S    
C35   H22   S    
C24   H13   S    
C31   C32   A    
C41   C46   A    
C57   H31   S    
Cr5   O11   S    
C4    O14   A    
C34   C45   S    
Cr3   O24   S    
Cr6   O2    S    
C12   C56   S    
C39   C46   A    
C30   C35   S    
C7    C16   S    
C15   H7    S    
C40   O23   A    
C54   S1    S    
Cr6   O11   S    
C43   C44   S    
C25   H16   S    
Cr5   O8    S    
O22   S1    S    
C7    C60   A    
Cr2   O14   S    
C11   H2    S    
C23   C54   S    
C23   C57   S    
C54   C55   S    
C11   C17   A    
Cr4   O5    S    
C40   O12   A    
C27   C32   A    
C18   C22   A    
C14   H6    S    
C57   H12   S    
C51   O8    A    
Cr3   O15   S    
C52   O17   A    
C28   O19   A    
C39   C44   S    
C56   H1    S    
C21   H9    S    
C1    C17   S    
C43   H26   S    
C30   C36   A    
C28   C46   S    
C2    C3    A    
C16   O16   A    
C37   C53   S    
C12   H35   S    
C44   H29   S    
C47   C58   S    
C11   C13   A    
C26   C40   S    
Cr2   O19   S    
C54   H3    S    
C20   C26   A    
C51   O9    A    
C19   C24   S    
C47   O27   A    
H37   O22   S    
C1    O13   A    
Cr5   O28   S    
C56   H36   S    
C3    C58   A    
C24   H11   S    
C38   C43   S    
C15   H8    S    
Cr6   O10   S    
C6    H42   S    
C14   C15   S    
Cr1   O17   S    
Cr1   O4    S    
C8    C49   S    
Cr2   O13   S    
