data_mof_unit_37054.cif
_audit_creation_date              2012-12-10T19:06:27-0500
_audit_creation_method            fapswitch 2.2
_symmetry_space_group_name_H-M    P1
_symmetry_Int_Tables_number       1
_space_group_crystal_system       triclinic
_cell_length_a                    23.499873
_cell_length_b                    10.845725
_cell_length_c                    9.565648
_cell_angle_alpha                 90.231297
_cell_angle_beta                  90.464513
_cell_angle_gamma                 91.17047
_cell_volume                      2437.41658556

loop_
_atom_site_label
_atom_site_type_symbol
_atom_type_description
_atom_site_fract_x
_atom_site_fract_y
_atom_site_fract_z
_atom_type_partial_charge
C1    C     C_R   0.502419 0.262519 0.499186 0.795973
C2    C     C_R   0.968343 0.273441 0.522452 -0.160448
C3    C     C_R   0.027714 0.273579 0.521414 -0.158292
C4    C     C_R   0.058938 0.384911 0.510232 -0.016786
C5    C     C_R   0.029911 0.496950 0.500000 -0.017703
C6    C     C_R   0.060797 0.609096 0.488283 -0.015617
C7    C     C_R   0.031424 0.720317 0.478610 -0.158227
C8    C     C_R   0.972059 0.720244 0.480561 -0.161431
C9    C     C_R   0.118646 0.387373 0.508966 0.539948
C10   C     C_R   0.120466 0.606882 0.487015 0.536578
C11   C     C_R   0.238608 0.515613 0.372955 -0.090168
C12   C     C_R   0.390945 0.499596 0.499567 0.798317
C13   C     C_R   0.297963 0.515995 0.373229 -0.185140
C14   C     C_R   0.328289 0.498811 0.498712 -0.058818
C15   C     C_R   0.298168 0.480846 0.623651 -0.204680
C16   C     C_R   0.238838 0.479872 0.622915 -0.094932
C17   C     C_R   0.208937 0.497446 0.497717 0.347512
C18   C     C_R   0.760375 0.453893 0.386125 -0.102897
C19   C     C_R   0.701081 0.454436 0.385192 -0.235511
C20   C     C_R   0.671511 0.497556 0.502031 -0.028679
C21   C     C_R   0.702215 0.538712 0.620495 -0.217110
C22   C     C_R   0.761564 0.538608 0.621035 -0.104888
C23   C     C_R   0.500242 0.737593 0.500431 0.809701
C24   C     C_R   0.790786 0.496364 0.503788 0.359497
C25   C     C_R   0.500074 0.064721 0.621778 0.094492
C26   C     C_R   0.509367 0.129504 0.497645 -0.120639
C27   C     C_R   0.526013 0.062184 0.376531 0.145380
C28   C     C_R   0.522096 0.933336 0.380299 -0.257862
C29   C     C_R   0.505485 0.870812 0.501463 -0.123666
C30   C     C_R   0.498765 0.937879 0.624261 0.112644
C31   C     C_3   0.451377 0.933686 0.727448 -0.448244
C32   C     C_3   0.452991 0.073694 0.725103 -0.439991
C33   C     C_R   0.545835 0.546962 0.074073 0.196034
C34   C     C_R   0.608989 0.499227 0.500546 0.778542
C35   C     C_R   0.458485 0.437680 0.071288 0.048509
C36   C     C_R   0.458725 0.439688 0.922635 -0.052691
C37   C     C_R   0.545153 0.547765 0.927188 0.217045
C38   C     C_3   0.568914 0.675049 0.918397 -0.528397
C39   C     C_3   0.571513 0.675446 0.078072 -0.091839
C40   C     C_R   0.881126 0.606496 0.493570 0.532134
C41   C     C_R   0.879299 0.386826 0.513513 0.533626
C42   C     C_R   0.938968 0.384651 0.512583 -0.015101
C43   C     C_R   0.969858 0.496844 0.501534 -0.017402
C44   C     C_R   0.940835 0.608926 0.491963 -0.013802
Cu1   Cu    Cu3+1 0.500000 0.499980 0.640670 0.943798
Cu2   Cu    Cu3+1 0.500000 0.500020 0.359330 0.928206
H1    H     H_    0.945586 0.185982 0.531075 0.189938
H2    H     H_    0.678439 0.419835 0.293783 0.146077
H3    H     H_    0.680424 0.572120 0.711973 0.144545
H4    H     H_    0.784903 0.571168 0.712482 0.139262
H5    H     H_    0.530860 0.881870 0.286927 0.155014
H6    H     H_    0.411401 0.892520 0.683043 0.207272
H7    H     H_    0.464852 0.895272 0.829710 0.191660
H8    H     H_    0.413896 0.114092 0.679581 0.203196
H9    H     H_    0.467725 0.115637 0.825649 0.199478
H10   H     H_    0.049018 0.186230 0.529316 0.190092
H11   H     H_    0.425669 0.391584 0.863321 0.176103
H12   H     H_    0.610539 0.677023 0.864220 0.184475
H13   H     H_    0.537688 0.740877 0.875845 0.201233
H14   H     H_    0.542310 0.743416 0.123313 0.177944
H15   H     H_    0.054179 0.807749 0.469647 0.191293
H16   H     H_    0.950759 0.807619 0.472982 0.189091
H17   H     H_    0.215604 0.529221 0.275878 0.146494
H18   H     H_    0.320028 0.530521 0.275555 0.184768
H19   H     H_    0.320374 0.467021 0.721826 0.173892
H20   H     H_    0.216019 0.465906 0.719651 0.147375
H21   H     H_    0.782772 0.420694 0.295394 0.140194
N1    N     N_R   0.851768 0.496591 0.504039 -0.471168
N2    N     N_R   0.147979 0.497195 0.497506 -0.472112
N3    N     N_R   0.500360 0.500930 0.147930 -0.234146
N4    N     N_R   0.500360 0.500890 0.852020 -0.201511
O1    O     O_R   0.500000 0.319640 0.618810 -0.574695
O2    O     O_2   0.848982 0.280338 0.524510 -0.531488
O3    O     O_2   0.147222 0.281028 0.518493 -0.521560
O4    O     O_2   0.150810 0.713362 0.476367 -0.525134
O5    O     O_R   0.500010 0.319680 0.381230 -0.611051
O6    O     O_R   0.417880 0.499940 0.618820 -0.583556
O7    O     O_R   0.417880 0.499980 0.381240 -0.598054
O8    O     O_R   0.499990 0.680320 0.618770 -0.573145
O9    O     O_R   0.500000 0.680360 0.381190 -0.583369
O10   O     O_R   0.582120 0.500020 0.618760 -0.575491
O11   O     O_R   0.582120 0.500060 0.381180 -0.580264
O12   O     O_2   0.852571 0.712845 0.483647 -0.535544
C45   C     C_3   0.547437 0.120355 0.241879 -0.378181
C46   C     C_3   0.605663 0.183002 0.263197 -0.778582
H22   H     H_    0.618887 0.229324 0.165024 0.228496
H23   H     H_    0.604651 0.252848 0.347867 0.253386
H24   H     H_    0.637768 0.113215 0.290901 0.247144
H25   H     H_    0.552501 0.049249 0.159035 0.182796
H26   H     H_    0.516219 0.184693 0.197165 0.210224
C47   C     C_2   0.412829 0.363112 0.137893 0.342269
H27   H     H_    0.418963 0.319935 0.237761 0.133505
O13   O     O_2   0.367106 0.345786 0.078628 -0.576241
C48   C     C_3   0.633432 0.681120 0.135289 -0.339890
C49   C     C_3   0.639726 0.762506 0.265095 -0.799049
H28   H     H_    0.631268 0.859914 0.237994 0.241627
H29   H     H_    0.610137 0.731769 0.347930 0.259556
H30   H     H_    0.683896 0.757395 0.306512 0.255575
H31   H     H_    0.648404 0.587314 0.159774 0.207608
H32   H     H_    0.663026 0.719979 0.056024 0.205673

loop_
_geom_bond_atom_site_label_1
_geom_bond_atom_site_label_2
_ccdc_geom_bond_type
C9    O3    S    
C17   N2    S    
Cu1   N4    S    
C41   C42   A    
C49   H28   S    
C31   H6    S    
C21   H3    S    
C49   H30   S    
C7    C8    A    
C46   H22   S    
C26   C27   A    
C29   C30   A    
C18   C24   A    
C23   C29   S    
C28   C29   A    
C9    N2    A    
C11   H17   S    
C5    C6    A    
C28   H5    S    
C15   C16   A    
C15   H19   S    
C18   C19   A    
C10   O4    S    
C7    H15   S    
C38   H12   S    
C11   C17   A    
C19   C20   A    
C35   N3    A    
C16   C17   A    
C12   O7    A    
C34   O10   A    
C23   O9    A    
C32   H9    S    
C36   N4    A    
C22   H4    S    
C20   C34   S    
C25   C32   S    
C45   H25   S    
C5    C43   A    
Cu2   O11   S    
C21   C22   A    
Cu1   O1    S    
C40   O12   S    
C45   H26   S    
C32   H8    S    
C41   N1    A    
C46   H23   S    
C38   C39   S    
C1    O1    A    
C45   C46   S    
C36   H11   S    
C47   H27   S    
Cu2   O7    S    
C19   H2    S    
C18   H21   S    
Cu1   Cu2   S    
C33   C37   A    
C35   C36   A    
C43   C44   A    
C39   C48   S    
C37   C38   S    
C47   O13   D    
C3    H10   S    
C31   C32   S    
C48   H32   S    
C12   O6    A    
Cu1   O8    S    
C33   C39   S    
C31   H7    S    
C33   N3    A    
C12   C14   S    
C37   N4    A    
C1    C26   S    
C22   C24   A    
C16   H20   S    
C42   C43   A    
C3    C4    A    
C46   H24   S    
C25   C30   A    
C27   C45   S    
C1    O5    A    
Cu1   O10   S    
C8    C44   A    
C4    C5    A    
C6    C10   A    
C49   H29   S    
C6    C7    A    
C2    H1    S    
Cu2   O5    S    
C2    C3    A    
C25   C26   A    
Cu2   O9    S    
C11   C13   A    
C30   C31   S    
C13   H18   S    
C48   H31   S    
C2    C42   A    
C39   H14   S    
C48   C49   S    
Cu2   N3    S    
C24   N1    S    
C41   O2    S    
C38   H13   S    
C10   N2    A    
C40   C44   A    
C20   C21   A    
C40   N1    A    
C27   C28   A    
C14   C15   A    
Cu1   O6    S    
C34   O11   A    
C23   O8    A    
C4    C9    A    
C13   C14   A    
C8    H16   S    
C35   C47   S    
