data_mof_unit_65251.cif
_audit_creation_date              2012-12-10T16:54:04-0500
_audit_creation_method            fapswitch 2.2
_symmetry_space_group_name_H-M    P1
_symmetry_Int_Tables_number       1
_space_group_crystal_system       orthorhombic
_cell_length_a                    18.515095
_cell_length_b                    18.515092
_cell_length_c                    42.991366
_cell_angle_alpha                 90.0
_cell_angle_beta                  90.0
_cell_angle_gamma                 90.0
_cell_volume                      14737.8137443

loop_
_atom_site_label
_atom_site_type_symbol
_atom_type_description
_atom_site_fract_x
_atom_site_fract_y
_atom_site_fract_z
_atom_type_partial_charge
C1    C     C_R   0.500000 1.000000 0.584222 0.782327
C2    C     C_R   1.000000 0.500000 0.584222 0.782327
C3    C     C_R   1.000000 0.500000 0.084222 0.782327
C4    C     C_R   0.500000 1.000000 0.084222 0.782327
C5    C     C_R   0.000000 0.500000 0.718412 0.289128
C6    C     C_R   0.500000 0.000000 0.718412 0.289128
C7    C     C_R   0.500000 0.000000 0.218412 0.289128
C8    C     C_R   0.000000 0.500000 0.218412 0.289129
C9    C     C_R   0.500000 1.000000 0.281585 0.288531
C10   C     C_R   0.000000 0.500000 0.281585 0.288531
C11   C     C_R   1.000000 0.500000 0.781585 0.288531
C12   C     C_R   0.500000 0.000000 0.781585 0.288531
C13   C     C_R   0.934582 0.499748 0.667481 -0.167098
C14   C     C_R   0.500251 0.934582 0.667481 -0.167098
C15   C     C_R   0.065418 0.500252 0.667481 -0.167098
C16   C     C_R   0.499748 0.065417 0.667481 -0.167097
C17   C     C_R   0.434582 0.999748 0.167481 -0.167098
C18   C     C_R   0.000251 0.434582 0.167481 -0.167098
C19   C     C_R   0.565418 0.000251 0.167481 -0.167098
C20   C     C_R   0.999748 0.565418 0.167481 -0.167097
C21   C     C_R   0.934592 0.499756 0.635038 -0.190190
C22   C     C_R   0.500244 0.934592 0.635038 -0.190191
C23   C     C_R   0.065408 0.500244 0.635038 -0.190191
C24   C     C_R   0.499756 0.065408 0.635038 -0.190191
C25   C     C_R   0.434592 0.999756 0.135038 -0.190190
C26   C     C_R   0.000244 0.434592 0.135038 -0.190191
C27   C     C_R   0.565408 0.000244 0.135038 -0.190191
C28   C     C_R   0.999756 0.565408 0.135038 -0.190191
C29   C     C_R   1.000000 0.500000 0.618510 -0.003836
C30   C     C_R   0.500000 0.000000 0.618510 -0.003836
C31   C     C_R   0.500000 1.000000 0.118510 -0.003836
C32   C     C_R   1.000000 0.500000 0.118510 -0.003836
C33   C     C_R   0.000000 0.500000 0.684056 0.082970
C34   C     C_R   0.500000 1.000000 0.684056 0.082969
C35   C     C_R   0.500000 1.000000 0.184056 0.082970
C36   C     C_R   0.000000 0.500000 0.184056 0.082969
C37   C     C_R   0.500000 1.000000 0.415761 0.769281
C38   C     C_R   1.000000 0.500000 0.415761 0.769281
C39   C     C_R   1.000000 0.500000 0.915761 0.769281
C40   C     C_R   0.500000 0.000000 0.915761 0.769281
C41   C     C_R   0.361067 0.138434 0.500063 0.923531
C42   C     C_R   0.861565 0.361067 0.500063 0.923532
C43   C     C_R   0.638933 0.861565 0.500063 0.923531
C44   C     C_R   0.138434 0.638933 0.500063 0.923531
C45   C     C_R   0.638899 0.138540 0.500022 0.920893
C46   C     C_R   0.138540 0.361101 0.500022 0.920893
C47   C     C_R   0.361101 0.861460 0.500022 0.920893
C48   C     C_R   0.861460 0.638898 0.500022 0.920893
C49   C     C_R   0.861066 0.638435 0.000063 0.923531
C50   C     C_R   0.361565 0.861066 0.000063 0.923531
C51   C     C_R   0.138933 0.361565 0.000063 0.923531
C52   C     C_R   0.638435 0.138933 0.000063 0.923531
C53   C     C_R   0.138899 0.638540 0.000022 0.920893
C54   C     C_R   0.638540 0.861101 0.000022 0.920893
C55   C     C_R   0.861101 0.361460 0.000022 0.920893
C56   C     C_R   0.361460 0.138899 0.000022 0.920893
C57   C     C_2   0.185825 0.758562 0.486642 0.432792
C58   C     C_2   0.241438 0.185825 0.486642 0.432792
C59   C     C_2   0.814175 0.241438 0.486642 0.432792
C60   C     C_2   0.758562 0.814175 0.486642 0.432792
C61   C     C_2   0.805457 0.750497 0.480606 0.432041
C62   C     C_2   0.750497 0.194543 0.480606 0.432040
C63   C     C_2   0.194543 0.249503 0.480606 0.432040
C64   C     C_2   0.249503 0.805457 0.480606 0.432040
C65   C     C_2   0.685825 0.258562 0.986642 0.432791
C66   C     C_2   0.741438 0.685825 0.986642 0.432792
C67   C     C_2   0.314175 0.741438 0.986642 0.432792
C68   C     C_2   0.258562 0.314175 0.986642 0.432792
C69   C     C_2   0.305457 0.250497 0.980606 0.432040
C70   C     C_2   0.250497 0.694542 0.980606 0.432041
C71   C     C_2   0.694543 0.749503 0.980606 0.432040
C72   C     C_2   0.749503 0.305457 0.980606 0.432041
C73   C     C_2   0.196425 0.691749 0.498146 -0.478513
C74   C     C_2   0.308251 0.196425 0.498146 -0.478513
C75   C     C_2   0.803574 0.308251 0.498146 -0.478512
C76   C     C_2   0.691749 0.803574 0.498146 -0.478513
C77   C     C_2   0.809968 0.698133 0.502273 -0.479710
C78   C     C_2   0.698133 0.190032 0.502273 -0.479709
C79   C     C_2   0.190032 0.301867 0.502273 -0.479709
C80   C     C_2   0.301867 0.809968 0.502273 -0.479710
C81   C     C_2   0.696425 0.191749 0.998146 -0.478513
C82   C     C_2   0.808251 0.696425 0.998146 -0.478513
C83   C     C_2   0.303575 0.808251 0.998146 -0.478513
C84   C     C_2   0.191749 0.303574 0.998146 -0.478512
C85   C     C_2   0.309968 0.198133 0.002273 -0.479709
C86   C     C_2   0.198133 0.690032 0.002273 -0.479711
C87   C     C_2   0.690032 0.801867 0.002273 -0.479709
C88   C     C_2   0.801867 0.309968 0.002273 -0.479710
C89   C     C_R   0.434594 0.999050 0.364957 -0.191693
C90   C     C_R   0.000950 0.434594 0.364957 -0.191693
C91   C     C_R   0.565406 0.000950 0.364957 -0.191693
C92   C     C_R   0.999050 0.565406 0.364957 -0.191694
C93   C     C_R   0.934594 0.499049 0.864957 -0.191693
C94   C     C_R   0.500950 0.934594 0.864957 -0.191693
C95   C     C_R   0.065406 0.500950 0.864957 -0.191694
C96   C     C_R   0.499049 0.065406 0.864957 -0.191693
C97   C     C_R   0.434585 0.999051 0.332515 -0.170979
C98   C     C_R   0.000949 0.434585 0.332515 -0.170980
C99   C     C_R   0.565415 0.000949 0.332515 -0.170979
C100  C     C_R   0.999051 0.565415 0.332515 -0.170979
C101  C     C_R   0.934585 0.499051 0.832515 -0.170979
C102  C     C_R   0.500949 0.934585 0.832515 -0.170980
C103  C     C_R   0.065415 0.500949 0.832515 -0.170979
C104  C     C_R   0.499051 0.065415 0.832515 -0.170979
C105  C     C_R   0.500000 0.000000 0.315941 0.084970
C106  C     C_R   0.000000 0.500000 0.315941 0.084970
C107  C     C_R   1.000000 0.500000 0.815940 0.084970
C108  C     C_R   0.500000 0.000000 0.815940 0.084970
C109  C     C_R   0.500000 0.000000 0.381481 -0.000629
C110  C     C_R   0.000000 0.500000 0.381481 -0.000629
C111  C     C_R   1.000000 0.500000 0.881481 -0.000629
C112  C     C_R   0.500000 0.000000 0.881481 -0.000629
H1    H     H_    0.249844 0.673825 0.505167 0.118474
H2    H     H_    0.326175 0.249844 0.505167 0.118474
H3    H     H_    0.750155 0.326175 0.505167 0.118474
H4    H     H_    0.673825 0.750155 0.505167 0.118474
H5    H     H_    0.776955 0.700140 0.523140 0.121286
H6    H     H_    0.700140 0.223045 0.523140 0.121286
H7    H     H_    0.223045 0.299860 0.523140 0.121286
H8    H     H_    0.299860 0.776955 0.523140 0.121286
H9    H     H_    0.749845 0.173825 0.005167 0.118474
H10   H     H_    0.826175 0.749845 0.005167 0.118474
H11   H     H_    0.250155 0.826175 0.005167 0.118474
H12   H     H_    0.173825 0.250155 0.005167 0.118474
H13   H     H_    0.276955 0.200140 0.023140 0.121286
H14   H     H_    0.200140 0.723045 0.023140 0.121286
H15   H     H_    0.723045 0.799859 0.023140 0.121286
H16   H     H_    0.799860 0.276955 0.023140 0.121286
H17   H     H_    0.383315 0.998268 0.377075 0.166767
H18   H     H_    0.001732 0.383315 0.377075 0.166766
H19   H     H_    0.616685 0.001732 0.377075 0.166766
H20   H     H_    0.998268 0.616685 0.377075 0.166766
H21   H     H_    0.883315 0.498268 0.877075 0.166766
H22   H     H_    0.501732 0.883315 0.877075 0.166767
H23   H     H_    0.116684 0.501732 0.877075 0.166766
H24   H     H_    0.498268 0.116684 0.877075 0.166766
H25   H     H_    0.383236 0.998289 0.320469 0.151146
H26   H     H_    0.001711 0.383236 0.320469 0.151146
H27   H     H_    0.616764 0.001711 0.320469 0.151146
H28   H     H_    0.998289 0.616764 0.320469 0.151146
H29   H     H_    0.883236 0.498289 0.820469 0.151146
H30   H     H_    0.501711 0.883236 0.820469 0.151146
H31   H     H_    0.116764 0.501711 0.820469 0.151146
H32   H     H_    0.498289 0.116764 0.820469 0.151146
H33   H     H_    0.883228 0.499558 0.679528 0.151481
H34   H     H_    0.500442 0.883228 0.679528 0.151481
H35   H     H_    0.116772 0.500442 0.679528 0.151481
H36   H     H_    0.499558 0.116772 0.679528 0.151481
H37   H     H_    0.383228 0.999558 0.179528 0.151481
H38   H     H_    0.000442 0.383228 0.179528 0.151481
H39   H     H_    0.616772 0.000442 0.179528 0.151481
H40   H     H_    0.999558 0.616772 0.179528 0.151481
H41   H     H_    0.883308 0.499562 0.622924 0.163160
H42   H     H_    0.500437 0.883308 0.622924 0.163160
H43   H     H_    0.116692 0.500437 0.622924 0.163160
H44   H     H_    0.499562 0.116692 0.622924 0.163160
H45   H     H_    0.383308 0.999562 0.122924 0.163160
H46   H     H_    0.000438 0.383308 0.122924 0.163160
H47   H     H_    0.616692 0.000438 0.122924 0.163160
H48   H     H_    0.999562 0.616692 0.122924 0.163160
N1    N     N_R   0.563056 0.000581 0.265473 -0.179057
N2    N     N_R   0.999419 0.563056 0.265473 -0.179057
N3    N     N_R   0.436944 0.999419 0.265473 -0.179057
N4    N     N_R   0.000581 0.436944 0.265473 -0.179057
N5    N     N_R   0.063056 0.500581 0.765473 -0.179057
N6    N     N_R   0.499419 0.063055 0.765473 -0.179057
N7    N     N_R   0.936944 0.499419 0.765473 -0.179057
N8    N     N_R   0.500581 0.936944 0.765473 -0.179057
N9    N     N_R   0.063056 0.500578 0.734524 -0.178754
N10   N     N_R   0.499422 0.063055 0.734524 -0.178754
N11   N     N_R   0.936944 0.499422 0.734524 -0.178754
N12   N     N_R   0.500578 0.936944 0.734524 -0.178754
N13   N     N_R   0.563056 0.000578 0.234524 -0.178754
N14   N     N_R   0.999422 0.563056 0.234524 -0.178754
N15   N     N_R   0.436944 0.999422 0.234524 -0.178754
N16   N     N_R   0.000578 0.436944 0.234524 -0.178754
O1    O     O_3   0.500000 1.000000 0.500000 -0.509193
O2    O     O_3   0.000000 0.500000 0.500000 -0.509193
O3    O     O_3   0.000000 0.500000 0.000000 -0.509193
O4    O     O_3   0.500000 0.000000 0.000000 -0.509193
O5    O     O_R   0.500000 0.939850 0.569320 -0.645408
O6    O     O_R   0.060150 0.500000 0.569320 -0.645408
O7    O     O_R   0.500000 0.060150 0.569320 -0.645408
O8    O     O_R   0.939850 0.500000 0.569320 -0.645408
O9    O     O_R   1.000000 0.439850 0.069320 -0.645408
O10   O     O_R   0.560150 1.000000 0.069320 -0.645408
O11   O     O_R   1.000000 0.560150 0.069320 -0.645408
O12   O     O_R   0.439850 1.000000 0.069320 -0.645408
O13   O     O_R   0.439930 1.000000 0.430670 -0.642857
O14   O     O_R   1.000000 0.439930 0.430670 -0.642857
O15   O     O_R   0.560070 1.000000 0.430670 -0.642857
O16   O     O_R   1.000000 0.560070 0.430670 -0.642857
O17   O     O_R   0.939930 0.500000 0.930670 -0.642857
O18   O     O_R   0.500000 0.939930 0.930670 -0.642857
O19   O     O_R   0.060070 0.500000 0.930670 -0.642857
O20   O     O_R   0.500000 0.060070 0.930670 -0.642857
O21   O     O_R   0.415450 0.144560 0.518170 -0.657899
O22   O     O_R   0.855440 0.415450 0.518170 -0.657899
O23   O     O_R   0.584550 0.855440 0.518170 -0.657899
O24   O     O_R   0.144560 0.584550 0.518170 -0.657899
O25   O     O_R   0.584550 0.144560 0.518170 -0.659317
O26   O     O_R   0.144560 0.415450 0.518170 -0.659317
O27   O     O_R   0.415450 0.855440 0.518170 -0.659317
O28   O     O_R   0.855440 0.584550 0.518170 -0.659317
O29   O     O_R   0.915450 0.644560 0.018170 -0.657899
O30   O     O_R   0.355440 0.915450 0.018170 -0.657899
O31   O     O_R   0.084550 0.355440 0.018170 -0.657899
O32   O     O_R   0.644560 0.084550 0.018170 -0.657899
O33   O     O_R   0.084550 0.644560 0.018170 -0.659317
O34   O     O_R   0.644560 0.915450 0.018170 -0.659317
O35   O     O_R   0.915450 0.355440 0.018170 -0.659317
O36   O     O_R   0.355440 0.084550 0.018170 -0.659317
O37   O     O_R   0.644640 0.915430 0.481820 -0.580665
O38   O     O_R   0.084570 0.644640 0.481820 -0.580665
O39   O     O_R   0.355360 0.084570 0.481820 -0.580665
O40   O     O_R   0.915430 0.355360 0.481820 -0.580665
O41   O     O_R   0.355360 0.915430 0.481820 -0.571711
O42   O     O_R   0.915430 0.644640 0.481820 -0.571711
O43   O     O_R   0.644640 0.084570 0.481820 -0.571711
O44   O     O_R   0.084570 0.355360 0.481820 -0.571711
O45   O     O_R   0.144640 0.415430 0.981820 -0.580665
O46   O     O_R   0.584570 0.144640 0.981820 -0.580665
O47   O     O_R   0.855360 0.584570 0.981820 -0.580665
O48   O     O_R   0.415430 0.855360 0.981820 -0.580665
O49   O     O_R   0.855360 0.415430 0.981820 -0.571711
O50   O     O_R   0.415430 0.144640 0.981820 -0.571711
O51   O     O_R   0.144640 0.584570 0.981820 -0.571711
O52   O     O_R   0.584570 0.855360 0.981820 -0.571711
Zn1   Zn    Zn3+2 0.414160 1.000000 0.474030 1.013013
Zn2   Zn    Zn3+2 1.000000 0.414160 0.474030 1.013012
Zn3   Zn    Zn3+2 0.585840 1.000000 0.474030 1.013013
Zn4   Zn    Zn3+2 1.000000 0.585840 0.474030 1.013012
Zn5   Zn    Zn3+2 0.914160 0.500000 0.974030 1.013013
Zn6   Zn    Zn3+2 0.500000 0.914160 0.974030 1.013013
Zn7   Zn    Zn3+2 0.085840 0.500000 0.974030 1.013013
Zn8   Zn    Zn3+2 0.500000 0.085840 0.974030 1.013013
Zn9   Zn    Zn3+2 0.500000 0.085780 0.525960 0.955313
Zn10  Zn    Zn3+2 0.914220 0.500000 0.525960 0.955313
Zn11  Zn    Zn3+2 0.500000 0.914220 0.525960 0.955313
Zn12  Zn    Zn3+2 0.085780 0.500000 0.525960 0.955313
Zn13  Zn    Zn3+2 0.000000 0.585780 0.025960 0.955313
Zn14  Zn    Zn3+2 0.414220 1.000000 0.025960 0.955313
Zn15  Zn    Zn3+2 1.000000 0.414220 0.025960 0.955313
Zn16  Zn    Zn3+2 0.585780 1.000000 0.025960 0.955313
O53   O     O_3   0.116811 0.780014 0.477647 -0.565871
C113  C     C_3   0.101524 0.849864 0.489018 -0.278753
H49   H     H_    0.128700 0.891810 0.474746 0.200957
H50   H     H_    0.116378 0.855810 0.514006 0.133813
H51   H     H_    0.042504 0.859251 0.487149 0.175284
O54   O     O_3   0.219986 0.116811 0.477647 -0.565871
C114  C     C_3   0.150136 0.101524 0.489018 -0.278751
H52   H     H_    0.108190 0.128700 0.474746 0.200957
H53   H     H_    0.144190 0.116378 0.514006 0.133813
H54   H     H_    0.140749 0.042504 0.487149 0.175283
O55   O     O_3   0.883189 0.219986 0.477647 -0.565871
C115  C     C_3   0.898475 0.150135 0.489018 -0.278753
H55   H     H_    0.871300 0.108190 0.474746 0.200957
H56   H     H_    0.883622 0.144189 0.514006 0.133814
H57   H     H_    0.957496 0.140749 0.487149 0.175283
O56   O     O_3   0.780014 0.883189 0.477647 -0.565871
C116  C     C_3   0.849864 0.898475 0.489018 -0.278751
H58   H     H_    0.891810 0.871300 0.474746 0.200957
H59   H     H_    0.855810 0.883622 0.514006 0.133813
H60   H     H_    0.859251 0.957496 0.487149 0.175283
O57   O     O_3   0.849343 0.747911 0.454336 -0.568031
C117  C     C_3   0.808135 0.760842 0.427297 -0.263060
H61   H     H_    0.795746 0.819217 0.424724 0.201193
H62   H     H_    0.757536 0.728259 0.426936 0.134714
H63   H     H_    0.840618 0.744564 0.406780 0.181933
O58   O     O_3   0.747911 0.150657 0.454336 -0.568031
C118  C     C_3   0.760842 0.191865 0.427297 -0.263060
H64   H     H_    0.819217 0.204254 0.424724 0.201193
H65   H     H_    0.728259 0.242464 0.426936 0.134714
H66   H     H_    0.744564 0.159383 0.406780 0.181933
O59   O     O_3   0.150657 0.252088 0.454336 -0.568031
C119  C     C_3   0.191865 0.239157 0.427297 -0.263059
H67   H     H_    0.204254 0.180783 0.424724 0.201193
H68   H     H_    0.242464 0.271741 0.426936 0.134714
H69   H     H_    0.159383 0.255436 0.406780 0.181933
O60   O     O_3   0.252088 0.849343 0.454336 -0.568031
C120  C     C_3   0.239158 0.808135 0.427297 -0.263060
H70   H     H_    0.180783 0.795746 0.424724 0.201193
H71   H     H_    0.271741 0.757536 0.426936 0.134714
H72   H     H_    0.255436 0.840617 0.406780 0.181933
O61   O     O_3   0.616811 0.280014 0.977647 -0.565871
C121  C     C_3   0.601524 0.349864 0.989018 -0.278751
H73   H     H_    0.628700 0.391810 0.974746 0.200956
H74   H     H_    0.616378 0.355810 0.014006 0.133813
H75   H     H_    0.542504 0.359251 0.987149 0.175283
O62   O     O_3   0.719985 0.616811 0.977647 -0.565871
C122  C     C_3   0.650136 0.601524 0.989018 -0.278752
H76   H     H_    0.608190 0.628700 0.974746 0.200957
H77   H     H_    0.644190 0.616378 0.014006 0.133814
H78   H     H_    0.640749 0.542504 0.987149 0.175284
O63   O     O_3   0.383189 0.719985 0.977647 -0.565871
C123  C     C_3   0.398475 0.650135 0.989018 -0.278754
H79   H     H_    0.371300 0.608190 0.974746 0.200957
H80   H     H_    0.383622 0.644190 0.014006 0.133814
H81   H     H_    0.457496 0.640749 0.987149 0.175284
O64   O     O_3   0.280014 0.383189 0.977647 -0.565871
C124  C     C_3   0.349864 0.398475 0.989018 -0.278751
H82   H     H_    0.391810 0.371300 0.974746 0.200957
H83   H     H_    0.355810 0.383622 0.014006 0.133813
H84   H     H_    0.359251 0.457496 0.987149 0.175283
O65   O     O_3   0.349343 0.247911 0.954336 -0.568031
C125  C     C_3   0.308135 0.260842 0.927296 -0.263060
H85   H     H_    0.295746 0.319217 0.924724 0.201193
H86   H     H_    0.257535 0.228259 0.926936 0.134714
H87   H     H_    0.340617 0.244564 0.906780 0.181933
O66   O     O_3   0.247912 0.650657 0.954336 -0.568031
C126  C     C_3   0.260842 0.691865 0.927296 -0.263059
H88   H     H_    0.319217 0.704254 0.924724 0.201193
H89   H     H_    0.228259 0.742464 0.926936 0.134714
H90   H     H_    0.244564 0.659382 0.906780 0.181933
O67   O     O_3   0.650657 0.752088 0.954336 -0.568031
C127  C     C_3   0.691865 0.739158 0.927296 -0.263059
H91   H     H_    0.704254 0.680783 0.924724 0.201193
H92   H     H_    0.742464 0.771741 0.926936 0.134714
H93   H     H_    0.659382 0.755436 0.906780 0.181933
O68   O     O_3   0.752088 0.349343 0.954336 -0.568031
C128  C     C_3   0.739158 0.308135 0.927296 -0.263060
H94   H     H_    0.680783 0.295746 0.924724 0.201193
H95   H     H_    0.771741 0.257536 0.926936 0.134714
H96   H     H_    0.755436 0.340618 0.906780 0.181933

loop_
_geom_bond_atom_site_label_1
_geom_bond_atom_site_label_2
_ccdc_geom_bond_type
C101  C107  A    
C52   O46   A    
C23   H43   S    
C122  H76   S    
O2    Zn10  S    
O3    Zn5   S    
C124  H82   S    
C120  H72   S    
C47   O41   A    
C50   O48   A    
C42   C75   S    
C98   H26   S    
C2    C29   S    
C44   O38   A    
C46   C79   S    
C91   H19   S    
C118  H64   S    
C74   H2    S    
C115  H57   S    
C89   H17   S    
C65   O61   S    
C4    O10   A    
C55   C88   S    
O47   Zn5   S    
C41   C74   S    
O21   Zn9   S    
C38   O14   A    
C45   C78   S    
C37   C109  S    
C97   C105  A    
C39   C111  S    
O4    Zn6   S    
C10   N2    A    
O53   C113  S    
C11   N7    A    
O18   Zn6   S    
O8    Zn10  S    
C50   C83   S    
N5    N9    A    
C59   O55   S    
C28   C32   A    
C93   C101  A    
C12   C108  S    
C1    O5    A    
N7    N11   A    
C20   C28   A    
C21   C29   A    
C60   C76   D    
C81   H9    S    
C127  H91   S    
O14   Zn2   S    
C49   C82   S    
O2    Zn4   S    
C66   C82   D    
O46   Zn8   S    
C125  H85   S    
C13   C21   A    
C94   H22   S    
C62   O58   S    
O3    Zn7   S    
C123  H79   S    
C96   C104  A    
C75   H3    S    
O64   C124  S    
O1    Zn9   S    
C124  H84   S    
C121  H75   S    
C3    O11   A    
C100  C106  A    
C98   C106  A    
C17   C25   A    
C4    O12   A    
C19   C35   A    
C53   O51   A    
C121  H74   S    
C60   O56   S    
C51   O45   A    
C26   H46   S    
O4    Zn8   S    
O15   Zn3   S    
C128  H94   S    
C11   N5    A    
C21   H41   S    
C103  C107  A    
C18   H38   S    
C82   H10   S    
O3    Zn15  S    
C24   H44   S    
C25   C31   A    
C67   C83   D    
C86   H14   S    
C13   H33   S    
N3    N15   A    
C1    O7    A    
C40   C112  S    
C6    N12   A    
C39   O17   A    
C127  H93   S    
C23   C29   A    
C92   H20   S    
O2    Zn2   S    
C93   H21   S    
O26   Zn12  S    
C116  H58   S    
C41   O39   A    
C8    N14   A    
C9    C105  S    
C28   H48   S    
O50   Zn8   S    
C57   C73   D    
C16   C34   A    
C72   O68   S    
C123  H81   S    
C61   C77   D    
C115  H56   S    
C19   H39   S    
O27   Zn11  S    
O37   Zn3   S    
O1    Zn11  S    
C99   H27   S    
C44   C73   S    
C47   C80   S    
O29   Zn13  S    
C3    O9    A    
C97   H25   S    
C95   C103  A    
O1    Zn1   S    
C46   O44   A    
O60   C120  S    
C41   O21   A    
O33   Zn13  S    
C114  H54   S    
C122  H77   S    
C90   H18   S    
C48   C77   S    
C46   O26   A    
C128  H96   S    
C9    N1    A    
O42   Zn4   S    
O3    Zn13  S    
C117  H62   S    
C50   O30   A    
C44   O24   A    
C126  H89   S    
C10   C106  S    
C69   C85   D    
C58   C74   D    
C6    N10   A    
C113  H49   S    
C22   C30   A    
C62   C78   D    
O43   Zn3   S    
O56   C116  S    
O28   Zn10  S    
O23   Zn11  S    
C14   C34   A    
C116  H60   S    
C8    N16   A    
N6    N10   A    
C120  H71   S    
C65   C72   S    
C48   O28   A    
C67   C70   S    
C69   O65   S    
C14   C22   A    
C25   H45   S    
C92   C110  A    
C64   O60   S    
C94   C112  A    
C52   C81   S    
C54   O34   A    
C119  H67   S    
C102  H30   S    
C91   C99   A    
O45   Zn7   S    
C113  H51   S    
C70   C86   D    
C118  H66   S    
O12   Zn14  S    
O59   C119  S    
C18   C26   A    
O38   Zn4   S    
O2    Zn12  S    
C114  H52   S    
C96   H24   S    
C48   O42   A    
C26   C32   A    
C22   H42   S    
C73   H1    S    
C127  H92   S    
O62   C122  S    
C8    C36   S    
C9    N3    A    
O48   Zn6   S    
O22   Zn10  S    
C68   C69   S    
C79   H7    S    
C125  H86   S    
C38   C110  S    
O5    Zn11  S    
C123  H80   S    
O67   C127  S    
C52   O32   A    
C49   O47   A    
C64   C80   D    
O19   Zn7   S    
C7    C35   S    
O17   Zn5   S    
C124  H83   S    
C125  H87   S    
C68   C84   D    
O35   Zn15  S    
O63   C123  S    
C63   C79   D    
O20   Zn8   S    
O54   C114  S    
C27   C31   A    
C117  H63   S    
C6    C34   S    
C60   C61   S    
O13   Zn1   S    
O24   Zn12  S    
C12   N8    A    
O61   C121  S    
C68   O64   S    
C65   C81   D    
C66   C71   S    
C119  H69   S    
C42   O22   A    
C47   O27   A    
C2    O8    A    
C54   O52   A    
C93   C111  A    
C71   C87   D    
C49   O29   A    
C104  C108  A    
C43   C76   S    
O16   Zn4   S    
O66   C126  S    
C78   H6    S    
O32   Zn16  S    
O4    Zn14  S    
O44   Zn2   S    
O49   Zn5   S    
C15   H35   S    
C55   O49   A    
C56   C85   S    
C54   C87   S    
C39   O19   A    
C1    C30   S    
N4    N16   A    
C51   O31   A    
C3    C32   S    
C4    C31   S    
C42   O40   A    
C20   C36   A    
C20   H40   S    
N8    N12   A    
C53   O33   A    
O65   C125  S    
C67   O63   S    
C5    N9    A    
O58   C118  S    
C17   C35   A    
C83   H11   S    
C18   C36   A    
C51   C84   S    
C70   O66   S    
C37   O13   A    
C126  H88   S    
C80   H8    S    
C85   H13   S    
O11   Zn13  S    
C87   H15   S    
O6    Zn12  S    
O9    Zn15  S    
C40   O18   A    
C13   C33   A    
C96   C112  A    
C56   O36   A    
C77   H5    S    
C12   N6    A    
C121  H73   S    
C114  H53   S    
C89   C109  A    
N1    N13   A    
C2    O6    A    
O36   Zn14  S    
C100  H28   S    
O41   Zn1   S    
C101  H29   S    
C5    C33   S    
C128  H95   S    
C7    N15   A    
O40   Zn2   S    
C104  H32   S    
C102  C108  A    
C53   C86   S    
C19   C27   A    
O57   C117  S    
O52   Zn6   S    
C15   C23   A    
C16   C24   A    
O30   Zn14  S    
C72   C88   D    
O4    Zn16  S    
C99   C105  A    
C113  H50   S    
C122  H78   S    
C57   O53   S    
C116  H59   S    
C120  H70   S    
C89   C97   A    
O31   Zn15  S    
C115  H55   S    
C95   H23   S    
C5    N11   A    
C61   O57   S    
C37   O15   A    
C119  H68   S    
C38   O16   A    
C11   C107  S    
C45   O43   A    
C58   O54   S    
C90   C110  A    
O55   C115  S    
C43   O37   A    
C59   C75   D    
C92   C100  A    
C57   C64   S    
C40   O20   A    
C63   O59   S    
C58   C63   S    
C118  H65   S    
C59   C62   S    
C10   N4    A    
O39   Zn1   S    
C103  H31   S    
C17   H37   S    
O1    Zn3   S    
O25   Zn9   S    
N2    N14   A    
C84   H12   S    
O51   Zn7   S    
C14   H34   S    
C56   O50   A    
C16   H36   S    
O68   C128  S    
C91   C109  A    
O34   Zn16  S    
C88   H16   S    
C95   C111  A    
O7    Zn9   S    
O10   Zn16  S    
C7    N13   A    
C76   H4    S    
C15   C33   A    
C24   C30   A    
C117  H61   S    
C27   H47   S    
C55   O35   A    
C66   O62   S    
C45   O25   A    
C126  H90   S    
C43   O23   A    
C90   C98   A    
C94   C102  A    
C71   O67   S    
