data_mof_unit_63659.cif
_audit_creation_date              2012-12-10T17:08:47-0500
_audit_creation_method            fapswitch 2.2
_symmetry_space_group_name_H-M    P1
_symmetry_Int_Tables_number       1
_space_group_crystal_system       monoclinic
_cell_length_a                    37.075995
_cell_length_b                    30.205401
_cell_length_c                    21.587207
_cell_angle_alpha                 90.0
_cell_angle_beta                  54.608158
_cell_angle_gamma                 90.0
_cell_volume                      19708.0437509

loop_
_atom_site_label
_atom_site_type_symbol
_atom_type_description
_atom_site_fract_x
_atom_site_fract_y
_atom_site_fract_z
_atom_type_partial_charge
C1    C     C_R   0.914378 0.499925 0.586868 0.816823
C2    C     C_R   0.085622 0.499925 0.413132 0.816823
C3    C     C_R   0.414378 0.999925 0.586868 0.816823
C4    C     C_R   0.585622 0.999925 0.413132 0.816823
C5    C     C_3   0.976553 0.458120 0.235347 -0.429484
C6    C     C_3   0.023447 0.458120 0.764653 -0.429486
C7    C     C_3   0.476553 0.958120 0.235347 -0.429486
C8    C     C_3   0.523447 0.958120 0.764653 -0.429485
C9    C     C_R   0.656090 0.468416 0.883133 0.364190
C10   C     C_R   0.343910 0.468416 0.116867 0.364191
C11   C     C_R   0.156090 0.968415 0.883131 0.364183
C12   C     C_R   0.843910 0.968415 0.116869 0.364183
C13   C     C_R   0.633723 0.498303 0.866756 -0.088179
C14   C     C_R   0.366277 0.498303 0.133244 -0.088179
C15   C     C_R   0.133723 0.998303 0.866756 -0.088176
C16   C     C_R   0.866277 0.998303 0.133244 -0.088176
C17   C     C_R   0.656964 0.526578 0.804185 -0.322658
C18   C     C_R   0.343036 0.526578 0.195814 -0.322658
C19   C     C_R   0.156964 0.026579 0.804187 -0.322655
C20   C     C_R   0.843036 0.026579 0.195813 -0.322656
C21   C     C_R   0.703322 0.527019 0.757802 0.059005
C22   C     C_R   0.296678 0.527019 0.242198 0.059005
C23   C     C_R   0.203322 0.027020 0.757803 0.059005
C24   C     C_R   0.796678 0.027020 0.242197 0.059005
C25   C     C_R   0.726375 0.498173 0.775401 0.012389
C26   C     C_R   0.273625 0.498173 0.224599 0.012389
C27   C     C_R   0.226375 0.998173 0.775401 0.012388
C28   C     C_R   0.773625 0.998173 0.224599 0.012388
C29   C     C_R   0.702829 0.469004 0.838421 0.013088
C30   C     C_R   0.297171 0.469003 0.161579 0.013087
C31   C     C_R   0.202829 0.969002 0.838419 0.013090
C32   C     C_R   0.797171 0.969003 0.161581 0.013090
C33   C     C_R   0.727268 0.555977 0.694891 -0.007367
C34   C     C_R   0.272732 0.555977 0.305108 -0.007367
C35   C     C_R   0.227268 0.055978 0.694894 -0.007368
C36   C     C_R   0.772732 0.055978 0.305106 -0.007367
C37   C     C_R   0.773431 0.556157 0.650641 -0.239279
C38   C     C_R   0.226569 0.556157 0.349359 -0.239279
C39   C     C_R   0.273431 0.056159 0.650644 -0.239278
C40   C     C_R   0.726569 0.056159 0.349356 -0.239279
C41   C     C_R   0.796410 0.527897 0.667754 0.084300
C42   C     C_R   0.203590 0.527897 0.332246 0.084300
C43   C     C_R   0.296410 0.027897 0.667755 0.084300
C44   C     C_R   0.703590 0.027897 0.332245 0.084300
C45   C     C_R   0.998804 0.499837 0.381053 0.794234
C46   C     C_R   0.001195 0.499837 0.618947 0.794234
C47   C     C_R   0.498805 0.999837 0.381053 0.794234
C48   C     C_R   0.501195 0.999837 0.618947 0.794233
C49   C     C_R   0.773091 0.498695 0.730138 0.074914
C50   C     C_R   0.226909 0.498695 0.269862 0.074914
C51   C     C_R   0.273091 0.998694 0.730138 0.074913
C52   C     C_R   0.726909 0.998694 0.269862 0.074913
C53   C     C_R   0.796449 0.470163 0.747382 0.070943
C54   C     C_R   0.203551 0.470163 0.252617 0.070943
C55   C     C_R   0.296449 0.970162 0.747382 0.070943
C56   C     C_R   0.703551 0.970162 0.252618 0.070943
C57   C     C_R   0.772456 0.442394 0.811304 -0.195186
C58   C     C_R   0.227543 0.442394 0.188695 -0.195187
C59   C     C_R   0.272456 0.942392 0.811302 -0.195187
C60   C     C_R   0.727543 0.942392 0.188698 -0.195188
C61   C     C_R   0.726514 0.442157 0.856410 -0.202353
C62   C     C_R   0.273486 0.442156 0.143590 -0.202353
C63   C     C_R   0.226514 0.942155 0.856408 -0.202351
C64   C     C_R   0.773486 0.942155 0.143592 -0.202352
C65   C     C_R   0.842540 0.528402 0.622778 -0.231880
C66   C     C_R   0.157460 0.528402 0.377222 -0.231880
C67   C     C_R   0.342540 0.028403 0.622779 -0.231879
C68   C     C_R   0.657460 0.028403 0.377221 -0.231880
C69   C     C_R   0.865970 0.499539 0.637972 -0.113974
C70   C     C_R   0.134030 0.499539 0.362028 -0.113974
C71   C     C_R   0.365970 0.999539 0.637973 -0.113975
C72   C     C_R   0.634030 0.999539 0.362027 -0.113975
C73   C     C_R   0.843157 0.470356 0.700607 -0.082087
C74   C     C_R   0.156843 0.470356 0.299393 -0.082087
C75   C     C_R   0.343156 0.970355 0.700607 -0.082086
C76   C     C_R   0.656843 0.970355 0.299393 -0.082086
C77   C     C_R   0.000000 0.585669 0.000000 0.806882
C78   C     C_R   0.500000 0.085669 0.000000 0.806885
C79   C     C_R   0.000058 0.500723 0.119958 0.772459
C80   C     C_R   0.999941 0.500723 0.880042 0.772459
C81   C     C_R   0.500059 0.000723 0.119958 0.772460
C82   C     C_R   0.499941 0.000723 0.880042 0.772460
C83   C     C_R   1.000000 0.414488 1.000000 0.783796
C84   C     C_R   0.500000 0.914489 0.000000 0.783797
C85   C     C_3   0.971436 0.539634 0.313611 0.251059
C86   C     C_3   0.028564 0.539634 0.686389 0.251059
C87   C     C_3   0.471436 0.039634 0.313611 0.251057
C88   C     C_3   0.528564 0.039634 0.686389 0.251058
C89   C     C_R   0.500000 0.414558 0.000000 0.983890
C90   C     C_R   0.000000 0.914558 0.000000 0.983872
C91   C     C_R   0.585471 0.499563 0.914570 0.874330
C92   C     C_R   0.414529 0.499563 0.085430 0.874329
C93   C     C_R   0.085471 0.999563 0.914570 0.874323
C94   C     C_R   0.914529 0.999563 0.085430 0.874322
C95   C     C_R   0.500000 0.585560 0.000000 0.781709
C96   C     C_R   1.000000 0.085560 1.000000 0.781709
C97   C     C_R   0.538614 0.343804 0.944398 0.274978
C98   C     C_R   0.461386 0.343804 0.055602 0.274978
C99   C     C_R   0.038610 0.843804 0.944383 0.274986
C100  C     C_R   0.961390 0.843804 0.055617 0.274985
C101  C     C_R   0.500000 0.366377 0.000000 -0.128492
C102  C     C_R   1.000000 0.866377 0.000000 -0.128503
C103  C     C_R   0.461641 0.297056 0.057607 0.009694
C104  C     C_R   0.538359 0.297056 0.942393 0.009694
C105  C     C_R   0.961646 0.797056 0.057621 0.009692
C106  C     C_R   0.038354 0.797056 0.942379 0.009692
C107  C     C_R   0.500000 0.273835 0.000000 -0.037068
C108  C     C_R   1.000000 0.773835 0.000000 -0.037070
C109  C     C_R   0.424974 0.272920 0.116223 -0.173564
C110  C     C_R   0.575026 0.272920 0.883777 -0.173564
C111  C     C_R   0.924983 0.772919 0.116250 -0.173563
C112  C     C_R   0.075017 0.772919 0.883750 -0.173563
C113  C     C_R   0.925320 0.726826 0.116042 -0.208400
C114  C     C_R   0.074680 0.726826 0.883958 -0.208402
C115  C     C_R   0.425311 0.226827 0.116016 -0.208403
C116  C     C_R   0.574689 0.226827 0.883984 -0.208403
C117  C     C_R   0.962376 0.703698 0.058001 0.108848
C118  C     C_R   0.037624 0.703698 0.941999 0.108849
C119  C     C_R   0.462371 0.203699 0.057988 0.108846
C120  C     C_R   0.537629 0.203699 0.942012 0.108846
C121  C     C_3   0.973649 0.541190 0.239610 -0.442631
C122  C     C_3   0.026351 0.541190 0.760390 -0.442632
C123  C     C_3   0.473649 0.041190 0.239610 -0.442627
C124  C     C_3   0.526351 0.041190 0.760390 -0.442628
C125  C     C_R   0.000000 0.727106 0.000000 0.113953
C126  C     C_R   0.500000 0.227106 0.000000 0.113955
C127  C     C_R   0.962517 0.657439 0.057434 -0.248176
C128  C     C_R   0.037483 0.657439 0.942566 -0.248176
C129  C     C_R   0.462512 0.157439 0.057422 -0.248176
C130  C     C_R   0.537488 0.157439 0.942578 -0.248176
C131  C     C_R   0.000000 0.634197 0.000000 -0.073227
C132  C     C_R   0.500000 0.134197 0.000000 -0.073236
C133  C     C_R   0.516184 0.657113 0.035388 -0.234274
C134  C     C_R   0.483816 0.657113 0.964612 -0.234273
C135  C     C_R   0.016182 0.157113 0.035390 -0.234272
C136  C     C_R   0.983818 0.157113 0.964610 -0.234272
C137  C     C_R   0.500000 0.633956 0.000000 -0.061402
C138  C     C_R   1.000000 0.133956 1.000000 -0.061403
C139  C     C_R   0.483361 0.703322 0.964959 0.114266
C140  C     C_R   0.516639 0.703322 0.035041 0.114267
C141  C     C_R   0.983363 0.203322 0.964956 0.114266
C142  C     C_R   0.016637 0.203322 0.035044 0.114266
C143  C     C_R   0.500000 0.726683 0.000000 0.112138
C144  C     C_R   0.000000 0.226683 1.000000 0.112138
C145  C     C_R   0.466471 0.726480 0.930941 -0.242173
C146  C     C_R   0.533529 0.726480 0.069059 -0.242172
C147  C     C_R   0.966474 0.226480 0.930935 -0.242173
C148  C     C_R   0.033526 0.226480 0.069064 -0.242174
C149  C     C_R   0.965968 0.272568 0.931552 -0.115402
C150  C     C_R   0.034032 0.272568 0.068447 -0.115402
C151  C     C_R   0.465965 0.772568 0.931558 -0.115402
C152  C     C_R   0.534035 0.772568 0.068442 -0.115403
C153  C     C_R   0.982646 0.296497 0.965858 0.072517
C154  C     C_R   0.017354 0.296497 0.034141 0.072516
C155  C     C_R   0.482644 0.796497 0.965862 0.072516
C156  C     C_R   0.517356 0.796497 0.034138 0.072516
C157  C     C_3   0.046783 0.504937 0.240462 -0.487083
C158  C     C_3   0.953217 0.504937 0.759538 -0.487084
C159  C     C_3   0.546783 0.004937 0.240462 -0.487084
C160  C     C_3   0.453217 0.004937 0.759538 -0.487082
C161  C     C_R   0.000000 0.273346 1.000000 -0.100737
C162  C     C_R   0.500000 0.773346 0.000000 -0.100737
C163  C     C_R   0.982515 0.342940 0.965675 0.320714
C164  C     C_R   0.017485 0.342940 0.034324 0.320714
C165  C     C_R   0.482513 0.842940 0.965678 0.320714
C166  C     C_R   0.517486 0.842940 0.034322 0.320714
C167  C     C_R   1.000000 0.366196 1.000000 -0.251619
C168  C     C_R   0.500000 0.866196 0.000000 -0.251620
C169  C     C_3   0.979167 0.455020 0.304184 -0.161889
C170  C     C_3   0.020833 0.455020 0.695816 -0.161889
C171  C     C_3   0.479167 0.955020 0.304184 -0.161889
C172  C     C_3   0.520833 0.955020 0.695816 -0.161889
C173  C     C_3   0.998707 0.499367 0.311949 0.041182
C174  C     C_3   0.001293 0.499367 0.688051 0.041182
C175  C     C_3   0.498707 0.999367 0.311949 0.041182
C176  C     C_3   0.501293 0.999367 0.688051 0.041182
C177  C     C_3   0.999767 0.500703 0.189099 0.087773
C178  C     C_3   0.000233 0.500703 0.810901 0.087772
C179  C     C_3   0.499767 0.000703 0.189099 0.087771
C180  C     C_3   0.500233 0.000703 0.810901 0.087771
C181  C     C_3   0.047648 0.502437 0.168290 -0.351217
C182  C     C_3   0.952352 0.502437 0.831710 -0.351217
C183  C     C_3   0.547648 0.002437 0.168290 -0.351218
C184  C     C_3   0.452352 0.002437 0.831710 -0.351216
Cu1   Cu    Cu3+1 1.000000 0.544430 0.500000 0.982345
Cu2   Cu    Cu3+1 0.500000 0.044430 0.500000 0.982345
Cu3   Cu    Cu3+1 1.000000 0.455520 0.500000 1.015005
Cu4   Cu    Cu3+1 0.500000 0.955520 0.500000 1.015005
Cu5   Cu    Cu3+1 0.955510 0.499950 0.044460 0.954584
Cu6   Cu    Cu3+1 0.044490 0.499950 0.955540 0.954585
Cu7   Cu    Cu3+1 0.455510 0.999950 0.044460 0.954584
Cu8   Cu    Cu3+1 0.544490 0.999950 0.955540 0.954584
Cu9   Cu    Cu3+1 0.499930 0.499950 0.937580 1.022347
Cu10  Cu    Cu3+1 0.500070 0.499950 0.062420 1.022347
Cu11  Cu    Cu3+1 0.999930 0.999950 0.937580 1.022352
Cu12  Cu    Cu3+1 0.000070 0.999950 0.062420 1.022351
H1    H     H_    0.986732 0.570821 0.315629 0.159463
H2    H     H_    0.013268 0.570821 0.684371 0.159463
H3    H     H_    0.486732 0.070821 0.315629 0.159464
H4    H     H_    0.513268 0.070821 0.684371 0.159463
H5    H     H_    0.991573 0.428660 0.197622 0.171566
H6    H     H_    0.008426 0.428660 0.802379 0.171568
H7    H     H_    0.491573 0.928660 0.197621 0.171564
H8    H     H_    0.508427 0.928660 0.802378 0.171564
H9    H     H_    0.068699 0.478939 0.238290 0.203787
H10   H     H_    0.931301 0.478939 0.761710 0.203788
H11   H     H_    0.568699 0.978939 0.238290 0.203787
H12   H     H_    0.431301 0.978939 0.761710 0.203787
H13   H     H_    0.066294 0.472386 0.135245 0.199134
H14   H     H_    0.933706 0.472386 0.864754 0.199134
H15   H     H_    0.566294 0.972386 0.135245 0.199134
H16   H     H_    0.433706 0.972386 0.864754 0.199134
H17   H     H_    0.638420 0.548748 0.792910 0.175288
H18   H     H_    0.361580 0.548748 0.207089 0.175288
H19   H     H_    0.138420 0.048749 0.792913 0.175287
H20   H     H_    0.861580 0.048749 0.207087 0.175287
H21   H     H_    0.791566 0.578492 0.602492 0.158113
H22   H     H_    0.208434 0.578492 0.397508 0.158113
H23   H     H_    0.291566 0.078494 0.602495 0.158112
H24   H     H_    0.708434 0.078494 0.397505 0.158113
H25   H     H_    0.860452 0.550619 0.574433 0.177621
H26   H     H_    0.139547 0.550619 0.425567 0.177621
H27   H     H_    0.360453 0.050620 0.574435 0.177621
H28   H     H_    0.639547 0.050620 0.425565 0.177621
H29   H     H_    0.788947 0.420717 0.827477 0.160673
H30   H     H_    0.211053 0.420717 0.172523 0.160673
H31   H     H_    0.288947 0.920714 0.827474 0.160673
H32   H     H_    0.711053 0.920714 0.172526 0.160673
H33   H     H_    0.710032 0.421076 0.906061 0.160137
H34   H     H_    0.289968 0.421076 0.093939 0.160138
H35   H     H_    0.210032 0.921073 0.906057 0.160139
H36   H     H_    0.789968 0.921073 0.093943 0.160140
H37   H     H_    0.395888 0.289125 0.163460 0.157044
H38   H     H_    0.604111 0.289125 0.836540 0.157044
H39   H     H_    0.895902 0.789124 0.163496 0.157046
H40   H     H_    0.104097 0.789124 0.836504 0.157046
H41   H     H_    0.896504 0.709219 0.161624 0.147465
H42   H     H_    0.103496 0.709219 0.838376 0.147465
H43   H     H_    0.396490 0.209220 0.161588 0.147465
H44   H     H_    0.603510 0.209220 0.838412 0.147465
H45   H     H_    0.933610 0.639526 0.102233 0.158148
H46   H     H_    0.066390 0.639526 0.897767 0.158148
H47   H     H_    0.433602 0.139527 0.102211 0.158155
H48   H     H_    0.566398 0.139527 0.897789 0.158155
H49   H     H_    0.529005 0.639163 0.062269 0.159691
H50   H     H_    0.470995 0.639163 0.937731 0.159690
H51   H     H_    0.029002 0.139163 0.062273 0.159691
H52   H     H_    0.970998 0.139163 0.937726 0.159691
H53   H     H_    0.453537 0.708935 0.903932 0.154297
H54   H     H_    0.546463 0.708935 0.096068 0.154297
H55   H     H_    0.953542 0.208935 0.903924 0.154297
H56   H     H_    0.046459 0.208935 0.096076 0.154297
H57   H     H_    0.952549 0.289307 0.904712 0.202062
H58   H     H_    0.047451 0.289307 0.095287 0.202061
H59   H     H_    0.452544 0.789307 0.904721 0.202061
H60   H     H_    0.547456 0.789307 0.095279 0.202061
H61   H     H_    0.939767 0.541950 0.253162 0.193700
H62   H     H_    0.060233 0.541950 0.746838 0.193700
H63   H     H_    0.439766 0.041950 0.253162 0.193700
H64   H     H_    0.560233 0.041950 0.746838 0.193700
H65   H     H_    0.990378 0.572221 0.207912 0.139584
H66   H     H_    0.009622 0.572221 0.792087 0.139584
H67   H     H_    0.490378 0.072221 0.207912 0.139584
H68   H     H_    0.509622 0.072221 0.792088 0.139584
H69   H     H_    0.060402 0.537369 0.242314 0.168391
H70   H     H_    0.939598 0.537369 0.757686 0.168392
H71   H     H_    0.560402 0.037369 0.242314 0.168392
H72   H     H_    0.439598 0.037368 0.757686 0.168391
H73   H     H_    0.065575 0.531808 0.132026 0.177723
H74   H     H_    0.934425 0.531808 0.867974 0.177723
H75   H     H_    0.565575 0.031808 0.132026 0.177722
H76   H     H_    0.434425 0.031808 0.867974 0.177722
H77   H     H_    0.945335 0.449691 0.356592 0.123105
H78   H     H_    0.054665 0.449690 0.643408 0.123105
H79   H     H_    0.445335 0.949690 0.356592 0.123105
H80   H     H_    0.554665 0.949691 0.643407 0.123105
H81   H     H_    0.941142 0.458477 0.256345 0.172720
H82   H     H_    0.058858 0.458477 0.743655 0.172721
H83   H     H_    0.441142 0.958477 0.256345 0.172720
H84   H     H_    0.558858 0.958478 0.743655 0.172720
O1    O     O_R   0.935120 0.537520 0.564840 -0.581564
O2    O     O_R   0.064880 0.537520 0.435160 -0.581563
O3    O     O_R   0.435120 0.037520 0.564840 -0.581564
O4    O     O_R   0.564880 0.037520 0.435160 -0.581563
O5    O     O_R   0.564810 0.499970 0.882380 -0.592006
O6    O     O_R   0.435190 0.499970 0.117620 -0.592005
O7    O     O_R   0.064810 0.999970 0.882380 -0.592001
O8    O     O_R   0.935190 0.999970 0.117620 -0.592001
O9    O     O_R   0.564880 0.499960 0.987830 -0.550813
O10   O     O_R   0.435120 0.499960 0.012170 -0.550812
O11   O     O_R   0.064880 0.999960 0.987830 -0.550816
O12   O     O_R   0.935120 0.999960 0.012170 -0.550816
O13   O     O_R   0.499950 0.564810 0.947310 -0.598928
O14   O     O_R   0.500050 0.564810 0.052690 -0.598928
O15   O     O_R   0.999950 0.064810 0.947310 -0.598929
O16   O     O_R   0.000050 0.064810 0.052690 -0.598929
O17   O     O_R   0.935080 0.462440 0.564870 -0.574053
O18   O     O_R   0.064920 0.462440 0.435130 -0.574053
O19   O     O_R   0.435080 0.962440 0.564870 -0.574053
O20   O     O_R   0.564920 0.962440 0.435130 -0.574053
O21   O     O_R   0.999990 0.537520 0.408860 -0.584717
O22   O     O_R   0.000010 0.537520 0.591140 -0.584718
O23   O     O_R   0.499990 0.037520 0.408860 -0.584717
O24   O     O_R   0.500010 0.037520 0.591140 -0.584718
O25   O     O_R   0.999950 0.462430 0.408890 -0.585095
O26   O     O_R   0.000050 0.462430 0.591110 -0.585095
O27   O     O_R   0.499950 0.962430 0.408890 -0.585095
O28   O     O_R   0.500050 0.962430 0.591110 -0.585095
O29   O     O_R   0.962420 0.564820 0.037570 -0.589190
O30   O     O_R   0.037580 0.564820 0.962430 -0.589190
O31   O     O_R   0.462420 0.064820 0.037570 -0.589193
O32   O     O_R   0.537580 0.064820 0.962430 -0.589193
O33   O     O_R   0.962440 0.499950 0.128690 -0.590293
O34   O     O_R   0.037560 0.499950 0.871310 -0.590293
O35   O     O_R   0.462440 0.999950 0.128690 -0.590293
O36   O     O_R   0.537560 0.999950 0.871310 -0.590293
O37   O     O_R   0.037530 0.500000 0.053640 -0.593683
O38   O     O_R   0.962470 0.500000 0.946360 -0.593684
O39   O     O_R   0.537530 1.000000 0.053640 -0.593683
O40   O     O_R   0.462470 1.000000 0.946360 -0.593683
O41   O     O_R   0.962440 0.435080 0.037530 -0.571092
O42   O     O_R   0.037560 0.435080 0.962470 -0.571089
O43   O     O_R   0.462440 0.935080 0.037530 -0.571088
O44   O     O_R   0.537560 0.935080 0.962470 -0.571088
O45   O     O_R   0.499930 0.435080 0.947280 -0.565862
O46   O     O_R   0.500070 0.435080 0.052720 -0.565863
O47   O     O_R   0.999930 0.935080 0.947280 -0.565850
O48   O     O_R   0.000070 0.935080 0.052720 -0.565851
O49   O     O_3   0.631287 0.438865 0.942182 -0.712662
H85   H     H_    0.646595 0.409898 0.926799 0.315536
O50   O     O_3   0.368713 0.438865 0.057818 -0.712661
H86   H     H_    0.353405 0.409898 0.073201 0.315535
O51   O     O_3   0.131287 0.938863 0.942178 -0.712672
H87   H     H_    0.146594 0.909896 0.926794 0.315535
O52   O     O_3   0.868713 0.938863 0.057821 -0.712671
H88   H     H_    0.853405 0.909896 0.073206 0.315535
C185  C     C_1   0.705488 0.586042 0.674286 0.237848
N1    N     N_1   0.688075 0.610115 0.657768 -0.271316
C186  C     C_1   0.294512 0.586042 0.325714 0.237847
N2    N     N_1   0.311925 0.610115 0.342232 -0.271315
C187  C     C_1   0.205488 0.086044 0.674289 0.237848
N3    N     N_1   0.188075 0.110118 0.657772 -0.271315
C188  C     C_1   0.794512 0.086044 0.325711 0.237848
N4    N     N_1   0.811925 0.110118 0.342228 -0.271315
C189  C     C_1   0.867664 0.441437 0.717533 0.228156
N5    N     N_1   0.887087 0.418240 0.731075 -0.264857
C190  C     C_1   0.132335 0.441437 0.282467 0.228157
N6    N     N_1   0.112912 0.418240 0.268925 -0.264857
C191  C     C_1   0.367664 0.941436 0.717532 0.228157
N7    N     N_1   0.387087 0.918239 0.731074 -0.264855
C192  C     C_1   0.632336 0.941436 0.282468 0.228158
N8    N     N_1   0.612913 0.918239 0.268926 -0.264855
O53   O     O_3   0.927477 0.539281 0.379099 -0.740580
H89   H     H_    0.911115 0.515572 0.373379 0.326472
O54   O     O_3   0.072523 0.539281 0.620901 -0.740580
H90   H     H_    0.088885 0.515572 0.626620 0.326472
O55   O     O_3   0.427477 0.039281 0.379099 -0.740579
H91   H     H_    0.411115 0.015572 0.373379 0.326472
O56   O     O_3   0.572523 0.039281 0.620901 -0.740579
H92   H     H_    0.588885 0.015573 0.626621 0.326473
O57   O     O_3   0.575692 0.368613 0.893386 -0.723029
H93   H     H_    0.602114 0.352836 0.882757 0.321797
O58   O     O_3   0.424308 0.368613 0.106614 -0.723029
H94   H     H_    0.397886 0.352836 0.117243 0.321797
O59   O     O_3   0.075684 0.868613 0.893357 -0.723023
H95   H     H_    0.102110 0.852836 0.882713 0.321795
O60   O     O_3   0.924315 0.868613 0.106643 -0.723023
H96   H     H_    0.897890 0.852836 0.117287 0.321796
O61   O     O_3   0.965558 0.364120 0.930710 -0.739985
H97   H     H_    0.971708 0.396183 0.925946 0.322399
O62   O     O_3   0.034442 0.364120 0.069289 -0.739984
H98   H     H_    0.028291 0.396183 0.074056 0.322399
O63   O     O_3   0.465555 0.864120 0.930715 -0.739982
H99   H     H_    0.471708 0.896182 0.925945 0.322398
O64   O     O_3   0.534445 0.864120 0.069285 -0.739982
H100  H     H_    0.528292 0.896182 0.074055 0.322398
C193  C     C_1   0.005145 0.415295 0.295491 0.320149
N9    N     N_1   0.025341 0.384146 0.288619 -0.243312
C194  C     C_1   0.994854 0.415295 0.704509 0.320149
N10   N     N_1   0.974659 0.384146 0.711381 -0.243311
C195  C     C_1   0.505145 0.915295 0.295491 0.320147
N11   N     N_1   0.525341 0.884146 0.288619 -0.243312
C196  C     C_1   0.494855 0.915295 0.704509 0.320147
N12   N     N_1   0.474659 0.884146 0.711381 -0.243312

loop_
_geom_bond_atom_site_label_1
_geom_bond_atom_site_label_2
_ccdc_geom_bond_type
C133  C137  A    
O55   H91   S    
C158  H70   S    
C55   C59   A    
C128  H46   S    
C38   H22   S    
C154  C161  A    
C45   O25   A    
C66   H26   S    
Cu5   O33   S    
C185  N1    T    
C68   H28   S    
O51   H87   S    
C118  C128  A    
C84   O44   A    
Cu1   O21   S    
C163  O61   S    
C26   C50   A    
C35   C39   A    
C150  H58   S    
C21   C33   A    
C124  H68   S    
Cu5   O41   S    
C165  O63   S    
C79   O37   A    
C9    C13   A    
C7    H7    S    
C54   C74   A    
Cu4   O19   S    
C11   C15   A    
C158  C174  S    
C135  C142  A    
C152  C156  A    
C70   C74   A    
C46   C174  S    
C85   C121  S    
C151  C155  A    
Cu3   O18   S    
Cu1   O2    S    
C58   H30   S    
C13   C91   S    
C7    H83   S    
C41   C49   A    
Cu3   O26   S    
C155  C162  A    
C25   C29   A    
C148  H56   S    
Cu7   O31   S    
C27   C31   A    
Cu7   Cu8   S    
Cu3   O25   S    
C157  H9    S    
C141  C144  A    
C152  H60   S    
C122  H66   S    
C123  H63   S    
C17   C21   A    
C153  C161  A    
C86   C174  S    
C19   C23   A    
C136  C141  A    
C84   C168  S    
C135  H51   S    
C8    C180  S    
O54   H90   S    
C156  C166  A    
C16   C20   A    
C111  C113  A    
C67   H27   S    
C3    O19   A    
C178  C182  S    
C86   H2    S    
C76   C192  S    
C195  N11   T    
C142  C144  A    
C91   O5    A    
Cu6   O42   S    
C169  C193  S    
C196  N12   T    
C99   O59   S    
C12   O52   S    
C110  C116  A    
C104  C110  A    
C170  C174  S    
C91   O9    A    
C89   C101  S    
C16   C94   S    
Cu2   O24   S    
C41   C65   A    
O64   H100  S    
C57   C61   A    
C59   C63   A    
C96   O16   A    
Cu12  O48   S    
C60   C64   A    
C97   O57   S    
O59   H95   S    
Cu9   O45   S    
C1    O1    A    
C66   C70   A    
C83   C167  S    
C155  C165  A    
C49   C53   A    
C51   C55   A    
C36   C188  S    
C127  C131  A    
C90   O48   A    
Cu2   O3    S    
C141  C147  A    
O52   H88   S    
C119  C126  A    
C116  C120  A    
Cu9   Cu10  S    
C92   O10   A    
O56   H92   S    
C47   O27   A    
C4    O20   A    
C134  H50   S    
C104  C107  A    
C98   O58   S    
C180  C184  S    
C78   O32   A    
C109  H37   S    
C74   C190  S    
C77   O29   A    
C191  N7    T    
C89   O45   A    
C192  N8    T    
C140  C143  A    
C88   C124  S    
Cu8   O39   S    
C112  C114  A    
C35   C187  S    
C75   C191  S    
Cu10  O46   S    
C9    O49   S    
C153  C163  A    
C39   H23   S    
C148  C150  A    
C5    H5    S    
Cu5   O38   S    
Cu1   Cu3   S    
C34   C186  S    
C149  H57   S    
Cu7   O40   S    
C182  H14   S    
C77   C131  S    
C78   C132  S    
C90   C102  S    
C149  C153  A    
C130  H48   S    
Cu11  O12   S    
C62   H34   S    
C79   C177  S    
C172  C196  S    
C45   O21   A    
Cu4   O28   S    
Cu5   O29   S    
C114  H42   S    
C57   H29   S    
C171  C195  S    
C73   C189  S    
C166  C168  A    
C18   H18   S    
Cu8   O44   S    
C27   C51   A    
C181  H73   S    
C22   C34   A    
C29   C61   A    
C95   C137  S    
C183  H75   S    
Cu8   O32   S    
C95   O14   A    
C12   C16   A    
C171  H79   S    
C32   C64   A    
C123  C179  S    
C10   C14   A    
C134  C139  A    
C121  C177  S    
C33   C185  S    
Cu11  Cu12  S    
C60   H32   S    
C160  H12   S    
C111  H39   S    
C14   C92   S    
C83   O42   A    
C114  C118  A    
C42   C50   A    
C113  C117  A    
C170  C194  S    
C26   C30   A    
C115  C119  A    
C128  C131  A    
Cu9   O13   S    
C63   H35   S    
C6    C170  S    
Cu11  O15   S    
C99   C106  A    
C21   C25   A    
C18   C22   A    
C24   C28   A    
C103  C107  A    
C160  H72   S    
C87   C175  S    
Cu7   O35   S    
C88   C176  S    
C13   C17   A    
C96   O15   A    
C87   C123  S    
C106  C108  A    
C177  C181  S    
C119  C129  A    
C37   C41   A    
Cu4   O20   S    
C8    C172  S    
C40   C44   A    
C115  H43   S    
Cu9   O5    S    
C157  C173  S    
C169  C173  S    
Cu11  O7    S    
Cu3   O17   S    
C117  C125  A    
C47   C175  S    
C172  C176  S    
C121  H61   S    
C48   C176  S    
C58   C62   A    
C7    C171  S    
C144  C161  A    
C127  H45   S    
C87   H3    S    
C134  C137  A    
C65   H25   S    
O53   H89   S    
C194  N10   T    
C2    O2    A    
C15   C19   A    
C86   O54   S    
C147  H55   S    
C50   C54   A    
C20   H20   S    
C1    O17   A    
C147  C149  A    
C154  C164  A    
C120  C126  A    
O62   H98   S    
C88   O56   S    
C136  H52   S    
C10   O50   S    
O60   H96   S    
C86   C122  S    
C61   H33   S    
O58   H94   S    
C69   C73   A    
C118  C125  A    
C59   H31   S    
C46   O26   A    
C129  C132  A    
C105  C111  A    
C87   O55   S    
C6    C178  S    
C157  C181  S    
C8    H8    S    
C172  H80   S    
Cu6   O37   S    
C53   C73   A    
C85   O53   S    
C84   O43   A    
Cu1   O22   S    
C158  H10   S    
C169  H77   S    
C81   C179  S    
C100  O60   S    
C92   O6    A    
C140  C146  A    
C190  N6    T    
C93   O7    A    
C53   C57   A    
C94   O8    A    
C112  H40   S    
C1    C69   S    
C56   C60   A    
C184  H76   S    
C130  C132  A    
O50   H86   S    
Cu6   O30   S    
C186  N2    T    
C28   C32   A    
Cu8   O36   S    
C117  C127  A    
Cu2   O4    S    
Cu12  O16   S    
C85   H1    S    
C182  H74   S    
C23   C35   A    
C30   C62   A    
Cu7   O43   S    
Cu2   Cu4   S    
C4    C72   S    
C64   H36   S    
C145  H53   S    
C122  C178  S    
C11   O51   S    
C164  C167  A    
C81   O39   A    
Cu9   O10   S    
C15   C93   S    
C38   C42   A    
C98   C101  A    
C157  H69   S    
Cu11  O47   S    
C103  C109  A    
C82   O40   A    
C88   H4    S    
C96   C138  S    
C43   C51   A    
C65   C69   A    
C67   C71   A    
Cu5   Cu6   S    
C25   C49   A    
C97   C104  A    
Cu10  O14   S    
C99   C102  A    
C124  H64   S    
C133  C140  A    
C22   C26   A    
C5    C169  S    
C79   O33   A    
C2    C70   S    
C80   O38   A    
C110  H38   S    
C80   C178  S    
C135  C138  A    
C188  N4    T    
C56   C76   A    
O49   H85   S    
C14   C18   A    
C3    C71   S    
Cu2   O23   S    
C72   C76   A    
C106  C112  A    
C187  N3    T    
C19   H19   S    
C100  C105  A    
C146  H54   S    
C120  C130  A    
C95   O13   A    
C6    H6    S    
C45   C173  S    
C183  H15   S    
C37   H21   S    
Cu10  O6    S    
C80   O34   A    
C181  H13   S    
C10   C30   A    
C36   C40   A    
C90   O47   A    
C121  H65   S    
C164  O62   S    
C122  H62   S    
C20   C24   A    
C123  H67   S    
C98   C103  A    
C83   O41   A    
C85   C173  S    
C23   C27   A    
C108  C125  A    
C40   H24   S    
C68   C72   A    
C113  H41   S    
C77   O30   A    
C11   C31   A    
C159  C175  S    
C12   C32   A    
C89   O46   A    
C160  C176  S    
C139  C143  A    
C2    O18   A    
C17   H17   S    
C8    H84   S    
C81   O35   A    
C184  H16   S    
C179  C183  S    
C4    O4    A    
C105  C108  A    
C93   O11   A    
C142  C148  A    
C48   O28   A    
C5    H81   S    
C136  C138  A    
C82   O36   A    
C39   C43   A    
C129  H47   S    
C171  C175  S    
C163  C167  A    
C46   O22   A    
C100  C102  A    
C7    C179  S    
C159  H11   S    
Cu4   O27   S    
C158  C182  S    
C5    C177  S    
C193  N9    T    
C145  C151  A    
C146  C152  A    
C43   C67   A    
C165  C168  A    
C44   C68   A    
C82   C180  S    
C170  H78   S    
C151  H59   S    
O61   H97   S    
C54   C58   A    
Cu12  O11   S    
C139  C145  A    
C143  C162  A    
C94   O12   A    
C34   C38   A    
C47   O23   A    
C107  C126  A    
C48   O24   A    
C9    C29   A    
C31   C63   A    
O57   H93   S    
C116  H44   S    
C24   C36   A    
Cu6   O34   S    
C55   C75   A    
Cu12  O8    S    
O63   H99   S    
C71   C75   A    
C28   C52   A    
C44   C52   A    
C159  H71   S    
Cu1   O1    S    
C166  O64   S    
C3    O3    A    
C33   C37   A    
C124  C180  S    
C109  C115  A    
C156  C162  A    
C78   O31   A    
C150  C154  A    
C133  H49   S    
C42   C66   A    
C159  C183  S    
C189  N5    T    
C160  C184  S    
C97   C101  A    
C52   C56   A    
Cu10  O9    S    
C6    H82   S    
