data_mof_unit_57178.cif
_audit_creation_date              2012-12-11T15:29:33-0500
_audit_creation_method            fapswitch 2.2
_symmetry_space_group_name_H-M    P1
_symmetry_Int_Tables_number       1
_space_group_crystal_system       triclinic
_cell_length_a                    13.493228
_cell_length_b                    13.499967
_cell_length_c                    27.577214
_cell_angle_alpha                 90.551419
_cell_angle_beta                  89.941931
_cell_angle_gamma                 60.147022
_cell_volume                      4356.53539422

loop_
_atom_site_label
_atom_site_type_symbol
_atom_type_description
_atom_site_fract_x
_atom_site_fract_y
_atom_site_fract_z
_atom_type_partial_charge
C1    C     C_R   0.620084 0.100973 0.569973 0.545724
C2    C     C_1   0.632521 0.729237 0.615296 -0.014474
C3    C     C_3   0.686383 0.558489 0.765804 -0.106956
C4    C     C_3   0.688660 0.643007 0.803223 0.082270
C5    C     C_3   0.583693 0.659376 0.740380 -0.079149
C6    C     C_3   0.668544 0.675846 0.708740 0.025378
C7    C     C_3   0.588969 0.741275 0.777811 0.128735
C8    C     C_3   0.670782 0.760862 0.745959 -0.108163
C9    C     C_1   0.694789 0.624982 0.855555 -0.022946
C10   C     C_1   0.652553 0.699679 0.656856 -0.059231
C11   C     C_3   0.101088 0.118084 0.737537 -0.105163
C12   C     C_R   0.599819 0.778973 0.568313 0.545683
C13   C     C_3   0.198574 0.061487 0.775365 -0.127668
C14   C     C_1   0.096339 0.201628 0.900010 -0.007887
C15   C     C_1   0.226006 0.140072 0.616353 -0.015193
C16   C     C_3   0.049078 0.228733 0.768013 0.134024
C17   C     C_3   0.144051 0.173171 0.805380 0.072843
C18   C     C_3   0.116447 0.273985 0.739975 -0.067887
C19   C     C_3   0.171306 0.161739 0.710225 0.031606
C20   C     C_3   0.213820 0.216736 0.777706 -0.114757
C21   C     C_3   0.269209 0.104715 0.747117 -0.118853
C22   C     C_1   0.122911 0.184394 0.857782 -0.037005
C23   C     C_R   0.277105 0.121999 0.569174 0.545530
C24   C     C_1   0.195446 0.151705 0.658087 -0.059022
C25   C     C_3   0.698097 0.232431 0.737698 -0.105281
C26   C     C_3   0.594996 0.284847 0.773266 -0.100359
C27   C     C_1   0.691240 0.206042 0.901582 -0.014550
C28   C     C_1   0.634373 0.132251 0.618168 -0.015886
C29   C     C_3   0.764406 0.131402 0.772561 -0.101438
C30   C     C_3   0.661178 0.183522 0.807390 0.053075
C31   C     C_3   0.714309 0.063675 0.747001 -0.099199
C32   C     C_3   0.648219 0.164933 0.712864 0.053343
C33   C     C_3   0.611254 0.115917 0.782556 -0.103994
C34   C     C_R   0.621988 0.100175 0.431553 0.542511
C35   C     C_3   0.544826 0.216991 0.747578 -0.100602
C36   C     C_1   0.673651 0.194590 0.859630 -0.058249
C37   C     C_1   0.641815 0.150512 0.660468 -0.059375
C38   C     C_R   0.640411 0.721547 0.383188 0.024642
C39   C     C_R   0.723739 0.734659 0.358135 -0.125685
C40   C     C_R   0.736869 0.715972 0.308592 -0.122985
C41   C     C_R   0.669631 0.680249 0.283643 0.037796
C42   C     C_R   0.594954 0.655471 0.309461 -0.120267
C43   C     C_R   0.579678 0.676934 0.359054 -0.128433
C44   C     C_R   0.576867 0.702532 0.203509 -0.121340
C45   C     C_R   0.602012 0.776713 0.430512 0.542039
C46   C     C_R   0.585410 0.680492 0.153942 -0.130154
C47   C     C_R   0.789694 0.609118 0.157623 -0.126341
C48   C     C_R   0.781571 0.628509 0.207160 -0.123890
C49   C     C_R   0.675860 0.671233 0.230714 0.035777
C50   C     C_R   0.692801 0.628684 0.131234 0.023202
C51   C     C_R   0.222078 0.139747 0.384196 0.024002
C52   C     C_R   0.231633 0.046342 0.357429 -0.126805
C53   C     C_R   0.206152 0.057512 0.308341 -0.119367
C54   C     C_R   0.169634 0.162430 0.285644 0.033846
C55   C     C_R   0.151086 0.258034 0.313196 -0.121175
C56   C     C_R   0.278618 0.120296 0.431126 0.542364
C57   C     C_R   0.177210 0.246792 0.362236 -0.125331
C58   C     C_R   0.191277 0.232857 0.205559 -0.066779
C59   C     C_R   0.165023 0.252170 0.156435 0.089417
C60   C     C_R   0.069484 0.139693 0.161845 -0.146905
C61   C     C_R   0.094736 0.122540 0.210690 -0.136431
C62   C     C_R   0.152459 0.171988 0.233148 0.002084
C63   C     C_R   0.099747 0.208314 0.134499 0.027855
C64   C     C_R   0.641355 0.139521 0.385095 0.023336
C65   C     C_R   0.549128 0.231599 0.362038 -0.125636
C66   C     C_R   0.556619 0.251885 0.313340 -0.121492
C67   C     C_3   0.771101 0.575006 0.733229 -0.102698
C68   C     C_R   0.657096 0.181784 0.287183 0.036631
C69   C     C_R   0.752779 0.096310 0.311276 -0.120832
C70   C     C_R   0.744816 0.074879 0.359936 -0.128581
C71   C     C_R   0.716913 0.097772 0.204358 -0.119548
C72   C     C_R   0.728646 0.109934 0.155054 -0.128145
C73   C     C_R   0.618566 0.316025 0.164782 -0.121597
C74   C     C_R   0.608488 0.303901 0.214177 -0.119084
C75   C     C_R   0.660529 0.194757 0.234538 0.035008
C76   C     C_R   0.682643 0.219197 0.135304 0.024928
C77   C     C_R   0.049746 0.235049 0.947937 0.546764
C78   C     C_3   0.773336 0.659407 0.771459 -0.115791
C79   C     C_R   0.712509 0.561104 0.946267 0.545814
C80   C     C_R   0.722698 0.224045 0.949123 0.546374
C81   C     C_R   0.047595 0.243878 0.086496 0.537562
C82   C     C_R   0.709308 0.572186 0.084279 0.540343
C83   C     C_R   0.719857 0.233459 0.087487 0.539240
C84   C     C_1   0.700557 0.602577 0.897916 -0.003655
Cr1   Cr    Cr6+3 0.417550 0.169090 0.500530 1.020267
Cr2   Cr    Cr6+3 0.669180 0.913420 0.499920 1.019875
Cr3   Cr    Cr6+3 0.413260 0.917540 0.499520 1.021408
Cr4   Cr    Cr6+3 0.909770 0.175810 0.018240 1.022284
Cr5   Cr    Cr6+3 0.913300 0.427650 0.016090 1.019388
Cr6   Cr    Cr6+3 0.657770 0.431010 0.016900 1.027273
H1    H     H_    0.851225 0.658904 0.784721 0.110960
H2    H     H_    0.261094 0.255870 0.794527 0.104707
H3    H     H_    0.080337 0.361415 0.725255 0.104444
H4    H     H_    0.545812 0.375982 0.784688 0.107103
H5    H     H_    0.733010 0.280324 0.718464 0.095744
H6    H     H_    0.575592 0.068088 0.801368 0.098498
H7    H     H_    0.763779 0.972552 0.735588 0.102662
H8    H     H_    0.855079 0.095319 0.783318 0.101067
H9    H     H_    0.772060 0.768893 0.375850 0.132707
H10   H     H_    0.846631 0.506246 0.713907 0.116552
H11   H     H_    0.493681 0.739790 0.220814 0.104251
H12   H     H_    0.509488 0.697349 0.134054 0.126399
H13   H     H_    0.794926 0.735899 0.289589 0.099345
H14   H     H_    0.859265 0.603459 0.227255 0.102433
H15   H     H_    0.873814 0.569034 0.141004 0.133179
H16   H     H_    0.545418 0.623553 0.291068 0.099593
H17   H     H_    0.515902 0.665040 0.377854 0.123686
H18   H     H_    0.266431 0.962672 0.373444 0.130705
H19   H     H_    0.239847 0.267816 0.222500 0.129110
H20   H     H_    0.662135 0.845144 0.737710 0.099091
H21   H     H_    0.220603 0.982801 0.287666 0.101871
H22   H     H_    0.064251 0.075091 0.231374 0.111250
H23   H     H_    0.119541 0.340575 0.296474 0.102398
H24   H     H_    0.168175 0.320290 0.382265 0.125787
H25   H     H_    0.468188 0.283177 0.380554 0.130683
H26   H     H_    0.778061 0.034244 0.132813 0.124207
H27   H     H_    0.481633 0.318291 0.295619 0.102068
H28   H     H_    0.583574 0.401380 0.150468 0.135378
H29   H     H_    0.832481 0.043575 0.292080 0.099978
H30   H     H_    0.817462 0.004126 0.377038 0.124444
H31   H     H_    0.504951 0.660928 0.727590 0.110428
H32   H     H_    0.692079 0.475766 0.774618 0.115274
H33   H     H_    0.231239 0.974989 0.790557 0.122344
H34   H     H_    0.052555 0.080092 0.720916 0.102568
H35   H     H_    0.361163 0.054996 0.737176 0.104550
O1    O     O_R   0.301780 0.195490 0.553940 -0.507786
O2    O     O_R   0.658840 0.818280 0.449970 -0.506333
O3    O     O_R   0.503160 0.801780 0.445740 -0.521196
O4    O     O_R   0.319320 0.022190 0.450230 -0.504387
O5    O     O_3   0.499990 0.000010 0.499990 -0.244399
O6    O     O_R   0.819250 0.149410 0.965240 -0.506792
O7    O     O_R   0.006940 0.180310 0.968270 -0.493808
O8    O     O_R   0.028420 0.332670 0.963010 -0.505119
O9    O     O_R   0.810130 0.520390 0.966030 -0.494601
O10   O     O_R   0.636050 0.541380 0.962520 -0.503776
O11   O     O_R   0.666480 0.323610 0.968170 -0.492941
O12   O     O_R   0.522450 0.158840 0.550250 -0.494451
O13   O     O_R   0.817280 0.156800 0.072180 -0.522524
O14   O     O_R   0.005110 0.187160 0.067410 -0.505880
O15   O     O_R   0.026450 0.340060 0.069950 -0.525769
O16   O     O_R   0.808300 0.527240 0.065170 -0.506927
O17   O     O_R   0.634070 0.548770 0.069460 -0.520951
O18   O     O_R   0.664650 0.330470 0.067300 -0.502700
O19   O     O_3   0.826940 0.344820 0.017080 -0.245949
O20   O     O_R   0.694460 0.003360 0.553820 -0.507045
O21   O     O_R   0.657750 0.819520 0.549120 -0.494727
O22   O     O_R   0.501990 0.803120 0.552700 -0.507390
O23   O     O_R   0.318230 0.023430 0.549370 -0.493937
O24   O     O_R   0.302950 0.194150 0.446980 -0.521858
O25   O     O_R   0.523540 0.157600 0.451100 -0.504664
O26   O     O_R   0.695630 0.002030 0.446860 -0.521963
N1    N     N_3   0.928395 0.297686 0.780259 -0.635668
H36   H     H_    0.883404 0.314785 0.747776 0.209453
H37   H     H_    0.905892 0.247120 0.800755 0.227899
H38   H     H_    0.454343 0.252242 0.736653 0.105680
N2    N     N_3   0.204884 0.316904 0.130271 -0.638672
H39   H     H_    0.135207 0.396676 0.122151 0.250810
H40   H     H_    0.243883 0.273347 0.098049 0.242697
H41   H     H_    0.019385 0.104827 0.146384 0.144011
H42   H     H_    0.754514 0.012599 0.219082 0.105593
H43   H     H_    0.564876 0.380009 0.236701 0.101985
N3    N     N_3   0.489734 0.830824 0.803112 -0.631596
H44   H     H_    0.432266 0.880518 0.776460 0.218609
H45   H     H_    0.515546 0.882649 0.821066 0.223599

loop_
_geom_bond_atom_site_label_1
_geom_bond_atom_site_label_2
_ccdc_geom_bond_type
C44   C49   A    
C58   C62   A    
C81   O15   A    
C66   C68   A    
Cr2   O20   S    
C26   H4    S    
C58   H19   S    
C41   C42   A    
C1    O20   A    
C11   H34   S    
C60   H41   S    
C82   O17   A    
C2    C12   S    
C34   O25   A    
C7    C8    S    
C53   C54   A    
C68   C75   S    
C71   H42   S    
C46   H12   S    
C11   C19   S    
Cr3   O22   S    
C29   H8    S    
C63   C81   S    
C60   C63   A    
C12   O22   A    
N2    H39   S    
C19   C21   S    
C35   H38   S    
C18   C19   S    
C4    C7    S    
C5    C6    S    
C13   H33   S    
C45   O3    A    
C48   H14   S    
C5    H31   S    
C17   C20   S    
C51   C56   S    
C73   C74   A    
C14   C77   S    
C12   O21   A    
Cr1   O25   S    
C38   C45   S    
C31   C32   S    
C70   H30   S    
C16   C17   S    
C47   H15   S    
C66   H27   S    
C1    C28   S    
C31   C33   S    
C51   C57   A    
C44   H11   S    
C64   C70   A    
C56   O4    A    
C3    H32   S    
C72   C76   A    
C53   H21   S    
C25   C32   S    
C15   C23   S    
C80   O6    A    
Cr5   O9    S    
C8    C78   S    
C65   H25   S    
Cr1   O1    S    
C61   C62   A    
C67   C78   S    
C77   O8    A    
C82   O16   A    
Cr2   O21   S    
C76   C83   S    
C41   C49   S    
Cr3   O3    S    
C44   C46   A    
C47   C50   A    
N3    H45   S    
C25   C29   S    
C38   C39   A    
C7    N3    S    
C3    C67   S    
C71   C75   A    
Cr5   O8    S    
C74   C75   A    
C51   C52   A    
C32   C35   S    
C27   C80   S    
Cr3   O23   S    
C39   C40   A    
C5    C7    S    
C68   C69   A    
C6    C8    S    
C54   C62   S    
C50   C82   S    
C25   C26   S    
C69   H29   S    
C60   C61   A    
C77   O7    A    
Cr4   O14   S    
C4    C78   S    
C29   C30   S    
C8    H20   S    
Cr1   O5    S    
Cr6   O11   S    
C11   C16   S    
C39   H9    S    
C47   C48   A    
C34   O26   A    
Cr5   O15   S    
C34   C64   S    
C13   C21   S    
C16   N1    S    
C43   H17   S    
C32   C37   S    
C20   C21   S    
C42   H16   S    
Cr4   O13   S    
Cr6   O17   S    
C67   H10   S    
C23   O1    A    
C48   C49   A    
N1    H37   S    
C25   H5    S    
C55   C57   A    
C27   C36   T    
C73   C76   A    
C20   H2    S    
C42   C43   A    
Cr4   O7    S    
C21   H35   S    
C3    C4    S    
C2    C10   T    
C33   H6    S    
Cr1   O12   S    
C1    O12   A    
C52   C53   A    
Cr3   O5    S    
N3    H44   S    
C81   O14   A    
C79   O9    A    
C72   H26   S    
C54   C55   A    
C15   C24   T    
C73   H28   S    
C30   C33   S    
Cr2   O2    S    
Cr2   O5    S    
Cr6   O18   S    
C3    C5    S    
C6    C10   S    
C74   H43   S    
C59   N2    S    
C26   C30   S    
C57   H24   S    
C30   C36   S    
C78   H1    S    
Cr5   O19   S    
C79   O10   A    
C23   O23   A    
C46   C50   A    
C59   C63   A    
C17   C22   S    
C80   O11   A    
C13   C17   S    
C64   C65   A    
C14   C22   T    
N2    H40   S    
C19   C24   S    
C58   C59   A    
C38   C43   A    
C29   C31   S    
C6    C67   S    
Cr2   O26   S    
C40   H13   S    
C83   O18   A    
Cr6   O10   S    
C11   C13   S    
Cr3   O4    S    
C79   C84   S    
C28   C37   T    
C45   O2    A    
Cr5   O16   S    
C33   C35   S    
C18   C20   S    
C31   H7    S    
C69   C70   A    
Cr1   O24   S    
C9    C84   T    
C55   H23   S    
C26   C35   S    
C71   C72   A    
N1    H36   S    
C52   H18   S    
C16   C18   S    
C65   C66   A    
C56   O24   A    
C18   H3    S    
C40   C41   A    
Cr4   O6    S    
C4    C9    S    
C61   H22   S    
Cr4   O19   S    
C83   O13   A    
Cr6   O19   S    
