data_mof_unit_64482.cif
_audit_creation_date              2012-12-11T14:22:58-0500
_audit_creation_method            fapswitch 2.2
_symmetry_space_group_name_H-M    P1
_symmetry_Int_Tables_number       1
_space_group_crystal_system       triclinic
_cell_length_a                    16.894732
_cell_length_b                    6.95332
_cell_length_c                    15.330615
_cell_angle_alpha                 89.999984
_cell_angle_beta                  93.65008
_cell_angle_gamma                 89.99999
_cell_volume                      1797.30268993

loop_
_atom_site_label
_atom_site_type_symbol
_atom_type_description
_atom_site_fract_x
_atom_site_fract_y
_atom_site_fract_z
_atom_type_partial_charge
O1    O     O_R   0.414560 0.494300 0.417030 -0.539331
O2    O     O_R   0.585440 0.994300 0.582970 -0.539331
O3    O     O_R   0.577160 0.822630 0.413790 -0.536677
O4    O     O_R   0.422840 0.322630 0.586210 -0.536677
C1    C     C_R   0.604259 0.655210 0.393292 0.726879
C2    C     C_R   0.395741 0.155210 0.606708 0.726879
O5    O     O_R   0.414660 0.823920 0.406630 -0.547708
O6    O     O_R   0.585340 0.323920 0.593370 -0.547708
O7    O     O_R   0.421790 0.995650 0.575760 -0.532549
O8    O     O_R   0.578210 0.495650 0.424240 -0.532548
C3    C     C_R   0.385477 0.654736 0.386669 0.682926
C4    C     C_R   0.614522 0.154736 0.613330 0.682926
O9    O     O_3   0.502530 0.661260 0.555500 -0.368873
O10   O     O_3   0.497470 0.161260 0.444500 -0.368873
V1    V     V_3+5 0.499530 0.935570 0.489700 1.412673
V2    V     V_3+5 0.500470 0.435570 0.510300 1.412673
C5    C     C_2   0.784985 0.274515 0.787575 -0.103722
C6    C     C_2   0.215016 0.774514 0.212424 -0.103723
C7    C     C_2   0.815308 0.112042 0.824328 -0.275743
C8    C     C_2   0.184691 0.612041 0.175672 -0.275745
H1    H     H_    0.811879 0.411887 0.805628 0.129951
H2    H     H_    0.188123 0.911886 0.194369 0.129952
H3    H     H_    0.785912 0.975337 0.812337 0.166556
H4    H     H_    0.214087 0.475338 0.187665 0.166558
C9    C     C_2   0.711920 0.280223 0.727348 -0.124311
C10   C     C_2   0.288081 0.780222 0.272651 -0.124310
C11   C     C_2   0.688086 0.138148 0.671363 0.048935
C12   C     C_2   0.311914 0.638149 0.328637 0.048934
H5    H     H_    0.677565 0.412233 0.727712 0.096278
H6    H     H_    0.322437 0.912229 0.272286 0.096278
C13   C     C_1   0.166409 0.119222 0.831328 -0.194352
C14   C     C_1   0.833591 0.619221 0.168672 -0.194352
C15   C     C_1   0.218893 0.127513 0.780062 0.006568
C16   C     C_1   0.781107 0.627513 0.219938 0.006568
C17   C     C_1   0.280851 0.137454 0.719899 0.006138
C18   C     C_1   0.719149 0.637454 0.280101 0.006138
C19   C     C_1   0.333347 0.145761 0.668649 -0.199396
C20   C     C_1   0.666653 0.645761 0.331351 -0.199396
O11   O     O_R   0.921850 0.770730 0.075840 -0.534283
O12   O     O_R   0.078150 0.270730 0.924160 -0.534282
O13   O     O_R   0.085350 0.439650 0.093390 -0.543574
O14   O     O_R   0.914650 0.939650 0.906610 -0.543574
C21   C     C_R   0.114036 0.608250 0.113821 0.726376
C22   C     C_R   0.885964 0.108250 0.886179 0.726375
O15   O     O_R   0.922860 0.441090 0.086230 -0.536243
O16   O     O_R   0.077140 0.941090 0.913770 -0.536242
O17   O     O_R   0.914540 0.269530 0.917020 -0.538549
O18   O     O_R   0.085460 0.769530 0.082980 -0.538549
C23   C     C_R   0.895962 0.609823 0.106697 0.723236
C24   C     C_R   0.104038 0.109823 0.893303 0.723236
O19   O     O_3   0.997510 0.602520 0.944550 -0.369827
O20   O     O_3   0.002490 0.102520 0.055450 -0.369827
V3    V     V_3+5 0.000460 0.328160 0.010290 1.426646
V4    V     V_3+5 0.999540 0.828160 0.989710 1.426646
N1    N     N_3   0.736712 0.970724 0.662206 -0.662156
H7    H     H_    0.703518 0.849269 0.676760 0.225342
H8    H     H_    0.750785 0.960914 0.596920 0.228790
N2    N     N_3   0.263286 0.470730 0.337796 -0.662157
H9    H     H_    0.296479 0.349272 0.323246 0.225343
H10   H     H_    0.249212 0.460928 0.403082 0.228789

loop_
_geom_bond_atom_site_label_1
_geom_bond_atom_site_label_2
_ccdc_geom_bond_type
O4    V2    S    
C7    H3    S    
N1    H7    S    
C13   C15   T    
C10   H6    S    
O10   V2    S    
C12   N2    S    
C9    C11   D    
O19   V3    S    
C21   O18   A    
O16   C24   A    
C10   C12   D    
O1    C3    A    
C22   O17   A    
O15   C23   A    
O6    C4    A    
O19   V4    S    
C5    C9    S    
O16   V4    S    
C2    O7    A    
O5    V1    S    
O7    V1    S    
C2    C19   S    
O15   V3    S    
C1    O8    A    
O6    V2    S    
O1    V2    S    
O8    V2    S    
C1    C20   S    
O14   V4    S    
O18   V4    S    
O2    V1    S    
O13   C21   A    
C14   C16   T    
O13   V3    S    
O14   C22   A    
C3    C12   S    
O12   C24   A    
O17   V3    S    
C18   C20   T    
C5    C7    D    
O20   V4    S    
O5    C3    A    
C16   C18   S    
N1    H8    S    
O9    V1    S    
C9    H5    S    
C11   N1    S    
C14   C23   S    
O11   V4    S    
C13   C24   S    
N2    H10   S    
O11   C23   A    
C8    C21   S    
O3    V1    S    
C7    C22   S    
C17   C19   T    
C6    C8    D    
O4    C2    A    
O12   V3    S    
O9    V2    S    
O2    C4    A    
O10   V1    S    
C4    C11   S    
C15   C17   S    
N2    H9    S    
C6    H2    S    
C5    H1    S    
C8    H4    S    
O20   V3    S    
O3    C1    A    
C6    C10   S    
