data_mof_unit_39399.cif
_audit_creation_date              2012-12-10T17:48:52-0500
_audit_creation_method            fapswitch 2.2
_symmetry_space_group_name_H-M    P1
_symmetry_Int_Tables_number       1
_space_group_crystal_system       triclinic
_cell_length_a                    10.719273
_cell_length_b                    14.699801
_cell_length_c                    14.720048
_cell_angle_alpha                 65.079478
_cell_angle_beta                  103.477099
_cell_angle_gamma                 103.013665
_cell_volume                      2024.25954963

loop_
_atom_site_label
_atom_site_type_symbol
_atom_type_description
_atom_site_fract_x
_atom_site_fract_y
_atom_site_fract_z
_atom_type_partial_charge
C1    C     C_R   0.479291 0.119685 0.312265 0.797026
C2    C     C_3   0.878304 0.000306 0.500026 0.146877
C3    C     C_3   0.922721 0.899339 0.580130 -0.386605
C4    C     C_3   0.964570 0.089211 0.526068 -0.364643
C5    C     C_R   0.477544 0.187359 0.205067 -0.067438
C6    C     C_R   0.539520 0.813100 0.795674 -0.112434
C7    C     C_R   0.482439 0.217670 0.031159 -0.186096
C8    C     C_R   0.472013 0.150299 0.130626 -0.181721
C9    C     C_R   0.491148 0.291771 0.178812 -0.249807
C10   C     C_R   0.508924 0.361379 0.080539 0.091019
C11   C     C_R   0.501369 0.322686 0.005682 0.153704
C12   C     C_R   0.260020 0.000391 0.499997 0.756302
C13   C     C_R   0.532659 0.467992 0.054654 0.067881
C14   C     C_R   0.534805 0.534691 0.951522 0.084237
C15   C     C_R   0.529615 0.492996 0.879441 -0.220410
C16   C     C_R   0.513911 0.389035 0.906450 -0.229469
C17   C     C_R   0.557748 0.510002 0.128785 -0.240784
C18   C     C_R   0.576311 0.613874 0.102257 -0.177910
C19   C     C_R   0.567712 0.680629 0.000654 0.095526
C20   C     C_R   0.544598 0.641027 0.924209 0.052565
C21   C     C_R   0.580794 0.786392 0.973458 0.253089
C22   C     C_R   0.567819 0.851636 0.871445 -0.215967
C23   C     C_R   0.522577 0.880324 0.687795 0.815056
C24   C     C_R   0.527331 0.708843 0.822394 -0.262231
C25   C     C_R   0.716069 0.285037 0.668533 -0.314591
C26   C     C_R   0.682497 0.203348 0.638894 0.077574
C27   C     C_R   0.518799 0.285214 0.508949 0.002972
C28   C     C_R   0.548735 0.371448 0.534899 -0.021479
C29   C     C_R   0.649320 0.368991 0.617280 0.162543
C30   C     C_R   0.482548 0.458737 0.483350 0.077271
C31   C     C_R   0.517957 0.541543 0.516254 0.082687
C32   C     C_R   0.617951 0.534087 0.599652 -0.240055
C33   C     C_R   0.682211 0.449777 0.648597 -0.203242
C34   C     C_R   0.740117 0.999914 0.499978 0.757460
C35   C     C_R   0.382427 0.466133 0.400043 -0.241320
C36   C     C_R   0.317739 0.550224 0.351415 -0.183324
C37   C     C_R   0.350592 0.630988 0.382750 0.165151
C38   C     C_R   0.451636 0.628767 0.464786 -0.019820
C39   C     C_R   0.283272 0.714652 0.331901 -0.291397
C40   C     C_R   0.316764 0.796315 0.361571 0.087286
C41   C     C_R   0.481701 0.715082 0.490597 0.012164
C42   C     C_3   0.042448 0.013720 0.394096 -0.380121
C43   C     C_3   0.898321 0.013262 0.394073 -0.363123
C44   C     C_3   0.066861 0.899730 0.580277 -0.369121
C45   C     C_3   0.107451 0.089561 0.526103 -0.371559
C46   C     C_3   0.122281 0.000929 0.500140 0.150251
Cu1   Cu    Cu3+1 0.465900 0.918260 0.475680 0.935648
Cu2   Cu    Cu3+1 0.534100 0.081740 0.524320 0.927937
H1    H     H_    0.051117 0.951114 0.373268 0.176136
H2    H     H_    0.952479 0.081929 0.602078 0.168166
H3    H     H_    0.122861 0.889374 0.656997 0.155637
H4    H     H_    0.908885 0.888775 0.656782 0.153961
H5    H     H_    0.510936 0.360426 0.848931 0.153369
H6    H     H_    0.500114 0.681904 0.761973 0.158927
H7    H     H_    0.577778 0.932472 0.851556 0.182929
H8    H     H_    0.595590 0.640910 0.162779 0.197977
H9    H     H_    0.477728 0.187723 0.974396 0.147096
H10   H     H_    0.461578 0.069632 0.149477 0.174016
H11   H     H_    0.486337 0.316825 0.236685 0.145923
H12   H     H_    0.080696 0.086171 0.335581 0.151705
H13   H     H_    0.541888 0.538728 0.801714 0.141153
H14   H     H_    0.568009 0.464773 0.209036 0.147736
H15   H     H_    0.758452 0.447673 0.712196 0.144660
H16   H     H_    0.558842 0.721166 0.550212 0.118385
H17   H     H_    0.265593 0.861272 0.321878 0.124499
H18   H     H_    0.793315 0.282336 0.731606 0.142264
H19   H     H_    0.733214 0.138164 0.678918 0.125138
H20   H     H_    0.442113 0.279373 0.448979 0.119262
H21   H     H_    0.866719 0.085471 0.335516 0.157036
H22   H     H_    0.351316 0.407916 0.370085 0.128200
H23   H     H_    0.205599 0.717127 0.269149 0.144685
H24   H     H_    0.076056 0.834576 0.563609 0.177048
H25   H     H_    0.863143 0.834128 0.563259 0.171143
H26   H     H_    0.163633 0.082328 0.602111 0.175590
H27   H     H_    0.146256 0.163436 0.469602 0.165334
H28   H     H_    0.935054 0.163020 0.469574 0.174749
N1    N     N_R   0.585360 0.204570 0.560800 -0.176833
N2    N     N_R   0.414550 0.795430 0.439160 -0.178422
O1    O     O_R   0.455060 0.022100 0.338110 -0.582417
O2    O     O_R   0.512640 0.160150 0.379180 -0.588115
O3    O     O_R   0.288900 0.930980 0.479450 -0.589387
O4    O     O_R   0.346480 0.069030 0.520520 -0.589861
O5    O     O_R   0.487360 0.839850 0.620820 -0.589513
O6    O     O_R   0.544940 0.977900 0.661890 -0.586577
O7    O     O_R   0.653520 0.930970 0.479480 -0.584402
O8    O     O_R   0.711100 0.069020 0.520550 -0.590560
Br1   Br    Br    0.614430 0.847006 0.071471 -0.583098
H29   H     H_    0.241128 0.552153 0.288083 0.144792
H30   H     H_    0.649075 0.592326 0.629579 0.126316
H31   H     H_    0.838287 0.950371 0.373411 0.187794

loop_
_geom_bond_atom_site_label_1
_geom_bond_atom_site_label_2
_ccdc_geom_bond_type
C21   Br1   S    
C19   C20   A    
Cu1   O1    S    
C7    C8    A    
C45   C46   S    
C36   H29   S    
C7    C11   A    
C23   O5    A    
C30   C35   A    
C1    C5    S    
C26   H19   S    
Cu1   O7    S    
C36   C37   A    
C19   C21   A    
C42   C46   S    
C30   C31   A    
C24   H6    S    
C15   C16   A    
C6    C22   A    
C29   C33   A    
C18   C19   A    
C34   O8    A    
C20   C24   A    
C16   H5    S    
C27   H20   S    
C8    H10   S    
C32   H30   S    
C35   H22   S    
Cu1   O5    S    
C9    C10   A    
C18   H8    S    
C2    C34   S    
C43   H21   S    
C21   C22   A    
C44   C46   S    
C4    C45   S    
C25   C29   A    
C3    C44   S    
C26   N1    A    
C23   O6    A    
C43   H31   S    
Cu1   Cu2   S    
C14   C20   A    
C38   C41   A    
C12   C46   S    
C42   H12   S    
C41   N2    A    
C25   C26   A    
Cu2   O6    S    
C4    H2    S    
C45   H26   S    
C9    H11   S    
C34   O7    A    
Cu2   N1    S    
C2    C4    S    
C5    C9    A    
C37   C38   A    
C17   H14   S    
C11   C16   A    
C31   C32   A    
C2    C43   S    
C33   H15   S    
C6    C24   A    
C17   C18   A    
C15   H13   S    
C12   O4    A    
C44   H3    S    
C40   H17   S    
C1    O1    A    
C40   N2    A    
C42   C43   S    
C39   C40   A    
C28   C29   A    
C25   H18   S    
C27   N1    A    
C10   C13   A    
C5    C8    A    
C3    H4    S    
C22   H7    S    
C41   H16   S    
C31   C38   A    
C13   C17   A    
C45   H27   S    
C32   C33   A    
Cu2   O2    S    
C28   C30   A    
C2    C3    S    
C37   C39   A    
C6    C23   S    
Cu2   O4    S    
C12   O3    A    
C44   H24   S    
Cu2   O8    S    
Cu1   O3    S    
C3    H25   S    
C4    H28   S    
C10   C11   A    
C42   H1    S    
C27   C28   A    
C1    O2    A    
C39   H23   S    
C14   C15   A    
C35   C36   A    
Cu1   N2    S    
C13   C14   A    
C7    H9    S    
