data_mof_unit_60348.cif
_audit_creation_date              2012-12-10T21:23:28-0500
_audit_creation_method            fapswitch 2.2
_symmetry_space_group_name_H-M    P1
_symmetry_Int_Tables_number       1
_space_group_crystal_system       monoclinic
_cell_length_a                    25.015035
_cell_length_b                    24.924326
_cell_length_c                    16.716901
_cell_angle_alpha                 90.0
_cell_angle_beta                  90.000012
_cell_angle_gamma                 90.0
_cell_volume                      10422.7017012

loop_
_atom_site_label
_atom_site_type_symbol
_atom_type_description
_atom_site_fract_x
_atom_site_fract_y
_atom_site_fract_z
_atom_type_partial_charge
C1    C     C_R   0.073525 0.426758 0.499905 1.052811
C2    C     C_R   0.986405 0.545378 0.251833 0.156747
C3    C     C_R   0.013595 0.545378 0.748167 0.156747
C4    C     C_R   0.013595 0.454622 0.251833 0.156747
C5    C     C_R   0.486405 0.954622 0.748167 0.156747
C6    C     C_R   0.486405 0.045378 0.251833 0.156747
C7    C     C_R   0.513595 0.045378 0.748167 0.156747
C8    C     C_R   0.513595 0.954622 0.251833 0.156747
C9    C     C_R   0.000000 0.500000 0.875630 0.108696
C10   C     C_R   1.000000 0.500000 0.124369 0.108696
C11   C     C_R   0.500000 0.000000 0.875630 0.108696
C12   C     C_R   0.926474 0.573242 0.499905 1.052811
C13   C     C_R   0.500000 0.000000 0.124369 0.108696
C14   C     C_1   1.000000 0.500000 0.963424 0.014461
C15   C     C_1   0.000000 0.500000 0.036576 0.014461
C16   C     C_1   0.500000 0.000000 0.963424 0.014461
C17   C     C_1   0.500000 0.000000 0.036576 0.014461
C18   C     C_R   0.196795 0.650741 0.556884 -0.182790
C19   C     C_R   0.848153 0.302549 0.449466 -0.181008
C20   C     C_R   0.803205 0.349259 0.556884 -0.182791
C21   C     C_R   0.151847 0.697452 0.449466 -0.181007
C22   C     C_R   0.803205 0.650741 0.443116 -0.182791
C23   C     C_R   0.926474 0.426758 0.500095 1.052811
C24   C     C_R   0.151847 0.302549 0.550534 -0.181008
C25   C     C_R   0.196795 0.349259 0.443116 -0.182791
C26   C     C_R   0.848153 0.697451 0.550534 -0.181007
C27   C     C_R   0.696795 0.150741 0.556884 -0.182791
C28   C     C_R   0.348153 0.802548 0.449466 -0.181007
C29   C     C_R   0.303205 0.849259 0.556884 -0.182791
C30   C     C_R   0.651847 0.197451 0.449466 -0.181008
C31   C     C_R   0.303205 0.150741 0.443116 -0.182791
C32   C     C_R   0.651847 0.802548 0.550534 -0.181008
C33   C     C_R   0.696795 0.849259 0.443116 -0.182791
C34   C     C_R   0.073525 0.573242 0.500095 1.052810
C35   C     C_R   0.348153 0.197451 0.550534 -0.181008
C36   C     C_R   0.158508 0.610377 0.555662 0.411748
C37   C     C_R   0.887965 0.341363 0.447285 0.429866
C38   C     C_R   0.841492 0.389622 0.555662 0.411748
C39   C     C_R   0.112035 0.658636 0.447286 0.429866
C40   C     C_R   0.841492 0.610377 0.444337 0.411749
C41   C     C_R   0.112035 0.341363 0.552714 0.429867
C42   C     C_R   0.158508 0.389622 0.444337 0.411749
C43   C     C_R   0.887965 0.658636 0.552714 0.429866
C44   C     C_R   0.658508 0.110377 0.555662 0.411749
C45   C     C_R   0.573525 0.926758 0.499905 1.052811
C46   C     C_R   0.387965 0.841364 0.447286 0.429866
C47   C     C_R   0.341492 0.889622 0.555662 0.411748
C48   C     C_R   0.612035 0.158636 0.447286 0.429866
C49   C     C_R   0.341492 0.110377 0.444337 0.411749
C50   C     C_R   0.612035 0.841364 0.552714 0.429866
C51   C     C_R   0.658508 0.889622 0.444337 0.411749
C52   C     C_R   0.387965 0.158636 0.552714 0.429866
C53   C     C_R   0.115103 0.614255 0.500716 -0.309510
C54   C     C_R   0.884897 0.385745 0.500716 -0.309509
C55   C     C_R   0.884897 0.614255 0.499284 -0.309509
C56   C     C_R   0.426474 0.073242 0.499905 1.052811
C57   C     C_R   0.115103 0.385745 0.499284 -0.309510
C58   C     C_R   0.615103 0.114255 0.500716 -0.309510
C59   C     C_R   0.384897 0.885745 0.500716 -0.309510
C60   C     C_R   0.384897 0.114255 0.499284 -0.309510
C61   C     C_R   0.615103 0.885745 0.499284 -0.309510
C62   C     C_R   0.193300 0.693408 0.504073 -0.043853
C63   C     C_R   0.806700 0.306592 0.504073 -0.043853
C64   C     C_R   0.806700 0.693408 0.495926 -0.043853
C65   C     C_R   0.193300 0.306591 0.495927 -0.043853
C66   C     C_R   0.693300 0.193408 0.504073 -0.043853
C67   C     C_R   0.426474 0.926758 0.500095 1.052811
C68   C     C_R   0.306700 0.806591 0.504073 -0.043853
C69   C     C_R   0.306700 0.193408 0.495927 -0.043853
C70   C     C_R   0.693300 0.806591 0.495926 -0.043853
C71   C     C_1   0.233184 0.733230 0.505053 0.051655
C72   C     C_1   0.766816 0.266770 0.505053 0.051655
C73   C     C_1   0.766816 0.733230 0.494947 0.051656
C74   C     C_1   0.233184 0.266770 0.494947 0.051655
C75   C     C_1   0.733184 0.233230 0.505053 0.051655
C76   C     C_1   0.266816 0.766770 0.505053 0.051656
C77   C     C_1   0.266816 0.233230 0.494947 0.051655
C78   C     C_R   0.573525 0.073242 0.500095 1.052811
C79   C     C_1   0.733184 0.766770 0.494947 0.051656
C80   C     C_R   0.986154 0.453769 0.832420 -0.217194
C81   C     C_R   0.986154 0.546231 0.167580 -0.217194
C82   C     C_R   0.013846 0.546231 0.832420 -0.217194
C83   C     C_R   0.013846 0.453769 0.167580 -0.217194
C84   C     C_R   0.486154 0.953769 0.832420 -0.217193
C85   C     C_R   0.486154 0.046231 0.167580 -0.217194
C86   C     C_R   0.513846 0.046231 0.832420 -0.217194
C87   C     C_R   0.513846 0.953769 0.167580 -0.217194
C88   C     C_R   0.986405 0.454622 0.748167 0.156747
H1    H     H_    0.229861 0.648955 0.598683 0.213233
H2    H     H_    0.349291 0.768774 0.408676 0.214007
H3    H     H_    0.270139 0.851045 0.598682 0.213233
H4    H     H_    0.650709 0.231226 0.408676 0.214007
H5    H     H_    0.270139 0.148955 0.401317 0.213233
H6    H     H_    0.650709 0.768774 0.591324 0.214007
H7    H     H_    0.729861 0.851045 0.401317 0.213233
H8    H     H_    0.349291 0.231226 0.591324 0.214007
H9    H     H_    0.975208 0.417256 0.863492 0.167231
H10   H     H_    0.975208 0.582744 0.136508 0.167230
H11   H     H_    0.024792 0.582744 0.863492 0.167230
H12   H     H_    0.849291 0.268774 0.408676 0.214007
H13   H     H_    0.024792 0.417256 0.136508 0.167230
H14   H     H_    0.475208 0.917256 0.863492 0.167231
H15   H     H_    0.475208 0.082744 0.136508 0.167230
H16   H     H_    0.524792 0.082744 0.863492 0.167230
H17   H     H_    0.524792 0.917256 0.136508 0.167231
H18   H     H_    0.975601 0.418794 0.715540 0.192312
H19   H     H_    0.975601 0.581206 0.284459 0.192312
H20   H     H_    0.024399 0.581206 0.715540 0.192312
H21   H     H_    0.024399 0.418794 0.284459 0.192312
H22   H     H_    0.475601 0.918794 0.715540 0.192312
H23   H     H_    0.770138 0.351045 0.598682 0.213233
H24   H     H_    0.475601 0.081206 0.284459 0.192312
H25   H     H_    0.524399 0.081206 0.715540 0.192312
H26   H     H_    0.524399 0.918794 0.284459 0.192312
H27   H     H_    0.233514 0.524810 0.693705 0.398926
H28   H     H_    0.969323 0.266451 0.303669 0.393738
H29   H     H_    0.766486 0.475190 0.693704 0.398926
H30   H     H_    0.030679 0.733548 0.303667 0.393738
H31   H     H_    0.766486 0.524810 0.306295 0.398926
H32   H     H_    0.030677 0.266451 0.696331 0.393738
H33   H     H_    0.233513 0.475188 0.306292 0.398926
H34   H     H_    0.150709 0.731226 0.408676 0.214007
H35   H     H_    0.969323 0.733549 0.696330 0.393738
H36   H     H_    0.733514 0.024810 0.693704 0.398926
H37   H     H_    0.469323 0.766451 0.303669 0.393738
H38   H     H_    0.266485 0.975192 0.693700 0.398927
H39   H     H_    0.530678 0.233548 0.303667 0.393738
H40   H     H_    0.266486 0.024810 0.306295 0.398926
H41   H     H_    0.530677 0.766451 0.696330 0.393738
H42   H     H_    0.733514 0.975190 0.306296 0.398926
H43   H     H_    0.469323 0.233549 0.696330 0.393739
H44   H     H_    0.770138 0.648955 0.401317 0.213233
H45   H     H_    0.150709 0.268774 0.591324 0.214007
H46   H     H_    0.229861 0.351045 0.401318 0.213233
H47   H     H_    0.849291 0.731226 0.591324 0.214007
H48   H     H_    0.729861 0.148955 0.598682 0.213233
N1    N     N_R   1.000000 0.500000 0.707230 -0.119022
N2    N     N_R   0.000000 0.500000 0.292770 -0.119022
N3    N     N_R   0.500000 0.000000 0.707230 -0.119022
N4    N     N_R   0.500000 0.000000 0.292770 -0.119022
O1    O     O_R   0.055440 0.444550 0.566570 -0.563748
O2    O     O_R   0.444560 0.055450 0.433430 -0.592854
O3    O     O_R   0.444560 0.055450 0.566570 -0.563748
O4    O     O_R   0.555440 0.944550 0.433430 -0.592854
O5    O     O_R   0.444560 0.944550 0.433430 -0.563747
O6    O     O_R   0.555440 0.055450 0.566570 -0.592854
O7    O     O_R   0.555440 0.055450 0.433430 -0.563748
O8    O     O_R   0.444560 0.944550 0.566570 -0.592854
O9    O     O_2   0.132149 0.563754 0.694240 -0.307791
O10   O     O_2   0.155624 0.503599 0.583724 -0.279276
O11   O     O_3   0.231946 0.554870 0.655011 -0.532280
O12   O     O_R   0.944560 0.555450 0.433430 -0.592854
O13   O     O_2   0.930496 0.368121 0.306641 -0.304089
O14   O     O_2   0.993470 0.344221 0.413529 -0.306856
O15   O     O_3   0.940644 0.267776 0.344484 -0.532757
O16   O     O_2   0.867851 0.436246 0.694240 -0.307791
O17   O     O_2   0.844376 0.496401 0.583724 -0.279276
O18   O     O_3   0.768054 0.445130 0.655011 -0.532280
O19   O     O_2   0.069504 0.631879 0.306641 -0.304092
O20   O     O_2   0.006530 0.655779 0.413529 -0.306853
O21   O     O_3   0.059356 0.732224 0.344484 -0.532757
O22   O     O_2   0.867851 0.563754 0.305759 -0.307790
O23   O     O_R   0.944560 0.555450 0.566570 -0.563748
O24   O     O_2   0.844376 0.503599 0.416276 -0.279277
O25   O     O_3   0.768054 0.554870 0.344989 -0.532281
O26   O     O_2   0.069504 0.368120 0.693359 -0.304090
O27   O     O_2   0.006530 0.344221 0.586471 -0.306856
O28   O     O_3   0.059356 0.267776 0.655516 -0.532757
O29   O     O_2   0.132149 0.436246 0.305759 -0.307794
O30   O     O_2   0.155624 0.496401 0.416276 -0.279274
O31   O     O_3   0.231946 0.445130 0.344989 -0.532280
O32   O     O_2   0.930496 0.631879 0.693359 -0.304089
O33   O     O_2   0.993470 0.655779 0.586471 -0.306856
O34   O     O_R   0.055440 0.444550 0.433430 -0.592854
O35   O     O_3   0.940644 0.732224 0.655516 -0.532756
O36   O     O_2   0.632149 0.063754 0.694240 -0.307790
O37   O     O_2   0.655624 0.003599 0.583724 -0.279277
O38   O     O_3   0.731946 0.054870 0.655011 -0.532280
O39   O     O_2   0.430496 0.868120 0.306641 -0.304089
O40   O     O_2   0.493470 0.844221 0.413529 -0.306856
O41   O     O_3   0.440644 0.767776 0.344484 -0.532757
O42   O     O_2   0.367851 0.936246 0.694240 -0.307787
O43   O     O_2   0.344376 0.996401 0.583723 -0.279280
O44   O     O_3   0.268054 0.945130 0.655011 -0.532281
O45   O     O_R   0.944560 0.444550 0.433430 -0.563747
O46   O     O_2   0.569504 0.131879 0.306641 -0.304092
O47   O     O_2   0.506530 0.155779 0.413529 -0.306853
O48   O     O_3   0.559356 0.232224 0.344484 -0.532757
O49   O     O_2   0.367851 0.063754 0.305759 -0.307791
O50   O     O_2   0.344376 0.003599 0.416276 -0.279276
O51   O     O_3   0.268054 0.054870 0.344989 -0.532281
O52   O     O_2   0.569504 0.868120 0.693359 -0.304089
O53   O     O_2   0.506530 0.844221 0.586471 -0.306856
O54   O     O_3   0.559356 0.767776 0.655516 -0.532757
O55   O     O_2   0.632149 0.936246 0.305760 -0.307790
O56   O     O_R   0.055440 0.555450 0.566570 -0.592854
O57   O     O_2   0.655624 0.996401 0.416276 -0.279278
O58   O     O_3   0.731946 0.945130 0.344989 -0.532280
O59   O     O_2   0.430496 0.131879 0.693359 -0.304089
O60   O     O_2   0.493470 0.155779 0.586471 -0.306856
O61   O     O_3   0.440644 0.232224 0.655516 -0.532757
O62   O     O_R   0.055440 0.555450 0.433430 -0.563747
O63   O     O_R   0.944560 0.444550 0.566570 -0.592854
O64   O     O_R   0.555440 0.944550 0.566570 -0.563748
S1    S     S_3+6 0.168146 0.556187 0.623227 0.060693
S2    S     S_3+6 0.440125 0.831700 0.376788 0.043112
S3    S     S_3+6 0.331854 0.943813 0.623227 0.060693
S4    S     S_3+6 0.559875 0.168300 0.376788 0.043111
S5    S     S_3+6 0.331854 0.056187 0.376773 0.060693
S6    S     S_3+6 0.559875 0.831700 0.623212 0.043111
S7    S     S_3+6 0.668146 0.943813 0.376773 0.060693
S8    S     S_3+6 0.440125 0.168300 0.623212 0.043111
S9    S     S_3+6 0.940125 0.331699 0.376788 0.043112
S10   S     S_3+6 0.831854 0.443813 0.623227 0.060693
S11   S     S_3+6 0.059875 0.668300 0.376788 0.043111
S12   S     S_3+6 0.831854 0.556187 0.376773 0.060693
S13   S     S_3+6 0.059875 0.331699 0.623212 0.043111
S14   S     S_3+6 0.168146 0.443813 0.376773 0.060693
S15   S     S_3+6 0.940125 0.668300 0.623212 0.043112
S16   S     S_3+6 0.668146 0.056187 0.623227 0.060693
Zn1   Zn    Zn3+2 1.000000 0.500000 0.588860 1.131718
Zn2   Zn    Zn3+2 0.000000 0.500000 0.411140 1.131718
Zn3   Zn    Zn3+2 0.500000 0.000000 0.588860 1.131718
Zn4   Zn    Zn3+2 0.500000 0.000000 0.411140 1.131718

loop_
_geom_bond_atom_site_label_1
_geom_bond_atom_site_label_2
_ccdc_geom_bond_type
C24   H45   S    
C32   H6    S    
C4    H21   S    
H30   O21   S    
O12   Zn2   S    
C46   C59   A    
C84   H14   S    
C82   H11   S    
O62   Zn2   S    
C69   C77   S    
C44   S16   S    
C86   H16   S    
O13   S9    D    
H41   O54   S    
C6    C85   A    
O5    Zn4   S    
O22   S12   D    
C35   H8    S    
O24   S12   D    
C39   C53   A    
O36   S16   D    
C28   C46   A    
O17   S10   D    
O60   S8    D    
O44   S3    S    
C47   S3    S    
C29   C47   A    
C27   H48   S    
C30   C48   A    
O34   Zn2   S    
C28   C68   A    
O50   S5    D    
C31   C49   A    
O59   S8    D    
C22   H44   S    
C10   C15   S    
O14   S9    D    
O3    Zn3   S    
C71   C76   T    
C80   H9    S    
C7    C86   A    
C81   H10   S    
N2    Zn2   S    
C11   C86   A    
N3    Zn3   S    
C29   C68   A    
N1    Zn1   S    
C2    H19   S    
C35   C69   A    
O43   S3    D    
O63   Zn1   S    
O42   S3    D    
O2    Zn4   S    
C21   H34   S    
O15   S9    S    
C26   C64   A    
H28   O15   S    
C26   H47   S    
C19   C37   A    
C59   C67   S    
C56   O3    A    
H38   O44   S    
C27   C44   A    
C44   C58   A    
C16   C17   T    
C74   C77   T    
C51   C61   A    
O47   S4    D    
C67   O5    A    
C45   O4    A    
C64   C73   S    
C3    N1    A    
O28   S13   S    
C52   C60   A    
H31   O25   S    
O61   S8    S    
H36   O38   S    
O56   Zn1   S    
C85   H15   S    
C8    H26   S    
C9    C82   A    
C13   C87   A    
C56   O2    A    
O29   S14   D    
O21   S11   S    
O39   S2    D    
C38   C54   A    
N4    Zn4   S    
C24   C41   A    
C40   S12   S    
C6    H24   S    
C38   S10   S    
C72   C75   T    
O40   S2    D    
C33   H7    S    
C42   C57   A    
C37   S9    S    
C26   C43   A    
C5    N3    A    
O23   Zn1   S    
C1    O34   A    
O19   S11   D    
H37   O41   S    
C2    N2    A    
C45   O64   A    
C25   C65   A    
C33   C51   A    
C30   H4    S    
O9    S1    D    
C23   O45   A    
C5    C84   A    
C78   O6    A    
C88   H18   S    
C18   C62   A    
C32   C70   A    
C4    N2    A    
C31   H5    S    
O20   S11   D    
C22   C64   A    
C10   C83   A    
C56   C60   S    
C23   O63   A    
C9    C80   A    
C9    C14   S    
O55   S7    D    
O57   S7    D    
C1    C57   S    
O54   S6    S    
C20   H23   S    
C20   C38   A    
C11   C16   S    
O25   S12   S    
H35   O35   S    
C87   H17   S    
C31   C69   A    
C40   C55   A    
C22   C40   A    
C48   S4    S    
C3    C82   A    
H39   O48   S    
C73   C79   T    
C30   C66   A    
O11   S1    S    
O58   S7    S    
C49   C60   A    
O26   S13   D    
O52   S6    D    
C21   C62   A    
C36   C53   A    
O32   S15   D    
C19   C63   A    
C78   O7    A    
O51   S5    S    
C37   C54   A    
C33   C70   A    
C43   C55   A    
H33   O31   S    
O45   Zn2   S    
O64   Zn3   S    
O16   S10   D    
C11   C84   A    
C68   C76   S    
O38   S16   S    
O37   S16   D    
C13   C85   A    
C25   H46   S    
C29   H3    S    
H32   O28   S    
C23   C54   S    
C34   O56   A    
C46   S2    S    
O48   S4    S    
C65   C74   S    
C67   O8    A    
H27   O11   S    
H29   O18   S    
C18   H1    S    
O35   S15   S    
C21   C39   A    
O8    Zn3   S    
C43   S15   S    
O10   S1    D    
C42   S14   S    
C25   C42   A    
C41   S13   S    
C19   H12   S    
C48   C58   A    
O46   S4    D    
C3    H20   S    
O18   S10   S    
C10   C81   A    
C13   C17   S    
O33   S15   D    
C8    N4    A    
C8    C87   A    
C39   S11   S    
H40   O51   S    
C20   C63   A    
O41   S2    S    
C41   C57   A    
C80   C88   A    
C27   C66   A    
O49   S5    D    
C12   O23   A    
C7    N3    A    
O6    Zn3   S    
C7    H25   S    
O53   S6    D    
C70   C79   S    
C4    C83   A    
C34   O62   A    
C24   C65   A    
C66   C75   S    
C45   C61   S    
C62   C71   S    
C32   C50   A    
C36   S1    S    
C6    N4    A    
H43   O61   S    
C88   N1    A    
O4    Zn4   S    
O31   S14   S    
C1    O1    A    
C58   C78   S    
C47   C59   A    
C12   O12   A    
C51   S7    S    
C12   C55   S    
C63   C72   S    
C50   S6    S    
C34   C53   S    
C5    H22   S    
C49   S5    S    
C35   C52   A    
C52   S8    S    
C50   C61   A    
C83   H13   S    
C14   C15   T    
C2    C81   A    
C28   H2    S    
H42   O58   S    
C18   C36   A    
O27   S13   D    
O7    Zn4   S    
O1    Zn1   S    
O30   S14   D    
