data_mof_unit_15276.cif
_audit_creation_date              2012-12-11T17:12:43-0500
_audit_creation_method            fapswitch 2.2
_symmetry_space_group_name_H-M    P1
_symmetry_Int_Tables_number       1
_space_group_crystal_system       triclinic
_cell_length_a                    17.180465
_cell_length_b                    6.880073
_cell_length_c                    14.431875
_cell_angle_alpha                 89.996173
_cell_angle_beta                  110.009606
_cell_angle_gamma                 90.004093
_cell_volume                      1602.91327445

loop_
_atom_site_label
_atom_site_type_symbol
_atom_type_description
_atom_site_fract_x
_atom_site_fract_y
_atom_site_fract_z
_atom_type_partial_charge
O1    O     O_R   0.314130 0.635770 0.168990 -0.542361
O2    O     O_R   0.685870 0.364230 0.831010 -0.542361
O3    O     O_R   0.185870 0.135770 0.331010 -0.542323
O4    O     O_R   0.814130 0.864230 0.668990 -0.542323
O5    O     O_R   0.146800 0.302460 0.139760 -0.536157
O6    O     O_R   0.853200 0.697540 0.860240 -0.536157
O7    O     O_R   0.353200 0.802460 0.360240 -0.536153
O8    O     O_R   0.646800 0.197540 0.639760 -0.536153
C1    C     C_R   0.113988 0.475871 0.112774 0.724165
C2    C     C_R   0.886012 0.524129 0.887226 0.724165
C3    C     C_R   0.386011 0.975873 0.387226 0.724164
C4    C     C_R   0.613988 0.024127 0.612774 0.724163
O9    O     O_R   0.311100 0.305780 0.157130 -0.543337
O10   O     O_R   0.688900 0.694220 0.842870 -0.543337
O11   O     O_R   0.188900 0.805780 0.342870 -0.543321
O12   O     O_R   0.811100 0.194220 0.657130 -0.543320
O13   O     O_R   0.351340 0.139640 0.348510 -0.535585
O14   O     O_R   0.648660 0.860360 0.651490 -0.535584
O15   O     O_R   0.148660 0.639640 0.151490 -0.535585
O16   O     O_R   0.851340 0.360360 0.848510 -0.535585
C5    C     C_R   0.332970 0.476553 0.135713 0.701307
C6    C     C_R   0.667030 0.523447 0.864287 0.701307
C7    C     C_R   0.167026 0.976531 0.364282 0.701304
C8    C     C_R   0.832974 0.023469 0.635718 0.701303
C9    C     C_1   0.533568 0.008862 0.533044 -0.186325
C10   C     C_1   0.466431 0.991138 0.466955 -0.186325
C11   C     C_1   0.966432 0.508865 0.966955 -0.186342
C12   C     C_1   0.033568 0.491135 0.033044 -0.186341
O17   O     O_3   0.263010 0.470920 0.312770 -0.368190
O18   O     O_3   0.736990 0.529080 0.687230 -0.368190
O19   O     O_3   0.236990 0.970920 0.187230 -0.368220
O20   O     O_3   0.763010 0.029080 0.812770 -0.368220
V1    V     V_3+5 0.247590 0.194450 0.238360 1.422221
V2    V     V_3+5 0.752410 0.805550 0.761640 1.422221
V3    V     V_3+5 0.252410 0.694450 0.261640 1.422247
V4    V     V_3+5 0.747590 0.305550 0.738360 1.422248
C13   C     C_R   0.116189 0.999642 0.428377 -0.065132
C14   C     C_R   0.883810 0.000358 0.571622 -0.065132
C15   C     C_R   0.383826 0.499747 0.071642 -0.065164
C16   C     C_R   0.616174 0.500253 0.928358 -0.065164
C17   C     C_R   0.931419 0.784505 0.467517 -0.195949
C18   C     C_R   0.068580 0.215494 0.532483 -0.195949
C19   C     C_R   0.568335 0.284085 0.032154 -0.196171
C20   C     C_R   0.431665 0.715915 0.967846 -0.196171
C21   C     C_R   0.876106 0.827913 0.516357 -0.163934
C22   C     C_R   0.123894 0.172087 0.483643 -0.163934
C23   C     C_R   0.623694 0.327522 0.983380 -0.163925
C24   C     C_R   0.376306 0.672478 0.016620 -0.163925
C25   C     C_R   0.947058 0.132040 0.574982 -0.240887
C26   C     C_R   0.052942 0.867960 0.425018 -0.240887
C27   C     C_R   0.553077 0.632187 0.925201 -0.240984
C28   C     C_R   0.446923 0.367813 0.074799 -0.240984
C29   C     C_R   0.003758 0.087924 0.526840 0.157432
C30   C     C_R   0.996242 0.912076 0.473160 0.157432
C31   C     C_R   0.496339 0.588065 0.973291 0.157536
C32   C     C_R   0.503661 0.411935 0.026709 0.157536
H1    H     H_    0.045639 0.736224 0.381604 0.119598
H2    H     H_    0.954361 0.263776 0.618396 0.119598
H3    H     H_    0.454085 0.235856 0.118021 0.119655
H4    H     H_    0.545914 0.764144 0.881979 0.119655
H5    H     H_    0.172061 0.276521 0.487271 0.130902
H6    H     H_    0.827939 0.723479 0.512729 0.130902
H7    H     H_    0.328257 0.777123 0.013142 0.131002
H8    H     H_    0.671743 0.222877 0.986858 0.131002
H9    H     H_    0.924202 0.649613 0.426634 0.122254
H10   H     H_    0.075798 0.350387 0.573366 0.122254
H11   H     H_    0.575400 0.148960 0.072827 0.122258
H12   H     H_    0.424600 0.851040 0.927173 0.122258

loop_
_geom_bond_atom_site_label_1
_geom_bond_atom_site_label_2
_ccdc_geom_bond_type
C2    C11   S    
O10   V2    S    
C16   C23   A    
C8    C14   S    
C31   C32   A    
O19   V1    S    
O2    C6    A    
C28   H3    S    
C16   C27   A    
C17   C21   A    
O17   V3    S    
O3    C7    A    
C19   C32   A    
C5    C15   S    
O18   V4    S    
C4    C9    S    
O8    C4    A    
C6    C16   S    
O10   C6    A    
O11   C7    A    
C15   C28   A    
C9    C10   T    
O9    C5    A    
O12   C8    A    
C14   C25   A    
O15   V3    S    
C29   C30   A    
O12   V4    S    
O1    C5    A    
C13   C26   A    
O14   V2    S    
C20   C31   A    
O7    V3    S    
O5    C1    A    
C26   C30   A    
O13   V1    S    
C25   C29   A    
O20   V4    S    
O19   V3    S    
O11   V3    S    
O7    C3    A    
C27   C31   A    
O5    V1    S    
C18   C29   A    
C18   C22   A    
O4    C8    A    
O4    V2    S    
C17   C30   A    
C20   H12   S    
O6    V2    S    
O6    C2    A    
O18   V2    S    
C22   H5    S    
O2    V4    S    
O16   V4    S    
O17   V1    S    
C21   H6    S    
C11   C12   T    
C20   C24   A    
O1    V3    S    
C19   H11   S    
O9    V1    S    
O8    V4    S    
C4    O14   A    
C23   H8    S    
C18   H10   S    
O3    V1    S    
C3    O13   A    
C14   C21   A    
C17   H9    S    
C27   H4    S    
C3    C10   S    
C13   C22   A    
C7    C13   S    
C26   H1    S    
C19   C23   A    
C1    O15   A    
C25   H2    S    
C28   C32   A    
C1    C12   S    
C2    O16   A    
C15   C24   A    
C24   H7    S    
O20   V2    S    
