data_mof_unit_65337.cif
_audit_creation_date              2012-12-10T17:07:18-0500
_audit_creation_method            fapswitch 2.2
_symmetry_space_group_name_H-M    P1
_symmetry_Int_Tables_number       1
_space_group_crystal_system       triclinic
_cell_length_a                    30.645546
_cell_length_b                    30.714217
_cell_length_c                    21.092652
_cell_angle_alpha                 90.018251
_cell_angle_beta                  43.677556
_cell_angle_gamma                 89.981389
_cell_volume                      13710.8342321

loop_
_atom_site_label
_atom_site_type_symbol
_atom_type_description
_atom_site_fract_x
_atom_site_fract_y
_atom_site_fract_z
_atom_type_partial_charge
C1    C     C_R   0.306922 0.809853 0.505946 0.989803
C2    C     C_R   0.692300 0.190136 0.495536 0.992638
C3    C     C_R   0.694752 0.810090 0.490709 0.945572
C4    C     C_R   0.307192 0.190087 0.505575 0.983857
C5    C     C_R   0.807144 0.309872 0.505699 0.983624
C6    C     C_R   0.193523 0.690160 0.493085 0.982602
C7    C     C_R   0.192872 0.309864 0.494276 0.984292
C8    C     C_R   0.806456 0.690170 0.506947 0.985761
C9    C     C_R   0.380546 0.869150 0.565082 -0.027847
C10   C     C_R   0.663908 0.088906 0.430782 -0.019853
C11   C     C_R   0.641693 0.919320 0.490188 -0.016984
C12   C     C_R   0.339800 0.085168 0.555534 -0.015267
C13   C     C_R   0.887127 0.367432 0.556115 -0.017894
C14   C     C_R   0.111643 0.632396 0.445879 -0.015407
C15   C     C_R   0.112950 0.367408 0.443755 -0.017909
C16   C     C_R   0.888285 0.632413 0.554237 -0.015323
C17   C     C_R   0.340367 0.839591 0.575756 0.059457
C18   C     C_R   0.698075 0.123598 0.422025 0.055538
C19   C     C_R   0.685510 0.888180 0.465396 0.062883
C20   C     C_R   0.303684 0.119683 0.568574 0.056692
C21   C     C_R   0.846238 0.337780 0.568873 0.059083
C22   C     C_R   0.152904 0.662226 0.431971 0.058863
C23   C     C_R   0.153827 0.337732 0.431028 0.058997
C24   C     C_R   0.847038 0.662272 0.568119 0.058739
C25   C     C_R   0.336041 0.842769 0.513383 -0.189964
C26   C     C_R   0.663047 0.157424 0.488122 -0.197188
C27   C     C_R   0.668523 0.843585 0.477302 -0.209456
C28   C     C_R   0.336567 0.157255 0.513109 -0.200368
C29   C     C_R   0.836720 0.342750 0.512675 -0.203118
C30   C     C_R   0.164062 0.657157 0.486138 -0.202968
C31   C     C_R   0.163332 0.342743 0.487237 -0.203622
C32   C     C_R   0.835883 0.657165 0.513952 -0.204872
C33   C     C_R   0.364436 0.876484 0.450090 -0.234905
C34   C     C_R   0.597496 0.159537 0.553262 -0.226988
C35   C     C_R   0.619889 0.831092 0.487381 -0.200906
C36   C     C_R   0.400913 0.162791 0.457104 -0.214356
C37   C     C_R   0.860146 0.378578 0.455144 -0.217935
C38   C     C_R   0.141592 0.621298 0.543077 -0.208089
C39   C     C_R   0.139938 0.378630 0.544712 -0.217534
C40   C     C_R   0.858320 0.621251 0.457065 -0.207098
C41   C     C_R   0.401026 0.906637 0.442277 0.421662
C42   C     C_R   0.564173 0.128386 0.555895 0.450115
C43   C     C_R   0.584994 0.861839 0.492075 0.417581
C44   C     C_R   0.434782 0.131658 0.453528 0.441717
C45   C     C_R   0.893165 0.410569 0.451381 0.444630
C46   C     C_R   0.105288 0.590402 0.551954 0.425019
C47   C     C_R   0.106937 0.410634 0.548435 0.444447
C48   C     C_R   0.894614 0.590338 0.448209 0.424417
C49   C     C_R   0.408840 0.903425 0.500192 -0.217752
C50   C     C_R   0.596937 0.092119 0.496941 -0.223814
C51   C     C_R   0.593522 0.906019 0.498936 -0.195177
C52   C     C_R   0.404536 0.092242 0.501044 -0.213077
C53   C     C_R   0.907766 0.404649 0.500676 -0.223261
C54   C     C_R   0.091055 0.595436 0.501953 -0.226010
C55   C     C_R   0.092316 0.404665 0.499179 -0.223106
C56   C     C_R   0.908862 0.595412 0.498179 -0.225774
C57   C     C_R   0.939064 0.560274 0.499463 0.904557
C58   C     C_R   0.059752 0.438498 0.500084 0.879660
C59   C     C_R   0.060909 0.560282 0.500581 0.904150
C60   C     C_R   0.940262 0.438504 0.499865 0.879517
C61   C     C_R   0.438741 0.059996 0.499935 0.899882
C62   C     C_R   0.559519 0.938376 0.500097 0.875755
C63   C     C_R   0.562101 0.059438 0.499724 0.875200
C64   C     C_R   0.440271 0.938346 0.499782 0.909990
C65   C     C_R   0.335787 0.750121 0.328517 0.919539
C66   C     C_R   0.664194 0.249863 0.671483 0.921114
C67   C     C_R   0.664233 0.750136 0.671474 0.927225
C68   C     C_R   0.335787 0.249846 0.328526 0.923606
C69   C     C_R   0.836021 0.250388 0.328524 0.936845
C70   C     C_R   0.164063 0.749742 0.671479 0.931133
C71   C     C_R   0.164222 0.250159 0.671473 0.923117
C72   C     C_R   0.835699 0.749931 0.328524 0.886838
C73   C     C_1   0.386532 0.750179 0.226875 -0.178541
C74   C     C_1   0.613447 0.249805 0.773126 -0.178153
C75   C     C_1   0.613530 0.750207 0.773118 -0.181299
C76   C     C_1   0.386494 0.249774 0.226882 -0.177187
C77   C     C_1   0.886784 0.250470 0.226868 -0.184636
C78   C     C_1   0.113305 0.749694 0.773126 -0.184530
C79   C     C_1   0.113526 0.250226 0.773116 -0.177984
C80   C     C_1   0.886442 0.749835 0.226879 -0.178339
C81   C     C_1   0.428838 0.750201 0.142252 0.003470
C82   C     C_1   0.571148 0.249784 0.857748 0.004984
C83   C     C_1   0.571244 0.750224 0.857741 0.003158
C84   C     C_1   0.428775 0.249758 0.142260 0.005669
C85   C     C_1   0.929062 0.250428 0.142247 0.001760
C86   C     C_1   0.071038 0.749699 0.857746 0.000116
C87   C     C_1   0.071267 0.250251 0.857739 0.004686
C88   C     C_1   0.928749 0.749790 0.142254 0.008127
C89   C     C_1   0.478861 0.750216 0.042309 0.011769
C90   C     C_1   0.521137 0.249769 0.957691 0.014363
C91   C     C_1   0.521230 0.750224 0.957684 0.011611
C92   C     C_1   0.478778 0.249760 0.042316 0.014560
C93   C     C_1   0.979016 0.250352 0.042307 0.013802
C94   C     C_1   0.021074 0.749725 0.957685 0.011752
C95   C     C_1   0.021319 0.250296 0.957681 0.013346
C96   C     C_1   0.978744 0.749752 0.042310 0.011982
C97   C     C_R   0.305026 0.808994 0.649453 0.467955
C98   C     C_R   0.765451 0.123460 0.347052 0.471485
C99   C     C_R   0.744194 0.903111 0.428645 0.493715
C100  C     C_R   0.236567 0.115492 0.637247 0.475656
C101  C     C_R   0.815924 0.305134 0.637990 0.474526
C102  C     C_R   0.182305 0.694989 0.363315 0.474163
C103  C     C_R   0.184134 0.305022 0.361940 0.474468
C104  C     C_R   0.817652 0.695100 0.636740 0.473246
C105  C     C_R   0.316660 0.804994 0.702607 -0.247604
C106  C     C_R   0.796957 0.086505 0.290505 -0.246782
C107  C     C_R   0.750503 0.947097 0.439719 -0.263222
C108  C     C_R   0.208633 0.074903 0.679644 -0.245904
C109  C     C_R   0.834902 0.298645 0.681298 -0.243406
C110  C     C_R   0.162503 0.701193 0.321069 -0.243780
C111  C     C_R   0.165163 0.298512 0.318627 -0.243144
C112  C     C_R   0.837454 0.701320 0.678984 -0.242814
C113  C     C_R   0.360459 0.831581 0.686241 -0.159212
C114  C     C_R   0.763146 0.050837 0.304818 -0.191288
C115  C     C_R   0.701535 0.976323 0.480393 -0.181603
C116  C     C_R   0.245621 0.039470 0.657774 -0.185063
C117  C     C_R   0.880987 0.324820 0.659944 -0.179041
C118  C     C_R   0.116440 0.674668 0.343079 -0.182893
C119  C     C_R   0.119091 0.324727 0.339945 -0.179266
C120  C     C_R   0.883503 0.674752 0.657004 -0.181836
C121  C     C_R   0.391425 0.863695 0.619430 -0.114862
C122  C     C_R   0.697620 0.052061 0.372955 -0.157860
C123  C     C_R   0.648419 0.963063 0.502482 -0.178222
C124  C     C_R   0.310380 0.044497 0.597521 -0.119826
C125  C     C_R   0.906256 0.359308 0.599216 -0.150540
C126  C     C_R   0.091830 0.640203 0.403650 -0.150871
C127  C     C_R   0.093829 0.359269 0.400646 -0.150744
C128  C     C_R   0.908098 0.640232 0.596464 -0.151386
H1    H     H_    0.359896 0.878655 0.403702 0.182014
H2    H     H_    0.571815 0.186257 0.601979 0.181323
H3    H     H_    0.608833 0.797075 0.491062 0.200203
H4    H     H_    0.425242 0.192001 0.416077 0.188602
H5    H     H_    0.852011 0.382113 0.413158 0.190409
H6    H     H_    0.150725 0.617754 0.583850 0.191279
H7    H     H_    0.148076 0.382198 0.586692 0.190586
H8    H     H_    0.849182 0.617679 0.416300 0.192185
H9    H     H_    0.291053 0.781489 0.757844 0.139425
H10   H     H_    0.848050 0.085508 0.234354 0.137737
H11   H     H_    0.793912 0.958945 0.415074 0.137016
H12   H     H_    0.157869 0.070814 0.730616 0.138081
H13   H     H_    0.813394 0.273462 0.732595 0.139599
H14   H     H_    0.183360 0.726425 0.270066 0.137187
H15   H     H_    0.186667 0.273282 0.267350 0.139594
H16   H     H_    0.816608 0.726600 0.729962 0.138352
H17   H     H_    0.369351 0.828029 0.727182 0.162372
H18   H     H_    0.787851 0.022323 0.261571 0.166584
H19   H     H_    0.706393 0.009979 0.489742 0.171895
H20   H     H_    0.223753 0.008243 0.689905 0.162733
H21   H     H_    0.895801 0.319216 0.692823 0.162797
H22   H     H_    0.101003 0.680059 0.310998 0.159989
H23   H     H_    0.104284 0.319109 0.307059 0.162657
H24   H     H_    0.898939 0.680153 0.689084 0.160947
H25   H     H_    0.424251 0.883755 0.610927 0.169642
H26   H     H_    0.674398 0.023231 0.379903 0.175415
H27   H     H_    0.612889 0.987242 0.528762 0.144272
H28   H     H_    0.337033 0.016110 0.583912 0.163201
H29   H     H_    0.941174 0.379266 0.586090 0.149260
H30   H     H_    0.056673 0.620115 0.417654 0.151003
H31   H     H_    0.058927 0.379259 0.413737 0.149239
H32   H     H_    0.943241 0.620110 0.582486 0.151112
O1    O     O_R   0.321660 0.769950 0.500020 -0.582766
O2    O     O_R   0.678340 0.230050 0.499980 -0.622094
O3    O     O_R   0.678340 0.769950 0.499980 -0.636915
O4    O     O_R   0.321660 0.230050 0.500020 -0.629270
O5    O     O_R   0.821660 0.269950 0.500020 -0.587622
O6    O     O_R   0.178340 0.730050 0.499980 -0.584978
O7    O     O_R   0.178340 0.269950 0.499980 -0.587180
O8    O     O_R   0.821660 0.730050 0.500020 -0.585778
O9    O     O_R   0.269950 0.821670 0.500000 -0.631876
O10   O     O_R   0.730050 0.178330 0.500000 -0.592746
O11   O     O_R   0.730050 0.821670 0.500000 -0.573286
O12   O     O_R   0.269950 0.178330 0.500000 -0.583850
O13   O     O_R   0.769950 0.321670 0.500000 -0.627906
O14   O     O_R   0.230050 0.678330 0.500000 -0.631583
O15   O     O_R   0.230050 0.321670 0.500000 -0.627162
O16   O     O_R   0.769950 0.678330 0.500000 -0.627229
O17   O     O_R   0.339000 0.724150 0.373720 -0.607347
O18   O     O_R   0.661000 0.275850 0.626280 -0.606011
O19   O     O_R   0.661000 0.724150 0.626280 -0.602916
O20   O     O_R   0.339000 0.275850 0.373720 -0.605356
O21   O     O_R   0.839000 0.224150 0.373720 -0.588693
O22   O     O_R   0.161000 0.775850 0.626280 -0.609960
O23   O     O_R   0.161000 0.224150 0.626280 -0.587223
O24   O     O_R   0.839000 0.775850 0.373720 -0.585716
O25   O     O_R   0.287290 0.775870 0.373700 -0.585187
O26   O     O_R   0.712710 0.224130 0.626300 -0.587277
O27   O     O_R   0.712710 0.775870 0.626300 -0.585222
O28   O     O_R   0.287290 0.224130 0.373700 -0.585745
O29   O     O_R   0.787290 0.275870 0.373700 -0.601474
O30   O     O_R   0.212710 0.724130 0.626300 -0.581759
O31   O     O_R   0.212710 0.275870 0.626300 -0.604568
O32   O     O_R   0.787290 0.724130 0.373700 -0.606266
O33   O     O_R   0.989830 0.545820 0.428700 -0.650434
O34   O     O_R   0.010170 0.454180 0.571300 -0.620307
O35   O     O_R   0.010170 0.545820 0.571300 -0.650084
O36   O     O_R   0.989830 0.454180 0.428700 -0.620582
O37   O     O_R   0.489830 0.045820 0.428700 -0.598075
O38   O     O_R   0.510170 0.954180 0.571300 -0.625305
O39   O     O_R   0.510170 0.045820 0.571300 -0.602537
O40   O     O_R   0.489830 0.954180 0.428700 -0.628256
O41   O     O_R   0.918540 0.545810 0.571290 -0.606915
O42   O     O_R   0.081460 0.454190 0.428710 -0.612418
O43   O     O_R   0.081460 0.545810 0.428710 -0.607126
O44   O     O_R   0.918540 0.454190 0.571290 -0.612212
O45   O     O_R   0.418540 0.045810 0.571290 -0.623644
O46   O     O_R   0.581460 0.954190 0.428710 -0.628447
O47   O     O_R   0.581460 0.045810 0.428710 -0.625110
O48   O     O_R   0.418540 0.954190 0.571290 -0.636813
Zn1   Zn    Zn3+2 0.284530 0.715470 0.500010 1.005215
Zn2   Zn    Zn3+2 0.715470 0.284530 0.499990 0.999270
Zn3   Zn    Zn3+2 0.715470 0.715470 0.499990 0.986836
Zn4   Zn    Zn3+2 0.284530 0.284530 0.500010 0.996107
Zn5   Zn    Zn3+2 0.784530 0.215470 0.500010 0.997574
Zn6   Zn    Zn3+2 0.215470 0.784530 0.499990 0.990952
Zn7   Zn    Zn3+2 0.215470 0.215470 0.499990 1.004450
Zn8   Zn    Zn3+2 0.784530 0.784530 0.500010 1.005278
Zn9   Zn    Zn3+2 0.047600 0.500000 0.404790 0.980774
Zn10  Zn    Zn3+2 0.952400 0.500000 0.595210 0.981758
Zn11  Zn    Zn3+2 0.547600 0.000000 0.404790 0.980604
Zn12  Zn    Zn3+2 0.452400 0.000000 0.595210 0.975722
O49   O     O_3   0.256859 0.785359 0.672604 -0.788187
H33   H     H_    0.237010 0.766258 0.725708 0.327091
O50   O     O_3   0.799636 0.160213 0.326204 -0.786864
H34   H     H_    0.845354 0.154492 0.271937 0.324356
O51   O     O_3   0.796308 0.875958 0.373965 -0.760390
H35   H     H_    0.833143 0.891783 0.352951 0.322579
O52   O     O_3   0.198904 0.151577 0.666977 -0.782027
H36   H     H_    0.153790 0.142890 0.715534 0.326239
O53   O     O_3   0.765305 0.282140 0.667091 -0.780984
H37   H     H_    0.749563 0.261423 0.716042 0.327175
O54   O     O_3   0.232836 0.718412 0.333637 -0.781503
H38   H     H_    0.247882 0.739179 0.285157 0.326821
O55   O     O_3   0.234744 0.281985 0.332866 -0.781540
H39   H     H_    0.250487 0.261227 0.283928 0.327273
O56   O     O_3   0.767132 0.718573 0.666392 -0.782463
H40   H     H_    0.752096 0.739383 0.714852 0.326954
O57   O     O_3   0.426004 0.939949 0.380271 -0.757234
H41   H     H_    0.472046 0.940460 0.339931 0.349786
O58   O     O_3   0.499962 0.134881 0.616442 -0.742794
H42   H     H_    0.486409 0.122761 0.589387 0.336155
O59   O     O_3   0.542307 0.847083 0.492262 -0.771525
H43   H     H_    0.530794 0.871075 0.475355 0.316246
O60   O     O_3   0.496936 0.141238 0.402825 -0.746570
H44   H     H_    0.510831 0.123599 0.424869 0.332224
O61   O     O_3   0.909939 0.446833 0.398915 -0.724745
H45   H     H_    0.915460 0.471889 0.421905 0.354658
O62   O     O_3   0.086887 0.555338 0.607754 -0.751399
H46   H     H_    0.044747 0.545485 0.638277 0.350810
O63   O     O_3   0.090183 0.446954 0.600841 -0.724648
H47   H     H_    0.084704 0.471994 0.577780 0.354534
O64   O     O_3   0.912995 0.555221 0.392454 -0.751458
H48   H     H_    0.955176 0.545370 0.361828 0.350583

loop_
_geom_bond_atom_site_label_1
_geom_bond_atom_site_label_2
_ccdc_geom_bond_type
O48   Zn12  S    
C99   C107  A    
C6    O6    A    
O45   Zn12  S    
O19   Zn3   S    
C70   C78   S    
O14   Zn1   S    
C69   C77   S    
O58   H42   S    
C34   C42   A    
C17   C97   A    
O7    Zn7   S    
C108  C116  A    
C75   C83   T    
C110  C118  A    
C71   C79   S    
O36   Zn9   S    
C72   O32   A    
C109  C117  A    
O64   H48   S    
O34   Zn10  S    
O10   Zn5   S    
C39   H7    S    
C43   O59   S    
O33   Zn9   S    
O9    Zn6   S    
C64   O48   A    
C11   C19   A    
O63   H47   S    
O49   H33   S    
C121  H25   S    
C106  C114  A    
C64   O40   A    
C33   H1    S    
O42   Zn9   S    
C105  C113  A    
O30   Zn1   S    
C86   C94   S    
C46   O62   S    
C20   C28   A    
C52   C61   S    
C36   H4    S    
C119  C127  A    
C120  C128  A    
O4    Zn4   S    
C125  H29   S    
C106  H10   S    
C67   O19   A    
C101  C109  A    
O60   H44   S    
C66   C74   S    
O26   Zn5   S    
C115  H19   S    
C65   C73   S    
C56   C57   S    
O18   Zn2   S    
C112  H16   S    
C103  C111  A    
O59   H43   S    
C113  H17   S    
C110  H14   S    
C40   C48   A    
C93   C95   T    
C34   H2    S    
C8    O8    A    
C77   C85   T    
C12   C52   A    
C85   C93   S    
C26   C34   A    
C104  O56   S    
C23   C103  A    
O13   Zn2   S    
C31   C39   A    
C18   C26   A    
C82   C90   S    
C9    C121  A    
O56   H40   S    
C4    O4    A    
C98   C106  A    
C5    O5    A    
C89   C91   T    
O12   Zn7   S    
C35   C43   A    
O55   H39   S    
O17   Zn1   S    
C46   C54   A    
C3    O3    A    
O31   Zn4   S    
C21   C101  A    
C117  H21   S    
C44   C52   A    
C15   C23   A    
C1    O1    A    
C16   C24   A    
C49   C64   S    
C63   O47   A    
O61   H45   S    
C1    C25   S    
C50   C63   S    
C122  H26   S    
C76   C84   T    
C51   C62   S    
C16   C56   A    
C74   C82   T    
C97   O49   S    
C79   C87   T    
C4    C28   S    
O28   Zn7   S    
C70   O22   A    
C13   C53   A    
C54   C59   S    
C126  H30   S    
O23   Zn7   S    
C65   O25   A    
C100  C108  A    
C115  C123  A    
O43   Zn9   S    
C4    O12   A    
C8    C32   S    
C71   O23   A    
C61   O45   A    
C45   O61   S    
C9    C49   A    
C114  H18   S    
O50   H34   S    
O20   Zn4   S    
C61   O37   A    
C112  C120  A    
C19   C99   A    
C59   O35   A    
C41   O57   S    
C6    O14   A    
O24   Zn8   S    
C27   C35   A    
C39   C47   A    
C21   C29   A    
C68   O20   A    
C7    C31   S    
C72   C80   S    
C87   C95   S    
C104  C112  A    
C24   C104  A    
C15   C55   A    
C100  O52   S    
C24   C32   A    
O32   Zn3   S    
O53   H37   S    
C59   O43   A    
C40   H8    S    
C108  H12   S    
C84   C92   S    
C90   C92   T    
O52   H36   S    
C12   C124  A    
C124  H28   S    
C42   O58   S    
C107  C115  A    
C98   O50   S    
C12   C20   A    
C25   C33   A    
C53   C60   S    
O51   H35   S    
C13   C21   A    
C2    C26   S    
O15   Zn4   S    
C94   C96   T    
C16   C128  A    
C62   O38   A    
C99   O51   S    
O21   Zn5   S    
C73   C81   T    
C58   O34   A    
O11   Zn8   S    
C111  C119  A    
C9    C17   A    
C60   O44   A    
C14   C54   A    
C42   C50   A    
C120  H24   S    
C3    O11   A    
O44   Zn10  S    
C14   C22   A    
O46   Zn11  S    
C68   O28   A    
C37   H5    S    
C36   C44   A    
C67   C75   S    
O25   Zn6   S    
C44   O60   S    
C37   C45   A    
C83   C91   S    
C10   C50   A    
C5    C29   S    
C35   H3    S    
C32   C40   A    
C19   C27   A    
C128  H32   S    
C47   C55   A    
O5    Zn5   S    
C48   C56   A    
C7    O7    A    
O27   Zn8   S    
O3    Zn3   S    
C22   C30   A    
C6    C30   S    
C2    O10   A    
C127  H31   S    
C5    O13   A    
C97   C105  A    
C70   O30   A    
O38   Zn12  S    
O39   Zn12  S    
C17   C25   A    
C10   C122  A    
C14   C126  A    
C71   O31   A    
O41   Zn10  S    
O37   Zn11  S    
C109  H13   S    
O62   H46   S    
C8    O16   A    
C111  H15   S    
C11   C123  A    
C68   C76   S    
C41   C49   A    
C116  H20   S    
C67   O27   A    
O47   Zn11  S    
C22   C102  A    
O16   Zn3   S    
O29   Zn2   S    
C33   C41   A    
C118  H22   S    
O8    Zn8   S    
C48   O64   S    
C3    C27   S    
C7    O15   A    
C81   C89   S    
C20   C100  A    
C80   C88   T    
C66   O26   A    
C57   O33   A    
C38   C46   A    
C43   C51   A    
C102  O54   S    
O1    Zn1   S    
O6    Zn6   S    
C10   C18   A    
C102  C110  A    
C45   C53   A    
C1    O9    A    
C101  O53   S    
C63   O39   A    
C88   C96   S    
C38   H6    S    
C72   O24   A    
C107  H11   S    
C18   C98   A    
O57   H41   S    
C47   O63   S    
C119  H23   S    
C11   C51   A    
C105  H9    S    
C23   C31   A    
C114  C122  A    
C69   O29   A    
C65   O17   A    
C113  C121  A    
C28   C36   A    
C103  O55   S    
C78   C86   T    
C55   C58   S    
C29   C37   A    
O54   H38   S    
O22   Zn6   S    
O40   Zn11  S    
C15   C127  A    
C118  C126  A    
C30   C38   A    
O2    Zn2   S    
C116  C124  A    
C117  C125  A    
C13   C125  A    
C62   O46   A    
O35   Zn10  S    
C60   O36   A    
C123  H27   S    
C58   O42   A    
C69   O21   A    
C2    O2    A    
C66   O18   A    
C57   O41   A    
