data_mof_unit_60964.cif
_audit_creation_date              2012-12-10T17:00:50-0500
_audit_creation_method            fapswitch 2.2
_symmetry_space_group_name_H-M    P1
_symmetry_Int_Tables_number       1
_space_group_crystal_system       triclinic
_cell_length_a                    13.125116
_cell_length_b                    13.108691
_cell_length_c                    19.493024
_cell_angle_alpha                 100.350025
_cell_angle_beta                  80.502847
_cell_angle_gamma                 90.887061
_cell_volume                      3253.69622334

loop_
_atom_site_label
_atom_site_type_symbol
_atom_type_description
_atom_site_fract_x
_atom_site_fract_y
_atom_site_fract_z
_atom_type_partial_charge
C1    C     C_R   0.223001 0.536014 0.526962 0.513432
C2    C     C_2   0.449241 0.525507 0.989568 -0.144085
C3    C     C_2   0.522352 0.479283 0.014208 -0.141980
C4    C     C_R   0.776072 0.463263 0.473018 0.508048
C5    C     C_R   0.513330 0.482967 0.233957 0.039986
C6    C     C_2   0.887444 0.450312 0.462168 -0.082978
C7    C     C_2   0.940528 0.494405 0.512077 -0.150328
C8    C     C_2   0.110196 0.546463 0.540697 -0.106756
C9    C     C_2   0.053449 0.487695 0.498345 -0.153680
C10   C     C_2   0.544637 0.887963 0.530420 -0.085044
C11   C     C_2   0.506860 0.940509 0.487519 -0.149089
C12   C     C_R   0.453768 0.519271 0.913314 0.022308
C13   C     C_2   0.458258 0.110151 0.467091 -0.106186
C14   C     C_2   0.510785 0.053774 0.500610 -0.157322
C15   C     C_R   0.467021 0.223199 0.478966 0.510810
C16   C     C_R   0.533669 0.776348 0.521328 0.508696
C17   C     C_R   0.510244 0.486716 0.309610 0.501813
C18   C     C_R   0.487169 0.511398 0.690662 0.494099
C19   C     C_R   0.474215 0.510224 0.767057 0.036520
C20   C     C_R   0.485204 0.417295 0.793831 -0.009736
C21   C     C_R   0.476399 0.424449 0.867336 -0.091240
C22   C     C_3   0.504051 0.312466 0.744196 -0.237779
C23   C     C_R   0.436188 0.608077 0.886764 -0.123068
C24   C     C_3   0.491690 0.215634 0.779042 -0.324022
C25   C     C_3   0.501718 0.116566 0.723313 -0.449467
C26   C     C_R   0.447377 0.603863 0.814160 -0.135496
C27   C     C_R   0.424754 0.465803 0.133151 -0.112956
C28   C     C_R   0.422537 0.465744 0.204746 -0.127047
C29   C     C_R   0.606789 0.497977 0.190592 -0.123538
C30   C     C_R   0.609425 0.495398 0.118597 -0.116532
C31   C     C_R   0.518226 0.481186 0.089904 0.038645
H1    H     H_    0.682174 0.506277 0.085496 0.106826
H2    H     H_    0.349723 0.453988 0.237468 0.126384
H3    H     H_    0.677773 0.510587 0.212248 0.127414
H4    H     H_    0.589105 0.442674 0.978034 0.121954
H5    H     H_    0.417267 0.681397 0.922149 0.110637
H6    H     H_    0.353936 0.452440 0.111380 0.109129
H7    H     H_    0.436680 0.674659 0.794662 0.130146
H8    H     H_    0.388392 0.571993 0.025752 0.124749
H9    H     H_    0.486259 0.356620 0.890038 0.107456
H10   H     H_    0.440348 0.114313 0.690064 0.158390
H11   H     H_    0.578538 0.112315 0.688925 0.149924
H12   H     H_    0.090734 0.434192 0.452039 0.160084
H13   H     H_    0.493643 0.047905 0.749763 0.147660
H14   H     H_    0.552748 0.213550 0.812096 0.156564
H15   H     H_    0.414468 0.217224 0.812794 0.165210
H16   H     H_    0.448008 0.305755 0.706636 0.163093
H17   H     H_    0.583709 0.310849 0.713885 0.177371
H18   H     H_    0.900629 0.538029 0.561829 0.132071
H19   H     H_    0.073267 0.601361 0.586292 0.107450
H20   H     H_    0.926830 0.412029 0.410708 0.090420
H21   H     H_    0.557217 0.091604 0.538958 0.156735
H22   H     H_    0.470436 0.899921 0.444335 0.134008
H23   H     H_    0.410125 0.072695 0.429825 0.108632
H24   H     H_    0.575317 0.928097 0.576290 0.085102
O1    O     O_3   0.500000 0.500000 0.500000 -0.435700
O2    O     O_R   0.441420 0.437150 0.344000 -0.546436
O3    O     O_R   0.438960 0.578560 0.667440 -0.545327
O4    O     O_R   0.575450 0.541060 0.341470 -0.545015
O5    O     O_R   0.544160 0.443230 0.647100 -0.560127
O6    O     O_R   0.530110 0.266880 0.518530 -0.547068
O7    O     O_R   0.465470 0.738830 0.563940 -0.538534
O8    O     O_R   0.266890 0.467300 0.476120 -0.541952
O9    O     O_R   0.737530 0.526990 0.441410 -0.536254
O10   O     O_R   0.276880 0.592620 0.567490 -0.537678
O11   O     O_R   0.718700 0.413090 0.514970 -0.533391
O12   O     O_R   0.414920 0.276880 0.447500 -0.537412
O13   O     O_R   0.589510 0.717410 0.470040 -0.530014
Zn1   Zn    Zn3+2 0.571990 0.407410 0.544380 0.920895
Zn2   Zn    Zn3+2 0.407420 0.421690 0.442900 0.934190
Zn3   Zn    Zn3+2 0.598910 0.570150 0.439280 0.940340
Zn4   Zn    Zn3+2 0.421690 0.600750 0.573440 0.936047

loop_
_geom_bond_atom_site_label_1
_geom_bond_atom_site_label_2
_ccdc_geom_bond_type
C25   H11   S    
C25   H10   S    
C22   H17   S    
C29   H3    S    
C6    C7    D    
C16   O13   A    
O2    Zn2   S    
C30   H1    S    
O10   Zn4   S    
C4    O9    A    
C1    O10   A    
C19   C20   A    
C11   H22   S    
O8    Zn2   S    
C3    H4    S    
O12   Zn2   S    
C15   O12   A    
C7    C9    S    
O1    Zn3   S    
C17   O2    A    
C2    C3    D    
C15   O6    A    
C24   H15   S    
O9    Zn3   S    
C10   C16   S    
C13   C14   D    
C24   C25   S    
C3    C31   S    
C10   H24   S    
C12   C23   A    
O3    Zn4   S    
C22   H16   S    
C29   C30   A    
C21   H9    S    
C16   O7    A    
O5    Zn1   S    
C17   O4    A    
O13   Zn3   S    
C24   H14   S    
C1    O8    A    
C25   H13   S    
C18   O5    A    
C27   H6    S    
C28   H2    S    
C13   H23   S    
C5    C29   A    
C13   C15   S    
C30   C31   A    
C6    H20   S    
C11   C14   S    
C22   C24   S    
C9    H12   S    
O11   Zn1   S    
C5    C17   S    
C10   C11   D    
C20   C22   S    
C2    C12   S    
O7    Zn4   S    
C5    C28   A    
C8    H19   S    
O1    Zn2   S    
C18   C19   S    
C20   C21   A    
C7    H18   S    
C4    C6    S    
C23   H5    S    
C23   C26   A    
O6    Zn1   S    
C27   C28   A    
O1    Zn1   S    
C19   C26   A    
C26   H7    S    
C2    H8    S    
C4    O11   A    
C27   C31   A    
C12   C21   A    
C18   O3    A    
C14   H21   S    
C1    C8    S    
O4    Zn3   S    
C8    C9    D    
O1    Zn4   S    
