data_mof_unit_27989.cif
_audit_creation_date              2012-12-10T17:21:09-0500
_audit_creation_method            fapswitch 2.2
_symmetry_space_group_name_H-M    P1
_symmetry_Int_Tables_number       1
_space_group_crystal_system       triclinic
_cell_length_a                    10.120603
_cell_length_b                    10.668043
_cell_length_c                    10.612122
_cell_angle_alpha                 89.547076
_cell_angle_beta                  95.519047
_cell_angle_gamma                 81.063837
_cell_volume                      1126.30103199

loop_
_atom_site_label
_atom_site_type_symbol
_atom_type_description
_atom_site_fract_x
_atom_site_fract_y
_atom_site_fract_z
_atom_type_partial_charge
C1    C     C_R   0.443587 0.503118 0.266130 0.944553
C2    C     C_3   0.499236 0.878958 0.503331 -0.000019
C3    C     C_3   0.480852 0.931963 0.640468 0.467525
C4    C     C_3   0.383634 0.942175 0.405399 -0.544446
C5    C     C_2   0.411744 0.487138 0.132047 -0.361899
C6    C     C_2   0.503857 0.416225 0.070123 -0.068432
C7    C     C_2   0.589952 0.465493 0.870211 -0.188491
C8    C     C_2   0.494438 0.425569 0.934064 -0.206859
C9    C     C_2   0.071385 0.494805 0.485518 -0.119339
C10   C     C_2   0.926345 0.511896 0.509102 -0.133888
C11   C     C_R   0.498624 0.257978 0.495203 0.886570
C12   C     C_R   0.556590 0.487648 0.734489 0.818914
C13   C     C_R   0.500620 0.742165 0.502146 0.879301
C14   C     C_3   0.636435 0.051186 0.457318 0.340329
C15   C     C_3   0.633571 0.908337 0.458492 -0.432059
C16   C     C_3   0.482026 0.077861 0.631551 -0.522518
C17   C     C_3   0.383603 0.086020 0.397759 -0.123993
C18   C     C_3   0.498486 0.121257 0.494684 -0.055444
H1    H     H_    0.716682 0.071006 0.531105 0.098676
H2    H     H_    0.285155 0.920172 0.430314 0.202930
H3    H     H_    0.391650 0.134837 0.665679 0.203622
H4    H     H_    0.398723 0.410703 0.885353 0.179815
H5    H     H_    0.594106 0.362690 0.119929 0.213107
H6    H     H_    0.319357 0.538056 0.083283 0.154349
H7    H     H_    0.889836 0.579744 0.578355 0.163070
H8    H     H_    0.105858 0.432958 0.411212 0.221728
H9    H     H_    0.880593 0.384359 0.383837 0.192225
H10   H     H_    0.121389 0.610095 0.621417 0.165328
H11   H     H_    0.644197 0.870499 0.361825 0.193708
H12   H     H_    0.721655 0.860330 0.521348 0.186217
H13   H     H_    0.567435 0.102664 0.695524 0.172005
H14   H     H_    0.406609 0.110402 0.300846 0.202176
H15   H     H_    0.397133 0.901673 0.310199 0.184716
N1    N     N_2   0.157300 0.551950 0.551120 -0.202195
N2    N     N_2   0.842730 0.448000 0.448950 -0.185001
O1    O     O_R   0.568940 0.489540 0.307530 -0.580532
O2    O     O_R   0.348880 0.522880 0.340350 -0.596271
O3    O     O_R   0.610030 0.298130 0.483570 -0.597286
O4    O     O_R   0.389960 0.331470 0.516390 -0.616844
O5    O     O_R   0.651120 0.477120 0.659650 -0.615514
O6    O     O_R   0.431060 0.510460 0.692470 -0.609865
O7    O     O_R   0.610040 0.668530 0.483610 -0.605446
O8    O     O_R   0.389970 0.701870 0.516430 -0.643987
Zn1   Zn    Zn3+2 0.646940 0.477740 0.478080 0.967472
Zn2   Zn    Zn3+2 0.353060 0.522260 0.521920 0.946355
C19   C     C_2   0.347283 0.902797 0.684499 0.297858
H16   H     H_    0.337042 0.806287 0.709287 0.102259
O9    O     O_2   0.250540 0.985184 0.693214 -0.626404
C20   C     C_2   0.722675 0.492763 0.927978 0.382477
H17   H     H_    0.792894 0.522669 0.867209 0.074727
O10   O     O_2   0.755147 0.484506 0.041838 -0.577214
O11   O     O_3   0.659746 0.094669 0.335473 -0.648338
C21   C     C_3   0.797133 0.065269 0.315005 0.070856
H18   H     H_    0.826851 0.960704 0.309939 0.146110
H19   H     H_    0.862763 0.101917 0.391918 0.139247
C22   C     C_3   0.819021 0.127665 0.189901 -0.318116
H20   H     H_    0.734161 0.119596 0.117541 0.233611
H21   H     H_    0.822201 0.230249 0.204448 0.236371
C23   C     C_3   0.949253 0.065851 0.139524 -0.879969
H22   H     H_    0.035429 0.064203 0.212747 0.292966
H23   H     H_    0.967785 0.120160 0.055019 0.278188
H24   H     H_    0.941447 0.966918 0.111600 0.249857
O12   O     O_3   0.597537 0.875189 0.721041 -0.689102
C24   C     C_3   0.580750 0.852168 0.850276 0.079296
H25   H     H_    0.677931 0.799349 0.893765 0.177336
H26   H     H_    0.507002 0.787038 0.861474 0.117977
C25   C     C_3   0.549643 0.974184 0.924885 -0.380165
H27   H     H_    0.629830 0.033259 0.916833 0.221337
H28   H     H_    0.452004 0.029869 0.886810 0.242624
C26   C     C_3   0.541655 0.943573 0.064388 -0.915167
H29   H     H_    0.462833 0.883473 0.074712 0.260488
H30   H     H_    0.515412 0.033103 0.115152 0.282779
H31   H     H_    0.639916 0.893183 0.108061 0.269765
C27   C     C_2   0.244561 0.155632 0.413725 0.384970
H32   H     H_    0.201100 0.150016 0.502624 0.136287
O13   O     O_2   0.179490 0.218386 0.325723 -0.617273

loop_
_geom_bond_atom_site_label_1
_geom_bond_atom_site_label_2
_ccdc_geom_bond_type
C12   O5    A    
C11   O3    A    
C2    C4    S    
O7    Zn1   S    
C11   C18   S    
O3    Zn1   S    
C16   H3    S    
N2    Zn1   S    
C3    O12   S    
C9    C10   S    
C14   C18   S    
C3    C19   S    
C8    H4    S    
C22   C23   S    
C1    O2    A    
C13   O8    A    
O4    Zn2   S    
C25   C26   S    
C24   H25   S    
C26   H31   S    
C17   C18   S    
H10   N1    S    
C23   H22   S    
N1    Zn2   S    
C21   H18   S    
O11   C21   S    
C16   H13   S    
C11   O4    A    
C2    C15   S    
O8    Zn2   S    
C12   O6    A    
C5    H6    S    
C27   O13   D    
C1    C5    S    
C4    C17   S    
C10   H7    S    
C2    C13   S    
C13   O7    A    
C22   H21   S    
C9    H8    S    
C15   H11   S    
C2    C3    S    
C21   H19   S    
C5    C6    D    
C10   N2    D    
C19   O9    D    
C7    C12   S    
C23   H23   S    
O1    Zn1   S    
C27   H32   S    
C6    H5    S    
O2    Zn2   S    
O12   C24   S    
C4    H2    S    
C24   C25   S    
O5    Zn1   S    
C26   H29   S    
C22   H20   S    
C7    C20   S    
C15   H12   S    
C16   C18   S    
C7    C8    D    
C19   H16   S    
C21   C22   S    
C20   H17   S    
C17   H14   S    
O6    Zn2   S    
C4    H15   S    
C23   H24   S    
C6    C8    S    
H9    N2    S    
C17   C27   S    
C14   C15   S    
C20   O10   D    
C14   H1    S    
C26   H30   S    
C14   O11   S    
C3    C16   S    
C25   H27   S    
C1    O1    A    
C9    N1    D    
C25   H28   S    
C24   H26   S    
