data_mof_unit_17249.cif
_audit_creation_date              2012-12-11T14:23:08-0500
_audit_creation_method            fapswitch 2.2
_symmetry_space_group_name_H-M    P1
_symmetry_Int_Tables_number       1
_space_group_crystal_system       triclinic
_cell_length_a                    11.034492
_cell_length_b                    10.948417
_cell_length_c                    18.88435
_cell_angle_alpha                 90.364425
_cell_angle_beta                  90.39562
_cell_angle_gamma                 59.718477
_cell_volume                      1970.08319213

loop_
_atom_site_label
_atom_site_type_symbol
_atom_type_description
_atom_site_fract_x
_atom_site_fract_y
_atom_site_fract_z
_atom_type_partial_charge
C1    C     C_R   0.241155 0.643873 0.611165 0.533263
C2    C     C_R   0.553705 0.197193 0.717930 -0.158988
C3    C     C_R   0.563615 0.193695 0.789970 -0.165007
C4    C     C_R   0.653702 0.622531 0.600971 0.546689
C5    C     C_R   0.927903 0.128790 0.814434 -0.091503
C6    C     C_R   0.042519 0.101252 0.772700 -0.134705
C7    C     C_R   0.036537 0.090150 0.699655 -0.130543
C8    C     C_R   0.914795 0.109390 0.667485 -0.089190
C9    C     C_R   0.665825 0.176766 0.675752 -0.011478
C10   C     C_R   0.192330 0.658006 0.837213 -0.008893
C11   C     C_R   0.197778 0.543445 0.799281 0.023414
C12   C     C_3   0.663929 0.558006 0.799957 -0.250935
C13   C     C_R   0.191702 0.547342 0.723963 0.021605
C14   C     C_R   0.227487 0.748924 0.728170 -0.151034
C15   C     C_R   0.218559 0.752885 0.801208 -0.153931
C16   C     C_R   0.628762 0.227787 0.602752 0.531398
C17   C     C_R   0.209206 0.425091 0.834683 -0.099359
C18   C     C_R   0.199861 0.320265 0.797647 -0.149986
C19   C     C_R   0.176697 0.332289 0.724985 -0.159275
C20   C     C_R   0.171085 0.445131 0.688377 -0.114691
C21   C     C_R   0.207752 0.652239 0.687725 -0.002791
C22   C     C_R   0.713141 0.684417 0.179614 -0.002297
C23   C     C_3   0.699484 0.675701 0.811654 0.046039
C24   C     C_R   0.790218 0.543145 0.207984 0.038441
C25   C     C_R   0.739108 0.514764 0.269076 0.009515
C26   C     C_R   0.584408 0.767222 0.289293 -0.131988
C27   C     C_R   0.615801 0.795080 0.222163 -0.166591
C28   C     C_R   0.219696 0.653267 0.401616 0.542034
C29   C     C_R   0.915140 0.426986 0.177953 -0.095093
C30   C     C_R   0.973065 0.290050 0.201883 -0.148909
C31   C     C_R   0.912604 0.263257 0.257863 -0.122840
C32   C     C_R   0.792445 0.372826 0.287702 -0.092020
C33   C     C_R   0.641851 0.627400 0.312338 0.004096
C34   C     C_3   0.669658 0.648518 0.676253 0.054391
C35   C     C_R   0.663458 0.148375 0.178074 0.011648
C36   C     C_R   0.529490 0.225569 0.206898 0.031407
C37   C     C_R   0.515456 0.208010 0.279253 0.011996
C38   C     C_R   0.767776 0.089951 0.295722 -0.187764
C39   C     C_R   0.781931 0.076415 0.222755 -0.159957
C40   C     C_R   0.621093 0.596045 0.385193 0.545742
C41   C     C_R   0.408166 0.301240 0.164044 0.180233
C42   C     C_R   0.283434 0.314094 0.187296 -0.099463
C43   C     C_R   0.271581 0.277530 0.256114 -0.180038
C44   C     C_R   0.385213 0.226809 0.302170 -0.097868
C45   C     C_3   0.819106 0.619887 0.691273 -0.246356
C46   C     C_R   0.634831 0.165602 0.324389 -0.001349
C47   C     C_R   0.147564 0.672649 0.184263 0.007256
C48   C     C_R   0.209989 0.745020 0.215027 0.022501
C49   C     C_R   0.186669 0.777430 0.287034 0.032949
C50   C     C_R   0.105816 0.609194 0.300459 -0.149613
C51   C     C_R   0.088306 0.613631 0.227874 -0.147411
C52   C     C_R   0.615572 0.226066 0.395714 0.531470
C53   C     C_R   0.275353 0.803819 0.174381 -0.078225
C54   C     C_R   0.289408 0.914472 0.201273 -0.117439
C55   C     C_R   0.243979 0.963504 0.269432 -0.152557
C56   C     C_3   0.643957 0.543535 0.720352 -0.212827
C57   C     C_R   0.191596 0.897456 0.311763 -0.093132
C58   C     C_R   0.158655 0.688213 0.330832 -0.000252
C59   C     C_R   0.702407 0.102746 0.896234 0.538191
C60   C     C_R   0.724273 0.688771 0.887689 0.552228
C61   C     C_R   0.121297 0.703342 0.906556 0.535206
C62   C     C_R   0.679008 0.101646 0.105173 0.567052
C63   C     C_R   0.733174 0.713642 0.106143 0.554277
C64   C     C_3   0.578156 0.816670 0.780552 -0.230079
C65   C     C_R   0.094666 0.708108 0.112431 0.520792
C66   C     C_3   0.563596 0.801847 0.700221 -0.241118
C67   C     C_R   0.688933 0.159805 0.824267 -0.012323
C68   C     C_3   0.835855 0.638424 0.770683 -0.218540
C69   C     C_3   0.475139 0.445835 0.093355 -0.289516
C70   C     C_R   0.804212 0.143963 0.783435 0.019420
C71   C     C_R   0.794887 0.143601 0.708103 0.013365
Cr1   Cr    Cr6+3 0.392940 0.397950 0.502230 0.998154
Cr2   Cr    Cr6+3 0.398400 0.708500 0.501260 0.997351
Cr3   Cr    Cr6+3 0.708640 0.393530 0.496460 0.993382
Cr4   Cr    Cr6+3 0.937880 0.938320 0.007620 0.996424
Cr5   Cr    Cr6+3 0.625560 0.937220 0.994510 1.001945
Cr6   Cr    Cr6+3 0.938080 0.625010 0.001190 0.974476
H1    H     H_    0.599472 0.904513 0.790148 0.148081
H2    H     H_    0.251413 0.822500 0.703287 0.135471
H3    H     H_    0.477403 0.845216 0.807075 0.114399
H4    H     H_    0.225923 0.835151 0.829505 0.133984
H5    H     H_    0.211676 0.229735 0.825997 0.104026
H6    H     H_    0.165741 0.252850 0.696358 0.114667
H7    H     H_    0.146562 0.451765 0.632691 0.138745
H8    H     H_    0.515185 0.854908 0.323072 0.141570
H9    H     H_    0.978501 0.436093 0.138189 0.146230
H10   H     H_    0.565763 0.903384 0.203783 0.132150
H11   H     H_    0.067066 0.205586 0.177838 0.117892
H12   H     H_    0.718199 0.432728 0.703876 0.152163
H13   H     H_    0.960072 0.157738 0.278398 0.121512
H14   H     H_    0.454265 0.829105 0.688151 0.128675
H15   H     H_    0.859632 0.044067 0.329698 0.114804
H16   H     H_    0.886116 0.009649 0.201410 0.163075
H17   H     H_    0.195556 0.355889 0.151839 0.094546
H18   H     H_    0.173011 0.292666 0.275104 0.121474
H19   H     H_    0.370913 0.192909 0.353404 0.147148
H20   H     H_    0.075388 0.547647 0.332707 0.133903
H21   H     H_    0.306692 0.771463 0.120176 0.123510
H22   H     H_    0.027871 0.571614 0.205822 0.126799
H23   H     H_    0.924534 0.538335 0.791275 0.168875
H24   H     H_    0.583385 0.878274 0.671227 0.119078
H25   H     H_    0.249992 0.052079 0.290200 0.105032
H26   H     H_    0.149679 0.945868 0.362596 0.133256
H27   H     H_    0.862909 0.722793 0.778666 0.128609
H28   H     H_    0.840255 0.693132 0.660171 0.112537
H29   H     H_    0.749933 0.455660 0.820815 0.133558
H30   H     H_    0.566291 0.583521 0.828859 0.116594
H31   H     H_    0.535963 0.563274 0.710495 0.129761
H32   H     H_    0.937277 0.142376 0.870382 0.142199
H33   H     H_    0.231640 0.409224 0.890803 0.129105
H34   H     H_    0.897060 0.509994 0.675242 0.146623
H35   H     H_    0.740631 0.347239 0.325462 0.167491
H36   H     H_    0.325004 0.390322 0.064437 0.248735
H37   H     H_    0.499913 0.470423 0.146936 0.150617
H38   H     H_    0.573087 0.391286 0.061914 0.164047
H39   H     H_    0.402375 0.546894 0.066534 0.123181
H40   H     H_    0.330654 0.965522 0.168357 0.122348
H41   H     H_    0.453993 0.220822 0.695483 0.166488
H42   H     H_    0.473734 0.207620 0.818984 0.154559
H43   H     H_    0.138515 0.083077 0.797404 0.090215
H44   H     H_    0.127487 0.064228 0.667693 0.098414
H45   H     H_    0.917528 0.093096 0.610900 0.133002
N1    N     N_2   0.412062 0.357473 0.096492 -0.503700
O1    O     O_R   0.507340 0.255690 0.581430 -0.525465
O2    O     O_R   0.837290 0.593240 0.915240 -0.522946
O3    O     O_R   0.065320 0.635310 0.931580 -0.513897
O4    O     O_R   0.280360 0.527380 0.578910 -0.511373
O5    O     O_R   0.068470 0.828620 0.091850 -0.526903
O6    O     O_R   0.799150 0.057200 0.079350 -0.514995
O7    O     O_R   0.585220 0.080180 0.076770 -0.502189
O8    O     O_R   0.627170 0.809480 0.067050 -0.500744
O9    O     O_R   0.816200 0.596410 0.076500 -0.538715
O10   O     O_R   0.045770 0.638240 0.081070 -0.542323
O11   O     O_3   0.833840 0.833520 0.001110 -0.262006
O12   O     O_R   0.524510 0.695820 0.424050 -0.500246
O13   O     O_R   0.260600 0.739610 0.584580 -0.532260
O14   O     O_R   0.532370 0.695050 0.573830 -0.507572
O15   O     O_R   0.744850 0.503430 0.576380 -0.524103
O16   O     O_R   0.699080 0.276500 0.571950 -0.511883
O17   O     O_R   0.498860 0.256520 0.419860 -0.528171
O18   O     O_R   0.272490 0.528150 0.429140 -0.494656
O19   O     O_R   0.252110 0.740440 0.423010 -0.539560
O20   O     O_R   0.736370 0.504260 0.414810 -0.521284
O21   O     O_R   0.691220 0.277270 0.422180 -0.535390
O22   O     O_3   0.499990 0.499990 0.499980 -0.254363
O23   O     O_R   0.089570 0.825450 0.930590 -0.521513
O24   O     O_R   0.818700 0.054260 0.929860 -0.508497
O25   O     O_R   0.606310 0.077010 0.915520 -0.529828
O26   O     O_R   0.646730 0.806540 0.917560 -0.505048

loop_
_geom_bond_atom_site_label_1
_geom_bond_atom_site_label_2
_ccdc_geom_bond_type
Cr3   O20   S    
C69   H39   S    
C1    C21   S    
C46   C52   S    
C41   C42   A    
C62   O7    A    
Cr3   O22   S    
C19   C20   A    
C66   H24   S    
C61   O23   A    
C17   H33   S    
C34   C66   S    
C2    H41   S    
Cr4   O11   S    
C7    C8    A    
C15   H4    S    
C53   C54   A    
C34   C56   S    
Cr3   O15   S    
C55   H25   S    
C26   C27   A    
C29   C30   A    
Cr2   O14   S    
C14   C21   A    
C60   O2    A    
C9    C16   S    
Cr4   O5    S    
C10   C15   A    
C30   C31   A    
Cr5   O8    S    
C69   N1    S    
Cr1   O22   S    
C38   H15   S    
C49   C57   A    
C18   C19   A    
C24   C29   A    
C56   H31   S    
C59   C67   S    
C22   C63   S    
Cr5   O7    S    
C39   H16   S    
C35   C36   A    
C50   H20   S    
H36   N1    S    
C43   H18   S    
C70   C71   A    
C63   O8    A    
C1    O13   A    
C59   O25   A    
C25   C32   A    
C4    O14   A    
Cr1   O1    S    
C23   C60   S    
C64   H3    S    
C62   O6    A    
C36   C41   A    
C48   C53   A    
Cr6   O10   S    
C7    H44   S    
C19   H6    S    
C18   H5    S    
C6    H43   S    
C45   H28   S    
C50   C51   A    
Cr2   O19   S    
Cr4   O23   S    
C51   H22   S    
Cr1   O18   S    
C57   H26   S    
C40   O12   A    
C4    C34   S    
C69   H37   S    
C33   C40   S    
Cr1   O4    S    
C50   C58   A    
C65   O5    A    
C9    C71   A    
C38   C39   A    
C24   C25   A    
Cr5   O11   S    
C47   C51   A    
Cr4   O24   S    
C63   O9    A    
C20   H7    S    
Cr2   O12   S    
C49   C58   A    
Cr2   O22   S    
Cr6   O9    S    
C64   C66   S    
C23   C68   S    
C35   C39   A    
C43   C44   A    
C68   H23   S    
C5    C70   A    
C44   H19   S    
C26   C33   A    
C47   C48   A    
C12   C23   S    
Cr2   O13   S    
C31   H13   S    
C45   C68   S    
C17   C18   A    
C13   C21   A    
C34   C45   S    
C52   O21   A    
C14   H2    S    
C27   H10   S    
C29   H9    S    
C12   C56   S    
C66   H14   S    
C3    H42   S    
C56   H12   S    
C22   C27   A    
C55   C57   A    
C22   C24   A    
C54   H40   S    
C16   O16   A    
C28   O19   A    
C42   C43   A    
C30   H11   S    
Cr6   O2    S    
Cr3   O16   S    
Cr3   O21   S    
C54   C55   A    
C36   C37   A    
C8    C71   A    
C32   H35   S    
C13   C20   A    
C42   H17   S    
C64   H1    S    
C31   C32   A    
C3    C67   A    
C1    O4    A    
C11   C17   A    
C12   H30   S    
C45   H34   S    
C6    C7    A    
C28   C58   S    
C53   H21   S    
C69   H38   S    
C67   C70   A    
C41   N1    S    
C37   C44   A    
C68   H27   S    
C2    C3    A    
C16   O1    A    
C23   C64   S    
C12   H29   S    
C11   C13   A    
C8    H45   S    
C5    C6    A    
C5    H32   S    
Cr5   O26   S    
C26   H8    S    
C48   C49   A    
C52   O17   A    
C35   C62   S    
C60   O26   A    
C38   C46   A    
C10   C11   A    
C4    O15   A    
C10   C61   S    
Cr1   O17   S    
C61   O3    A    
Cr5   O25   S    
Cr6   O11   S    
C40   O20   A    
C14   C15   A    
C28   O18   A    
C37   C46   A    
C2    C9    A    
C47   C65   S    
C65   O10   A    
Cr6   O3    S    
Cr4   O6    S    
C25   C33   A    
C59   O24   A    
