data_mof_unit_11326.cif
_audit_creation_date              2013-03-05T15:54:32-0500
_audit_creation_method            fapswitch 2.2
_symmetry_space_group_name_H-M    P1
_symmetry_Int_Tables_number       1
_space_group_crystal_system       triclinic
_cell_length_a                    18.954224
_cell_length_b                    18.769258
_cell_length_c                    12.426801
_cell_angle_alpha                 89.86623
_cell_angle_beta                  129.871104
_cell_angle_gamma                 90.040902
_cell_volume                      3392.99293928

loop_
_atom_site_label
_atom_site_type_symbol
_atom_site_description
_atom_site_fract_x
_atom_site_fract_y
_atom_site_fract_z
_atom_type_partial_charge
O1    O     O_R   0.608610 0.924520 0.551740 -0.519535
O2    O     O_R   0.608610 0.075480 0.551740 -0.523240
O3    O     O_R   0.108610 0.424520 0.551740 -0.519504
O4    O     O_R   0.108610 0.575480 0.551740 -0.523249
O5    O     O_R   0.564110 0.924510 0.685150 -0.601123
O6    O     O_R   0.564110 0.075490 0.685150 -0.608505
O7    O     O_R   0.064110 0.424510 0.685150 -0.601178
O8    O     O_R   0.064110 0.575490 0.685150 -0.608494
C1    C     C_R   0.609932 0.896486 0.650030 0.827449
C2    C     C_R   0.612170 0.102158 0.652822 0.816626
C3    C     C_R   0.109932 0.396487 0.650035 0.827450
C4    C     C_R   0.112176 0.602154 0.652832 0.816623
Cu1   Cu    Cu3+1 0.526340 0.000000 0.421010 1.116804
Cu2   Cu    Cu3+1 0.026340 0.500000 0.421010 1.116829
Cu3   Cu    Cu3+1 0.473640 1.000000 0.578990 0.955669
Cu4   Cu    Cu3+1 0.973640 0.500000 0.578990 0.955654
O9    O     O_R   0.435880 0.075470 0.314850 -0.529575
O10   O     O_R   0.435880 0.924530 0.314850 -0.532192
O11   O     O_R   0.935880 0.575470 0.314850 -0.529582
O12   O     O_R   0.935880 0.424530 0.314850 -0.532181
O13   O     O_R   0.391380 0.075460 0.448260 -0.600787
O14   O     O_R   0.391380 0.924540 0.448260 -0.613816
O15   O     O_R   0.891380 0.575460 0.448260 -0.600773
O16   O     O_R   0.891380 0.424540 0.448260 -0.613817
C5    C     C_R   0.389724 0.102961 0.349672 0.854672
C6    C     C_R   0.389235 0.897419 0.349134 0.850569
C7    C     C_R   0.889725 0.602963 0.349673 0.854665
C8    C     C_R   0.889238 0.397417 0.349137 0.850577
C9    C     C_R   0.687897 0.273734 0.174004 0.341350
C10   C     C_R   0.694672 0.733005 0.184893 0.346756
C11   C     C_R   0.187883 0.773741 0.173993 0.341343
C12   C     C_R   0.194732 0.233047 0.184985 0.346955
H1    H     H_    0.254585 0.847980 0.343833 0.215699
H2    H     H_    0.260363 0.157615 0.353488 0.219067
H3    H     H_    0.754600 0.347968 0.343848 0.215695
H4    H     H_    0.760374 0.657617 0.353493 0.219139
H5    H     H_    0.541745 0.220055 0.925146 0.193432
H6    H     H_    0.546902 0.787055 0.939625 0.189130
H7    H     H_    0.041730 0.720078 0.925113 0.193421
H8    H     H_    0.047040 0.287295 0.939978 0.188999
C13   C     C_R   0.329235 0.835799 0.268658 -0.200750
C14   C     C_R   0.331259 0.165785 0.271102 -0.203736
C15   C     C_R   0.829243 0.335796 0.268662 -0.200750
C16   C     C_R   0.831249 0.665783 0.271086 -0.203722
C17   C     C_R   0.762945 0.161406 0.763907 -0.073738
C18   C     C_R   0.754436 0.831266 0.750381 -0.092787
C19   C     C_R   0.262990 0.661357 0.764000 -0.073748
C20   C     C_R   0.254422 0.331246 0.750375 -0.092812
C21   C     C_R   0.347921 0.672303 0.897062 -0.052130
C22   C     C_R   0.341135 0.321880 0.881228 -0.052149
C23   C     C_R   0.847884 0.172373 0.896945 -0.052186
C24   C     C_R   0.841140 0.821901 0.881248 -0.052155
C25   C     C_R   0.350595 0.692060 0.007799 -0.107710
C26   C     C_R   0.347879 0.304225 0.996860 -0.092939
C27   C     C_R   0.850580 0.192104 0.007714 -0.107729
C28   C     C_R   0.847863 0.804234 0.996858 -0.092936
C29   C     C_R   0.768975 0.209901 0.983372 0.089281
C30   C     C_R   0.768071 0.788794 0.979617 0.096546
C31   C     C_R   0.268982 0.709882 0.983409 0.089283
C32   C     C_R   0.268099 0.288814 0.979664 0.096535
C33   C     C_R   0.684620 0.186917 0.855789 0.076767
C34   C     C_R   0.682580 0.812052 0.853926 0.095021
C35   C     C_R   0.184630 0.686906 0.855811 0.076759
C36   C     C_R   0.182604 0.312087 0.853997 0.095063
C37   C     C_R   0.268103 0.747641 0.082419 -0.056418
C38   C     C_R   0.269961 0.253768 0.083801 -0.054993
C39   C     C_R   0.768108 0.247647 0.082406 -0.056408
C40   C     C_R   0.769919 0.753738 0.083732 -0.055022
C41   C     C_R   0.687680 0.244158 0.069160 -0.013542
C42   C     C_R   0.692024 0.760483 0.076481 0.004767
C43   C     C_R   0.187669 0.744163 0.069155 -0.013535
C44   C     C_R   0.192099 0.260557 0.076618 0.004773
C45   C     C_R   0.606058 0.218175 0.944654 -0.123208
C46   C     C_R   0.609625 0.787282 0.954179 -0.129121
C47   C     C_R   0.106048 0.718186 0.944638 -0.123188
C48   C     C_R   0.109722 0.287433 0.954407 -0.129426
C49   C     C_R   0.603306 0.195923 0.835954 -0.163977
C50   C     C_R   0.603415 0.806596 0.840951 -0.170906
C51   C     C_R   0.103308 0.695927 0.835950 -0.163967
C52   C     C_R   0.103466 0.306691 0.841116 -0.170855
C53   C     C_R   0.339618 0.794745 0.184242 0.295421
C54   C     C_R   0.341078 0.206031 0.184921 0.293173
C55   C     C_R   0.839624 0.294749 0.184236 0.295472
C56   C     C_R   0.841057 0.706024 0.184891 0.293185
C57   C     C_R   0.258020 0.820608 0.270657 -0.274669
C58   C     C_R   0.262845 0.183842 0.278237 -0.273465
C59   C     C_R   0.758033 0.320599 0.270667 -0.274673
C60   C     C_R   0.762830 0.683836 0.278209 -0.273505
C61   C     C_R   0.683624 0.155525 0.750783 -0.146361
C62   C     C_R   0.678478 0.840718 0.744180 -0.148877
C63   C     C_R   0.183646 0.655507 0.750821 -0.146361
C64   C     C_R   0.178480 0.340722 0.744206 -0.148881
H9    H     H_    0.416701 0.693609 0.111763 0.218466
H10   H     H_    0.415289 0.303245 0.098865 0.223470
H11   H     H_    0.916693 0.193652 0.111664 0.218554
H12   H     H_    0.915265 0.803261 0.098877 0.223447
H13   H     H_    0.536291 0.185697 0.736157 0.171780
H14   H     H_    0.535434 0.816994 0.742859 0.169037
H15   H     H_    0.036296 0.685706 0.736144 0.171779
H16   H     H_    0.035472 0.317096 0.743059 0.169100
C65   C     C_R   0.677164 0.039162 0.283430 -0.168128
C66   C     C_R   0.177171 0.539145 0.283436 -0.168151
H17   H     H_    0.704168 0.074808 0.109331 0.149701
H18   H     H_    0.204173 0.574805 0.109338 0.149686
N1    N     N_R   0.566260 0.000000 0.302220 -0.251832
N2    N     N_R   0.066260 0.500000 0.302220 -0.251809
C67   C     C_R   0.342973 0.990953 0.621054 -0.058768
C68   C     C_R   0.842973 0.490952 0.621055 -0.058771
C69   C     C_R   0.302542 0.989611 0.682936 0.195130
C70   C     C_R   0.802544 0.489612 0.682940 0.195155
C71   C     C_R   0.357543 0.997913 0.829595 0.260978
C72   C     C_R   0.857545 0.497918 0.829598 0.260956
C73   C     C_R   0.454957 0.007548 0.914961 -0.136944
C74   C     C_R   0.954959 0.507550 0.914963 -0.137031
C75   C     C_R   0.492332 0.008855 0.843136 0.169342
C76   C     C_R   0.992333 0.508856 0.843137 0.169286
C77   C     C_R   0.518443 0.015073 0.067968 0.038291
C78   C     C_R   0.018445 0.515075 0.067971 0.038246
C79   C     C_R   0.609378 0.038593 0.136169 0.083335
C80   C     C_R   0.109384 0.538586 0.136175 0.083366
C81   C     C_R   0.635768 0.053887 0.058010 -0.238010
C82   C     C_R   0.135772 0.553885 0.058015 -0.237955
C83   C     C_R   0.588197 0.025170 0.926748 -0.011547
C84   C     C_R   0.088199 0.525171 0.926750 -0.011545
C85   C     C_R   0.498665 0.000476 0.159074 0.147557
C86   C     C_R   0.998665 0.500481 0.159074 0.147549
C87   C     C_R   0.656400 0.011107 0.363844 0.495649
C88   C     C_R   0.156402 0.511093 0.363845 0.495796
N3    N     N_R   0.434410 1.000000 0.697680 -0.235572
N4    N     N_R   0.934410 0.500000 0.697680 -0.235570
H19   H     H_    0.431298 0.988050 0.121071 0.203177
H20   H     H_    0.931296 0.488061 0.121070 0.203174
H21   H     H_    0.300350 0.985235 0.508653 0.195552
H22   H     H_    0.800348 0.485233 0.508655 0.195546
C89   C     C_1   0.769941 0.064939 0.354087 0.364602
N5    N     N_1   0.843649 0.085583 0.410150 -0.201535
C90   C     C_1   0.269956 0.564902 0.354097 0.364564
N6    N     N_1   0.343671 0.585531 0.410164 -0.201513
N7    N     N_R   0.311007 0.006095 0.884660 0.125093
O17   O     O_R   0.283568 0.949846 0.910132 -0.287498
O18   O     O_R   0.275989 0.067736 0.874836 -0.285841
N8    N     N_R   0.811007 0.506109 0.884660 0.125096
O19   O     O_R   0.783565 0.449863 0.910136 -0.287524
O20   O     O_R   0.775976 0.567750 0.874799 -0.285823
N9    N     N_R   0.204145 0.982527 0.593712 0.163761
O21   O     O_R   0.151955 0.009738 0.468046 -0.316369
O22   O     O_R   0.166910 0.941503 0.629608 -0.239197
N10   N     N_R   0.704148 0.482526 0.593721 0.163772
O23   O     O_R   0.651954 0.509754 0.468069 -0.316346
O24   O     O_R   0.666921 0.441481 0.629602 -0.239236
C91   C     C_1   0.653470 0.001117 0.911497 0.363148
N11   N     N_1   0.711654 0.984444 0.909945 -0.283880
C92   C     C_1   0.153471 0.501121 0.911496 0.363117
N12   N     N_1   0.211655 0.484452 0.909941 -0.283885
N13   N     N_R   0.616190 0.259225 0.180764 0.124478
O25   O     O_R   0.579264 0.196276 0.149887 -0.337940
O26   O     O_R   0.598138 0.304768 0.239083 -0.322383
N14   N     N_R   0.627057 0.752329 0.198161 0.132298
O27   O     O_R   0.596470 0.817467 0.172893 -0.326786
O28   O     O_R   0.606819 0.708467 0.256112 -0.315592
N15   N     N_R   0.116178 0.759228 0.180756 0.124481
O29   O     O_R   0.079245 0.696282 0.149854 -0.337928
O30   O     O_R   0.098136 0.804762 0.239101 -0.322355
N16   N     N_R   0.127132 0.252393 0.198257 0.132235
O31   O     O_R   0.097091 0.317646 0.173977 -0.326576
O32   O     O_R   0.106531 0.208403 0.255530 -0.315754
N17   N     N_R   0.418112 0.806995 0.193584 0.121635
O33   O     O_R   0.408363 0.837958 0.090958 -0.306926
O34   O     O_R   0.500291 0.793999 0.310514 -0.316701
N18   N     N_R   0.418679 0.192720 0.192592 0.121160
O35   O     O_R   0.501257 0.206390 0.307876 -0.309613
O36   O     O_R   0.407985 0.158855 0.091819 -0.298250
N19   N     N_R   0.918123 0.307001 0.193588 0.121616
O37   O     O_R   0.908384 0.337976 0.090979 -0.307165
O38   O     O_R   0.000299 0.293990 0.310514 -0.316683
N20   N     N_R   0.918666 0.692723 0.192576 0.121157
O39   O     O_R   0.001240 0.706396 0.307868 -0.309608
O40   O     O_R   0.907982 0.658864 0.091807 -0.298233
C93   C     C_1   0.757173 0.159897 0.642086 0.400229
N21   N     N_1   0.752632 0.160005 0.544721 -0.222024
C94   C     C_1   0.742226 0.825463 0.623320 0.410179
N22   N     N_1   0.731853 0.818903 0.521432 -0.126805
C95   C     C_1   0.257252 0.659844 0.642210 0.400241
N23   N     N_1   0.252739 0.659950 0.544870 -0.222097
C96   C     C_1   0.242193 0.325431 0.623301 0.410086
N24   N     N_1   0.231808 0.318862 0.521405 -0.126590
C97   C     C_1   0.432655 0.658934 0.922865 0.337074
N25   N     N_1   0.500025 0.647208 0.942559 -0.233429
C98   C     C_1   0.422776 0.337580 0.899577 0.350042
N26   N     N_1   0.487417 0.351752 0.912958 -0.223083
C99   C     C_1   0.932606 0.159055 0.922686 0.337127
N27   N     N_1   0.999966 0.147371 0.942327 -0.233360
C100  C     C_1   0.922791 0.837612 0.899632 0.350066
N28   N     N_1   0.987441 0.851792 0.913040 -0.223078
N29   N     N_R   0.730928 0.985255 0.503042 0.108462
O41   O     O_R   0.740584 0.004553 0.611869 -0.357508
O42   O     O_R   0.798856 0.951351 0.524414 -0.349415
N30   N     N_R   0.230922 0.485231 0.503037 0.108499
O43   O     O_R   0.240586 0.504535 0.611868 -0.357544
O44   O     O_R   0.298836 0.451308 0.524400 -0.349349

loop_
_geom_bond_atom_site_label_1
_geom_bond_atom_site_label_2
_geom_bond_distance
_ccdc_geom_bond_type
C30   C34   1.417299 A    
C11   N15   1.440226 S    
C39   C55   1.422895 A    
C11   C57   1.392785 A    
N2    C88   1.368097 A    
N13   O26   1.301626 A    
C15   C55   1.414790 A    
C12   N16   1.439675 S    
C4    C63   1.486436 S    
O10   C6    1.305142 A    
C50   H14   1.081533 S    
C44   C48   1.398612 A    
C72   C74   1.433998 A    
N15   O29   1.299863 A    
C25   C31   1.412751 A    
C71   N7    1.429833 S    
C89   N5    1.157545 T    
N17   O34   1.301587 A    
C26   C32   1.414696 A    
N19   O37   1.301104 A    
H4    C60   1.083147 S    
O7    C3    1.307303 A    
O5    C1    1.307345 A    
C22   C26   1.397595 A    
N18   O36   1.300530 A    
Cu1   O10   1.947279 S    
C18   C94   1.445951 S    
C51   H15   1.081368 S    
N16   O31   1.301648 A    
N10   O24   1.300465 A    
C66   C88   1.390050 A    
C77   C79   1.418353 A    
H6    C46   1.081884 S    
C54   N18   1.433739 S    
H18   C82   1.087255 S    
N18   O35   1.301639 A    
C17   C23   1.398602 A    
C18   C24   1.396015 A    
C10   N14   1.439831 S    
H2    C58   1.083154 S    
C72   N8    1.429843 S    
C22   C98   1.442458 S    
O2    Cu1   1.958945 S    
H1    C57   1.083162 S    
O13   C5    1.310013 A    
C70   C72   1.413402 A    
N15   O30   1.301628 A    
O6    Cu3   1.947635 S    
H3    C59   1.083163 S    
C3    C64   1.483191 S    
Cu3   O14   1.958624 S    
C38   C44   1.426027 A    
C96   N24   1.156914 T    
C2    C61   1.486417 S    
C33   C49   1.406359 A    
C12   C44   1.411803 A    
C14   C54   1.415550 A    
C42   C46   1.398685 A    
C20   C64   1.402958 A    
C91   N11   1.158591 T    
C49   H13   1.081368 S    
N30   O43   1.295549 A    
C14   C58   1.397298 A    
H7    C47   1.080324 S    
C28   C30   1.414717 A    
O4    C4    1.314303 A    
O11   C7    1.306124 A    
C68   N4    1.350436 A    
C67   N3    1.350436 A    
C9    N13   1.440226 S    
N20   O40   1.300533 A    
C13   C53   1.414778 A    
O8    Cu4   1.947635 S    
C84   C92   1.439521 S    
C52   H16   1.081514 S    
N14   O28   1.301702 A    
N16   O32   1.301490 A    
C36   C52   1.406371 A    
C29   C39   1.430659 A    
C70   N10   1.440274 S    
C7    C16   1.476856 S    
C10   C42   1.411937 A    
C33   C61   1.422056 A    
N9    O21   1.301714 A    
C9    C41   1.414979 A    
C65   C89   1.455509 S    
C83   C91   1.439523 S    
C75   C83   1.433551 A    
N1    C87   1.368110 A    
C25   H9    1.079149 S    
C99   N27   1.156873 T    
C65   C79   1.408983 A    
Cu2   O12   1.947279 S    
O1    C1    1.314213 A    
N10   O23   1.301715 A    
C27   H11   1.079126 S    
Cu1   N1    2.045411 S    
N17   O33   1.301095 A    
C35   C51   1.406372 A    
O12   C8    1.305127 A    
C16   C60   1.397277 A    
C94   N22   1.156920 T    
C93   N21   1.156642 T    
C39   C41   1.426011 A    
C66   C90   1.455505 S    
C40   C56   1.422537 A    
C1    C62   1.483173 S    
C95   N23   1.156644 T    
C68   H22   1.081190 S    
C26   H10   1.078448 S    
C87   N29   1.444722 S    
C38   C54   1.422526 A    
C85   H19   1.065285 S    
C37   C53   1.422876 A    
Cu3   N3    2.033341 S    
Cu1   Cu3   2.714060 S    
C86   H20   1.065276 S    
O8    C4    1.307404 A    
O5    Cu3   1.944934 S    
C12   C58   1.393227 A    
C53   N17   1.434589 S    
C21   C97   1.444003 S    
C71   C73   1.434003 A    
C27   C29   1.412758 A    
C41   C45   1.399516 A    
O3    Cu2   1.955066 S    
C74   C78   1.466546 A    
C79   C81   1.377440 A    
C73   C77   1.466546 A    
C19   C95   1.446496 S    
O7    Cu4   1.944934 S    
Cu4   O15   1.954743 S    
O15   C7    1.310028 A    
C55   N19   1.434610 S    
C46   C50   1.382170 A    
N14   O27   1.302024 A    
Cu2   Cu4   2.714060 S    
O1    Cu1   1.955066 S    
C36   C64   1.419987 A    
C82   C84   1.371838 A    
H17   C81   1.087255 S    
C81   C83   1.371832 A    
C23   C99   1.443996 S    
C80   C82   1.377436 A    
O16   C8    1.310292 A    
C77   C85   1.428254 A    
C75   N3    1.398929 A    
C30   C40   1.430420 A    
C28   H12   1.078450 S    
H5    C45   1.080321 S    
N20   O39   1.301640 A    
C17   C61   1.408770 A    
C76   C84   1.433559 A    
C88   N30   1.444714 S    
C19   C63   1.408779 A    
Cu2   O11   1.944575 S    
C34   C50   1.406313 A    
C69   N9    1.440285 S    
C24   C100  1.442456 S    
C48   C52   1.382170 A    
C16   C56   1.415522 A    
C5    C14   1.476810 S    
O6    C2    1.307410 A    
C74   C76   1.452473 A    
N7    O17   1.301554 A    
C29   C33   1.417134 A    
C18   C62   1.402948 A    
Cu1   O9    1.944575 S    
C19   C21   1.398616 A    
C13   C57   1.395108 A    
C90   N6    1.157545 T    
N2    C86   1.372501 A    
C8    C15   1.475270 S    
C31   C35   1.417135 A    
N1    C85   1.372504 A    
C32   C36   1.417311 A    
C66   C80   1.408990 A    
C15   C59   1.395094 A    
C69   C71   1.413409 A    
O9    C5    1.306117 A    
C20   C96   1.445941 S    
C67   H21   1.081190 S    
C37   C43   1.425984 A    
C31   C37   1.430634 A    
C43   C47   1.399519 A    
N7    O18   1.300210 A    
N19   O38   1.301593 A    
C67   C69   1.390953 A    
C47   C51   1.383532 A    
C21   C25   1.395242 A    
N9    O22   1.300467 A    
C34   C62   1.419918 A    
C20   C22   1.396014 A    
C65   C87   1.390050 A    
C68   C70   1.390948 A    
C23   C27   1.395254 A    
O4    Cu2   1.958945 S    
C98   N26   1.156766 T    
C78   C80   1.418352 A    
C9    C59   1.392769 A    
O3    C3    1.314266 A    
C17   C93   1.446501 S    
C32   C38   1.430408 A    
N29   O41   1.295546 A    
H8    C48   1.081920 S    
Cu3   O13   1.954743 S    
C76   N4    1.398939 A    
C97   N25   1.156880 T    
Cu4   O16   1.958624 S    
C100  N28   1.156761 T    
O14   C6    1.310283 A    
Cu2   N2    2.045411 S    
C35   C63   1.422071 A    
N13   O25   1.299863 A    
C40   C42   1.426072 A    
C45   C49   1.383514 A    
N8    O19   1.301558 A    
N30   O44   1.301981 A    
Cu4   N4    2.033341 S    
C78   C86   1.428251 A    
N29   O42   1.301981 A    
C92   N12   1.158592 T    
C56   N20   1.433744 S    
C10   C60   1.393307 A    
N8    O20   1.300228 A    
C24   C28   1.397614 A    
C6    C13   1.475278 S    
C11   C43   1.414975 A    
C73   C75   1.452468 A    
O2    C2    1.314289 A    
