data_mof_unit_19989.cif
_audit_creation_date              2012-12-10T17:55:45-0500
_audit_creation_method            fapswitch 2.2
_symmetry_space_group_name_H-M    P1
_symmetry_Int_Tables_number       1
_space_group_crystal_system       triclinic
_cell_length_a                    18.326596
_cell_length_b                    18.493583
_cell_length_c                    26.052165
_cell_angle_alpha                 89.999663
_cell_angle_beta                  89.885645
_cell_angle_gamma                 90.000098
_cell_volume                      8829.69743591

loop_
_atom_site_label
_atom_site_type_symbol
_atom_type_description
_atom_site_fract_x
_atom_site_fract_y
_atom_site_fract_z
_atom_type_partial_charge
C1    C     C_R   0.139839 0.859510 0.249400 0.913517
C2    C     C_R   0.262711 0.814640 0.223430 0.298776
C3    C     C_3   0.192081 0.152747 0.116495 -0.357454
C4    C     C_3   0.190869 0.168073 0.059044 -0.906261
C5    C     C_3   0.254427 0.121884 0.860729 0.175418
C6    C     C_3   0.321715 0.099704 0.891754 -0.347354
C7    C     C_3   0.305580 0.097425 0.949109 -0.932154
C8    C     C_3   0.245636 0.621929 0.639241 0.175261
C9    C     C_3   0.178376 0.599736 0.608191 -0.347193
C10   C     C_3   0.194547 0.597479 0.550840 -0.932173
C11   C     C_3   0.229869 0.647894 0.363234 0.124284
C12   C     C_3   0.308238 0.652814 0.383541 -0.357213
C13   C     C_R   0.737251 0.814679 0.776516 0.298847
C14   C     C_3   0.309617 0.668218 0.440980 -0.906974
C15   C     C_3   0.770294 0.647761 0.636839 0.124358
C16   C     C_3   0.691959 0.652837 0.616486 -0.357403
C17   C     C_3   0.690686 0.668217 0.559042 -0.906356
C18   C     C_3   0.754404 0.621904 0.360744 0.175428
C19   C     C_3   0.821684 0.599726 0.391778 -0.347364
C20   C     C_3   0.805542 0.597471 0.449133 -0.932077
C21   C     C_3   0.192353 0.791274 0.624347 0.049469
C22   C     C_3   0.165705 0.868270 0.614894 -0.281958
C23   C     C_3   0.203954 0.902132 0.568662 -0.878413
C24   C     C_R   0.738196 0.813508 0.220915 0.332531
C25   C     C_3   0.075531 0.670436 0.266346 0.158171
C26   C     C_3   0.033397 0.707189 0.222708 -0.380236
C27   C     C_3   0.981255 0.654772 0.196394 -0.938279
C28   C     C_3   0.924489 0.670425 0.733797 0.158142
C29   C     C_3   0.966629 0.707236 0.777405 -0.380191
C30   C     C_3   0.018742 0.654842 0.803771 -0.938290
C31   C     C_3   0.807658 0.791256 0.375653 0.049491
C32   C     C_3   0.834286 0.868261 0.385100 -0.282001
C33   C     C_3   0.796041 0.902112 0.431337 -0.878395
C34   C     C_3   0.692352 0.291266 0.124349 0.049466
C35   C     C_R   0.761786 0.313487 0.279104 0.332508
C36   C     C_3   0.665712 0.368265 0.114897 -0.281970
C37   C     C_3   0.703959 0.402120 0.068662 -0.878400
C38   C     C_3   0.575519 0.170431 0.766262 0.158150
C39   C     C_3   0.533385 0.207220 0.722641 -0.380219
C40   C     C_3   0.481261 0.154818 0.696294 -0.938252
C41   C     C_3   0.424503 0.170420 0.233879 0.158123
C42   C     C_3   0.466645 0.207269 0.277470 -0.380169
C43   C     C_3   0.518742 0.154890 0.303868 -0.938265
C44   C     C_3   0.307665 0.291240 0.875650 0.049481
C45   C     C_3   0.334288 0.368245 0.885100 -0.281998
C46   C     C_R   0.762732 0.314663 0.723462 0.298830
C47   C     C_3   0.296045 0.402088 0.931341 -0.878388
C48   C     C_3   0.305808 0.929069 0.786644 0.144391
C49   C     C_3   0.388252 0.927742 0.796275 -0.300798
C50   C     C_3   0.425408 0.994760 0.774223 -0.983619
C51   C     C_3   0.274933 0.872479 0.146616 0.160626
C52   C     C_3   0.284014 0.946724 0.121772 -0.311207
C53   C     C_3   0.290645 0.940886 0.063510 -0.823414
C54   C     C_3   0.724862 0.872631 0.853277 0.160521
C55   C     C_3   0.716012 0.946948 0.878056 -0.311095
C56   C     C_3   0.709209 0.941216 0.936313 -0.823655
C57   C     C_R   0.237229 0.314704 0.276482 0.298891
C58   C     C_3   0.694205 0.929092 0.213372 0.144432
C59   C     C_3   0.611760 0.927797 0.203744 -0.300788
C60   C     C_3   0.574630 0.994825 0.225803 -0.983632
C61   C     C_3   0.805806 0.429056 0.286674 0.144414
C62   C     C_3   0.888246 0.427723 0.296323 -0.300789
C63   C     C_3   0.925416 0.494743 0.274286 -0.983613
C64   C     C_3   0.775034 0.372567 0.646677 0.160541
C65   C     C_3   0.783946 0.446859 0.621870 -0.311148
C66   C     C_3   0.790642 0.441086 0.563609 -0.823528
C67   C     C_3   0.224740 0.372723 0.353212 0.160438
C68   C     C_R   0.238203 0.313500 0.720907 0.332529
C69   C     C_3   0.216012 0.447077 0.377951 -0.311077
C70   C     C_3   0.209109 0.441412 0.436206 -0.823910
C71   C     C_3   0.194205 0.429080 0.713347 0.144453
C72   C     C_3   0.111764 0.427780 0.703700 -0.300773
C73   C     C_3   0.074621 0.494810 0.725744 -0.983627
C74   C     C_R   0.811409 0.257029 0.281208 0.502402
C75   C     C_R   0.816839 0.262070 0.725840 0.480738
C76   C     C_R   0.183126 0.262104 0.274105 0.480642
C77   C     C_R   0.141920 0.861568 0.748509 0.883371
C78   C     C_R   0.188575 0.257045 0.718805 0.502432
C79   C     C_R   0.311418 0.757038 0.781199 0.502402
C80   C     C_R   0.316821 0.762052 0.225812 0.480770
C81   C     C_R   0.683146 0.762084 0.774137 0.480686
C82   C     C_R   0.688568 0.757052 0.218813 0.502428
C83   C     C_R   0.804081 0.196828 0.248676 -0.387942
C84   C     C_R   0.804488 0.197025 0.752149 -0.378723
C85   C     C_R   0.195515 0.197024 0.247849 -0.378646
C86   C     C_R   0.195916 0.196832 0.751325 -0.387945
C87   C     C_R   0.304085 0.696833 0.748671 -0.387972
C88   C     C_R   0.858079 0.861569 0.251491 0.883386
C89   C     C_R   0.304490 0.697027 0.252150 -0.378750
C90   C     C_R   0.695513 0.697025 0.747851 -0.378694
C91   C     C_R   0.695912 0.696837 0.251331 -0.387965
C92   C     C_R   0.933815 0.000365 0.026823 0.483778
C93   C     C_R   0.933841 0.000490 0.973383 0.468241
C94   C     C_R   0.066156 0.000571 0.026617 0.468133
C95   C     C_R   0.066182 0.000448 0.973177 0.483767
C96   C     C_R   0.433815 0.500318 0.526824 0.483777
C97   C     C_R   0.433839 0.500444 0.473383 0.468309
C98   C     C_R   0.566155 0.500601 0.526617 0.468181
C99   C     C_R   0.860159 0.859512 0.750598 0.913635
C100  C     C_R   0.566180 0.500480 0.473176 0.483775
C101  C     C_R   0.999979 0.000414 0.945853 -0.455954
C102  C     C_R   0.000018 0.000413 0.054147 -0.455956
C103  C     C_R   0.499978 0.500410 0.445853 -0.455974
C104  C     C_R   0.500018 0.500407 0.554147 -0.455982
C105  C     C_R   0.859113 0.139507 0.250422 0.898661
C106  C     C_R   0.860329 0.140601 0.750866 0.912394
C107  C     C_R   0.139672 0.140600 0.249134 0.912466
C108  C     C_R   0.140886 0.139508 0.749578 0.898667
C109  C     C_R   0.359114 0.639508 0.750421 0.898649
C110  C     C_R   0.639841 0.359511 0.749401 0.913585
C111  C     C_R   0.360330 0.640602 0.250866 0.912348
C112  C     C_R   0.639672 0.640601 0.749134 0.912420
C113  C     C_R   0.640885 0.639509 0.249580 0.898661
C114  C     C_R   0.000040 0.000112 0.110823 0.935008
C115  C     C_R   0.999959 0.000112 0.889177 0.935042
C116  C     C_R   0.500040 0.500110 0.610823 0.935022
C117  C     C_R   0.499959 0.500112 0.389177 0.935068
C118  C     C_R   0.999093 0.000046 0.388445 0.772714
C119  C     C_R   0.000907 0.000046 0.611555 0.772708
C120  C     C_R   0.499093 0.500046 0.888445 0.772714
C121  C     C_R   0.641920 0.361567 0.248510 0.883371
C122  C     C_R   0.500907 0.500046 0.111555 0.772707
C123  C     C_2   0.994180 0.057613 0.527710 0.459649
C124  C     C_2   0.005817 0.057613 0.472289 0.459636
C125  C     C_2   0.494178 0.557613 0.027710 0.459641
C126  C     C_2   0.505815 0.557613 0.972290 0.459632
C127  C     C_2   0.010773 0.999628 0.556478 0.328607
C128  C     C_2   0.989224 0.999628 0.443521 0.328628
C129  C     C_2   0.510773 0.499628 0.056478 0.328613
C130  C     C_2   0.489224 0.499628 0.943521 0.328624
C131  C     C_R   0.746569 0.193932 0.212707 0.300740
C132  C     C_R   0.358080 0.361568 0.751491 0.883394
C133  C     C_R   0.738833 0.186777 0.779578 0.317308
C134  C     C_R   0.261204 0.186742 0.220467 0.317263
C135  C     C_R   0.253438 0.193926 0.787285 0.300736
C136  C     C_R   0.246574 0.693937 0.712701 0.300748
C137  C     C_R   0.238853 0.686797 0.279603 0.317336
C138  C     C_R   0.761182 0.686763 0.720441 0.317299
C139  C     C_R   0.753432 0.693932 0.287293 0.300734
C140  C     C_R   0.200171 0.753844 0.707853 0.375535
C141  C     C_R   0.181733 0.736174 0.273238 0.309263
C142  C     C_R   0.818293 0.736151 0.726808 0.309170
C143  C     C_R   0.360157 0.359513 0.250597 0.913705
C144  C     C_R   0.799833 0.753840 0.292144 0.375506
C145  C     C_R   0.700169 0.253841 0.207857 0.375538
C146  C     C_R   0.681718 0.236161 0.773212 0.309218
C147  C     C_R   0.318309 0.236138 0.226834 0.309123
C148  C     C_R   0.299837 0.253835 0.792138 0.375512
C149  C     C_R   0.202266 0.809469 0.744918 -0.395898
C150  C     C_R   0.195342 0.802645 0.248362 -0.364716
C151  C     C_R   0.804653 0.802651 0.751635 -0.364562
C152  C     C_R   0.797732 0.809472 0.255084 -0.395886
C153  C     C_R   0.702263 0.309466 0.244922 -0.395885
C154  C     C_R   0.261794 0.813496 0.779094 0.332524
C155  C     C_R   0.695345 0.302648 0.748365 -0.364642
C156  C     C_R   0.304649 0.302655 0.251632 -0.364476
C157  C     C_R   0.297735 0.309468 0.755080 -0.395885
C158  C     C_3   0.745610 0.121913 0.139253 0.175311
C159  C     C_3   0.678338 0.099726 0.108214 -0.347218
C160  C     C_3   0.694494 0.097453 0.050861 -0.932173
C161  C     C_3   0.729770 0.147807 0.863190 0.124325
C162  C     C_3   0.808118 0.152797 0.883529 -0.357326
C163  C     C_3   0.809434 0.168167 0.940973 -0.906722
C164  C     C_3   0.270396 0.147661 0.136887 0.124404
F1    F     F_    0.968373 0.119572 0.549348 -0.601660
F2    F     F_    0.882904 0.276738 0.704423 -0.608162
F3    F     F_    0.117025 0.276799 0.295456 -0.608352
F4    F     F_    0.134696 0.260599 0.683122 -0.590230
F5    F     F_    0.365287 0.760584 0.816889 -0.590251
F6    F     F_    0.382870 0.776707 0.204364 -0.608072
F7    F     F_    0.617065 0.776764 0.795524 -0.608249
F8    F     F_    0.634684 0.760612 0.183134 -0.590220
F9    F     F_    0.868552 0.999803 0.051549 -0.628289
F10   F     F_    0.868688 0.000354 0.948836 -0.649765
F11   F     F_    0.131308 0.000522 0.051163 -0.649863
F12   F     F_    0.031628 0.119570 0.450651 -0.601676
F13   F     F_    0.131446 0.999975 0.948451 -0.628412
F14   F     F_    0.368552 0.499709 0.551550 -0.628218
F15   F     F_    0.368686 0.500260 0.448837 -0.649699
F16   F     F_    0.631307 0.500582 0.551162 -0.649865
F17   F     F_    0.631444 0.500046 0.448450 -0.628454
F18   F     F_    0.468367 0.619570 0.049348 -0.601660
F19   F     F_    0.531623 0.619571 0.950651 -0.601671
F20   F     F_    0.043161 0.940254 0.535610 -0.655174
F21   F     F_    0.956831 0.940256 0.464389 -0.655172
F22   F     F_    0.543165 0.440256 0.035610 -0.655177
F23   F     F_    0.456834 0.440254 0.964389 -0.655175
F24   F     F_    0.865272 0.260569 0.316904 -0.590270
H1    H     H_    0.786559 0.077951 0.135543 0.215508
H2    H     H_    0.836716 0.100919 0.876505 0.293134
H3    H     H_    0.389123 0.126535 0.249513 0.145691
H4    H     H_    0.498889 0.253055 0.261833 0.265419
H5    H     H_    0.427532 0.228748 0.306327 0.191387
H6    H     H_    0.488721 0.106735 0.318177 0.267332
H7    H     H_    0.562026 0.137526 0.276667 0.282822
H8    H     H_    0.545154 0.182277 0.336897 0.272400
H9    H     H_    0.319126 0.259086 0.910678 0.172055
H10   H     H_    0.247004 0.292461 0.871070 0.086723
H11   H     H_    0.393738 0.366517 0.892292 0.301362
H12   H     H_    0.323309 0.402362 0.850946 0.177958
H13   H     H_    0.837908 0.196620 0.863201 0.197070
H14   H     H_    0.236099 0.403466 0.925183 0.238943
H15   H     H_    0.315609 0.458409 0.936650 0.283077
H16   H     H_    0.308140 0.370729 0.966687 0.285494
H17   H     H_    0.283263 0.980031 0.802595 0.207453
H18   H     H_    0.294655 0.930656 0.744497 0.086074
H19   H     H_    0.398765 0.925106 0.838237 0.260021
H20   H     H_    0.412482 0.879189 0.777867 0.260643
H21   H     H_    0.416386 0.997806 0.732129 0.270252
H22   H     H_    0.485022 0.991962 0.781513 0.282725
H23   H     H_    0.403647 0.044442 0.792625 0.287658
H24   H     H_    0.779857 0.219132 0.949747 0.250034
H25   H     H_    0.221248 0.849654 0.134609 0.118723
H26   H     H_    0.319431 0.836552 0.132616 0.196605
H27   H     H_    0.236123 0.980897 0.131651 0.276994
H28   H     H_    0.333903 0.973233 0.137048 0.230992
H29   H     H_    0.341151 0.911155 0.052954 0.260463
H30   H     H_    0.293318 0.995896 0.046572 0.269432
H31   H     H_    0.242789 0.912073 0.047296 0.310541
H32   H     H_    0.778431 0.849626 0.865368 0.118704
H33   H     H_    0.680195 0.836893 0.867251 0.196873
H34   H     H_    0.764065 0.980922 0.868215 0.277177
H35   H     H_    0.866801 0.173498 0.954084 0.266429
H36   H     H_    0.666269 0.973633 0.862696 0.231043
H37   H     H_    0.658537 0.911730 0.946824 0.260351
H38   H     H_    0.706752 0.996260 0.953214 0.269460
H39   H     H_    0.756890 0.912203 0.952607 0.310605
H40   H     H_    0.716767 0.980049 0.197423 0.207491
H41   H     H_    0.705360 0.930669 0.255519 0.086030
H42   H     H_    0.601243 0.925173 0.161782 0.260021
H43   H     H_    0.587514 0.879249 0.222148 0.260620
H44   H     H_    0.583656 0.997860 0.267896 0.270219
H45   H     H_    0.515015 0.992049 0.218515 0.282694
H46   H     H_    0.783771 0.122675 0.962016 0.301090
H47   H     H_    0.596407 0.044503 0.207404 0.287736
H48   H     H_    0.783257 0.480017 0.302624 0.207441
H49   H     H_    0.794673 0.430650 0.244524 0.086079
H50   H     H_    0.898740 0.425078 0.338288 0.260018
H51   H     H_    0.912482 0.379173 0.277916 0.260686
H52   H     H_    0.916413 0.497797 0.232191 0.270267
H53   H     H_    0.985026 0.491940 0.281590 0.282734
H54   H     H_    0.903649 0.544422 0.292688 0.287632
H55   H     H_    0.721419 0.349621 0.634629 0.118643
H56   H     H_    0.819638 0.336764 0.632686 0.196766
H57   H     H_    0.300035 0.105630 0.114711 0.158065
H58   H     H_    0.735958 0.480905 0.631741 0.277143
H59   H     H_    0.833753 0.473484 0.637180 0.231011
H60   H     H_    0.841241 0.411499 0.553064 0.260375
H61   H     H_    0.793177 0.496118 0.546693 0.269528
H62   H     H_    0.742877 0.412155 0.547363 0.310493
H63   H     H_    0.278241 0.349622 0.365353 0.118724
H64   H     H_    0.179980 0.337092 0.367168 0.197034
H65   H     H_    0.264150 0.480939 0.368133 0.277280
H66   H     H_    0.166354 0.473853 0.362542 0.231098
H67   H     H_    0.158350 0.412063 0.446689 0.260310
H68   H     H_    0.299775 0.199359 0.129386 0.167089
H69   H     H_    0.206766 0.496471 0.453085 0.269468
H70   H     H_    0.256689 0.412298 0.452547 0.310669
H71   H     H_    0.216772 0.480036 0.697401 0.207488
H72   H     H_    0.205340 0.430661 0.755497 0.086021
H73   H     H_    0.101267 0.425148 0.661736 0.260025
H74   H     H_    0.087511 0.379234 0.722103 0.260657
H75   H     H_    0.083629 0.497853 0.767840 0.270234
H76   H     H_    0.015010 0.492030 0.718443 0.282706
H77   H     H_    0.096406 0.544485 0.707345 0.287716
H78   H     H_    0.163396 0.100915 0.123521 0.293187
H79   H     H_    0.162326 0.196631 0.136782 0.197080
H80   H     H_    0.220521 0.218996 0.050271 0.249943
H81   H     H_    0.771633 0.170969 0.122750 0.090598
H82   H     H_    0.133528 0.173461 0.045888 0.266529
H83   H     H_    0.216510 0.122533 0.038040 0.301168
H84   H     H_    0.213489 0.077912 0.864440 0.215541
H85   H     H_    0.228398 0.170930 0.877241 0.090651
H86   H     H_    0.340073 0.045252 0.879204 0.226542
H87   H     H_    0.367090 0.138187 0.884625 0.260227
H88   H     H_    0.288858 0.151763 0.962861 0.251146
H89   H     H_    0.355360 0.080705 0.970233 0.267124
H90   H     H_    0.261548 0.057869 0.957290 0.326405
H91   H     H_    0.286593 0.577973 0.635534 0.215487
H92   H     H_    0.659983 0.045270 0.120761 0.226586
H93   H     H_    0.271657 0.670990 0.622745 0.090565
H94   H     H_    0.160027 0.545275 0.620730 0.226596
H95   H     H_    0.132985 0.638204 0.615312 0.260186
H96   H     H_    0.211254 0.651827 0.537099 0.251048
H97   H     H_    0.144785 0.580745 0.529699 0.267179
H98   H     H_    0.238598 0.557942 0.542665 0.326431
H99   H     H_    0.200162 0.605987 0.385482 0.158205
H100  H     H_    0.200645 0.699686 0.370708 0.166913
H101  H     H_    0.336773 0.600900 0.376523 0.293116
H102  H     H_    0.338059 0.696593 0.363187 0.197061
H103  H     H_    0.632955 0.138203 0.115336 0.260210
H104  H     H_    0.280096 0.719217 0.449750 0.250082
H105  H     H_    0.367002 0.673503 0.454065 0.266368
H106  H     H_    0.283932 0.622762 0.462049 0.301041
H107  H     H_    0.799926 0.605762 0.614630 0.158119
H108  H     H_    0.799646 0.699476 0.629350 0.167056
H109  H     H_    0.663301 0.600989 0.623502 0.293175
H110  H     H_    0.662208 0.696690 0.636808 0.197057
H111  H     H_    0.720306 0.719162 0.550281 0.249965
H112  H     H_    0.633330 0.673591 0.545915 0.266477
H113  H     H_    0.716328 0.622710 0.538003 0.301152
H114  H     H_    0.711208 0.151796 0.037113 0.251087
H115  H     H_    0.713461 0.577936 0.364455 0.215563
H116  H     H_    0.728374 0.670955 0.377249 0.090645
H117  H     H_    0.840035 0.545266 0.379240 0.226534
H118  H     H_    0.867066 0.638200 0.384644 0.260215
H119  H     H_    0.788824 0.651815 0.462874 0.251105
H120  H     H_    0.855319 0.580755 0.470263 0.267122
H121  H     H_    0.761507 0.557921 0.457321 0.326441
H122  H     H_    0.180918 0.759120 0.589315 0.172050
H123  H     H_    0.253012 0.792518 0.628938 0.086714
H124  H     H_    0.106259 0.866521 0.607692 0.301372
H125  H     H_    0.644725 0.080724 0.029728 0.267162
H126  H     H_    0.176659 0.902388 0.649052 0.177971
H127  H     H_    0.263897 0.903530 0.574832 0.238943
H128  H     H_    0.184372 0.958447 0.563353 0.283085
H129  H     H_    0.191882 0.870773 0.533313 0.285483
H130  H     H_    0.035707 0.643890 0.292467 0.175157
H131  H     H_    0.110879 0.626486 0.250771 0.145711
H132  H     H_    0.001187 0.753038 0.238283 0.265488
H133  H     H_    0.072514 0.728559 0.193812 0.191323
H134  H     H_    0.011232 0.606543 0.182165 0.267350
H135  H     H_    0.937953 0.637536 0.223623 0.282927
H136  H     H_    0.738537 0.057907 0.042686 0.326418
H137  H     H_    0.954869 0.682074 0.163320 0.272369
H138  H     H_    0.964308 0.643816 0.707702 0.175179
H139  H     H_    0.889120 0.626516 0.749408 0.145693
H140  H     H_    0.998860 0.753046 0.761792 0.265442
H141  H     H_    0.927514 0.728674 0.806277 0.191363
H142  H     H_    0.988738 0.606660 0.818050 0.267340
H143  H     H_    0.062033 0.637526 0.776559 0.282858
H144  H     H_    0.045146 0.682196 0.836817 0.272384
H145  H     H_    0.819114 0.759107 0.410683 0.172062
H146  H     H_    0.746997 0.792481 0.371070 0.086722
H147  H     H_    0.700095 0.105850 0.885412 0.158152
H148  H     H_    0.893735 0.866529 0.392294 0.301368
H149  H     H_    0.823312 0.902375 0.350943 0.177956
H150  H     H_    0.736096 0.903494 0.425176 0.238943
H151  H     H_    0.815609 0.958432 0.436643 0.283074
H152  H     H_    0.808131 0.870756 0.466685 0.285496
H153  H     H_    0.680909 0.259112 0.089318 0.172049
H154  H     H_    0.753011 0.292501 0.128939 0.086719
H155  H     H_    0.606264 0.366522 0.107698 0.301366
H156  H     H_    0.676674 0.402382 0.149054 0.177967
H157  H     H_    0.763903 0.403512 0.074828 0.238946
H158  H     H_    0.700483 0.199559 0.870675 0.166986
H159  H     H_    0.684383 0.458437 0.063353 0.283080
H160  H     H_    0.691879 0.370761 0.033314 0.285485
H161  H     H_    0.535696 0.143849 0.792367 0.175163
H162  H     H_    0.610878 0.126504 0.750667 0.145703
H163  H     H_    0.501163 0.253046 0.738237 0.265463
H164  H     H_    0.572503 0.228630 0.693760 0.191342
H165  H     H_    0.511254 0.106615 0.682038 0.267341
H166  H     H_    0.437963 0.137537 0.723511 0.282892
H167  H     H_    0.454869 0.182151 0.663235 0.272390
H168  H     H_    0.464318 0.143775 0.207802 0.175179
O1    O     O_3   0.000000 0.000000 0.250030 -0.543082
O2    O     O_R   0.585480 0.353820 0.219950 -0.616589
O3    O     O_R   0.414520 0.353820 0.780050 -0.616617
O4    O     O_R   0.414520 0.353820 0.219950 -0.598573
O5    O     O_R   0.914530 0.146170 0.280090 -0.557943
O6    O     O_R   0.914530 0.146170 0.719910 -0.560304
O7    O     O_R   0.085470 0.146170 0.280090 -0.560342
O8    O     O_R   0.085470 0.146170 0.719910 -0.557951
O9    O     O_R   0.414530 0.646170 0.780090 -0.557945
O10   O     O_R   0.414530 0.646170 0.219910 -0.560284
O11   O     O_R   0.585470 0.646170 0.780090 -0.560321
O12   O     O_3   0.000000 1.000000 0.749970 -0.543076
O13   O     O_R   0.585470 0.646170 0.219910 -0.557957
O14   O     O_R   0.146180 0.085440 0.219990 -0.628687
O15   O     O_R   0.146180 0.085440 0.780010 -0.659884
O16   O     O_R   0.853820 0.085440 0.219990 -0.659901
O17   O     O_R   0.853820 0.085440 0.780010 -0.628724
O18   O     O_R   0.646180 0.585440 0.719990 -0.628695
O19   O     O_R   0.646180 0.585440 0.280010 -0.659868
O20   O     O_R   0.353820 0.585440 0.719990 -0.659903
O21   O     O_R   0.353820 0.585440 0.280010 -0.628749
O22   O     O_R   0.853820 0.914550 0.219980 -0.615475
O23   O     O_3   0.500000 0.500000 0.750030 -0.543076
O24   O     O_R   0.853820 0.914550 0.780020 -0.615413
O25   O     O_R   0.146180 0.914550 0.219980 -0.615328
O26   O     O_R   0.146180 0.914550 0.780020 -0.615484
O27   O     O_R   0.353820 0.414550 0.719980 -0.615460
O28   O     O_R   0.353820 0.414550 0.280020 -0.615458
O29   O     O_R   0.646180 0.414550 0.719980 -0.615405
O30   O     O_R   0.646180 0.414550 0.280020 -0.615492
O31   O     O_R   0.060720 0.999990 0.135450 -0.624567
O32   O     O_R   0.060720 0.999990 0.864550 -0.594200
O33   O     O_R   0.939280 0.999990 0.135450 -0.594221
O34   O     O_3   0.500000 0.500000 0.249970 -0.543071
O35   O     O_R   0.939280 0.999990 0.864550 -0.624647
O36   O     O_R   0.560720 0.499990 0.635450 -0.624610
O37   O     O_R   0.560720 0.499990 0.364550 -0.594191
O38   O     O_R   0.439280 0.499990 0.635450 -0.594224
O39   O     O_R   0.439280 0.499990 0.364550 -0.624694
O40   O     O_R   0.000000 0.939270 0.364600 -0.627225
O41   O     O_R   1.000000 0.939270 0.635400 -0.627235
O42   O     O_R   0.500000 0.439270 0.864600 -0.627233
O43   O     O_R   0.500000 0.439270 0.135400 -0.627243
O44   O     O_R   1.000000 0.060730 0.364620 -0.585997
O45   O     O_R   0.085480 0.853820 0.280050 -0.598601
O46   O     O_R   0.000000 0.060730 0.635380 -0.585976
O47   O     O_R   0.500000 0.560730 0.864620 -0.585986
O48   O     O_R   0.500000 0.560730 0.135380 -0.585968
O49   O     O_3   0.725690 0.128120 0.191588 -0.626860
O50   O     O_3   0.728858 0.126740 0.810768 -0.602691
O51   O     O_3   0.271217 0.126663 0.189324 -0.602554
O52   O     O_3   0.274327 0.128107 0.808390 -0.626881
O53   O     O_3   0.225700 0.628128 0.691575 -0.626830
O54   O     O_3   0.228900 0.626785 0.310821 -0.602775
O55   O     O_3   0.771169 0.626713 0.689266 -0.602631
O56   O     O_R   0.085480 0.853820 0.719950 -0.616605
O57   O     O_3   0.774314 0.628116 0.308406 -0.626869
O58   O     O_3   0.154056 0.758736 0.665986 -0.585790
O59   O     O_3   0.114489 0.722064 0.295699 -0.597113
O60   O     O_3   0.885565 0.722021 0.704395 -0.597184
O61   O     O_3   0.845953 0.758727 0.334009 -0.585832
O62   O     O_3   0.654053 0.258733 0.165990 -0.585793
O63   O     O_3   0.614458 0.222039 0.795646 -0.597151
O64   O     O_3   0.385596 0.221996 0.204448 -0.597215
O65   O     O_3   0.345959 0.258719 0.834002 -0.585826
O66   O     O_3   0.270949 0.871016 0.812508 -0.553108
O67   O     O_R   0.914520 0.853820 0.280050 -0.616631
O68   O     O_3   0.278351 0.880410 0.200528 -0.570282
O69   O     O_3   0.721586 0.880487 0.799355 -0.570436
O70   O     O_3   0.729039 0.871030 0.187503 -0.553070
O71   O     O_3   0.770933 0.371000 0.312525 -0.553114
O72   O     O_3   0.778386 0.380454 0.700595 -0.570359
O73   O     O_3   0.221549 0.380534 0.299284 -0.570527
O74   O     O_3   0.229053 0.371017 0.687489 -0.553047
O75   O     O_R   0.914520 0.853820 0.719950 -0.598581
O76   O     O_R   0.585480 0.353820 0.780050 -0.598587
Zn1   Zn    Zn3+2 0.000000 0.086760 0.292960 1.076205
Zn2   Zn    Zn3+2 0.586770 0.499990 0.292890 0.966341
Zn3   Zn    Zn3+2 0.413230 0.499990 0.707110 0.966345
Zn4   Zn    Zn3+2 0.413230 0.499990 0.292890 0.970791
Zn5   Zn    Zn3+2 0.000000 0.913240 0.292940 0.987588
Zn6   Zn    Zn3+2 0.000000 0.913240 0.707060 0.987616
Zn7   Zn    Zn3+2 0.500000 0.413240 0.792940 0.987606
Zn8   Zn    Zn3+2 0.500000 0.413240 0.207060 0.987634
Zn9   Zn    Zn3+2 0.000000 0.086760 0.707040 1.076230
Zn10  Zn    Zn3+2 0.500000 0.586760 0.792960 1.076208
Zn11  Zn    Zn3+2 0.500000 0.586760 0.207040 1.076232
Zn12  Zn    Zn3+2 0.086770 0.999990 0.207110 0.970965
Zn13  Zn    Zn3+2 0.086770 0.999990 0.792890 0.966337
Zn14  Zn    Zn3+2 0.913230 0.999990 0.207110 0.966338
Zn15  Zn    Zn3+2 0.913230 0.999990 0.792890 0.970853
Zn16  Zn    Zn3+2 0.586770 0.499990 0.707110 0.970883

loop_
_geom_bond_atom_site_label_1
_geom_bond_atom_site_label_2
_ccdc_geom_bond_type
O76   Zn7   S    
C127  F20   S    
C19   C20   S    
C80   F6    S    
C74   C83   A    
C136  C140  A    
C79   C87   A    
C66   H60   S    
C161  H158  S    
C45   H12   S    
C46   C155  A    
C39   H163  S    
C72   H73   S    
C43   H6    S    
C57   C76   A    
C38   O63   S    
C25   H131  S    
C5    C6    S    
C134  O51   S    
C63   H53   S    
C9    H95   S    
C10   H96   S    
C19   H117  S    
C26   H132  S    
O30   Zn2   S    
C37   H160  S    
C104  C116  S    
O18   Zn16  S    
C95   F13   S    
C50   H21   S    
C69   H66   S    
C71   O74   S    
C92   C102  A    
C17   H112  S    
C59   C60   S    
C21   C22   S    
C10   H97   S    
C103  C117  S    
C115  O35   A    
C67   O73   S    
C38   H161  S    
O33   Zn14  S    
C45   C47   S    
C15   H108  S    
C33   H152  S    
C84   C133  A    
C128  F21   S    
C99   O75   A    
C13   C151  A    
C120  O47   A    
O1    Zn14  S    
C93   C101  A    
O12   Zn6   S    
C52   H27   S    
C62   H51   S    
C83   C105  S    
C99   O24   A    
C142  C151  A    
C83   C131  A    
C102  C114  S    
C144  O61   S    
C111  O21   A    
C114  O31   A    
C1    C150  S    
C100  F17   S    
C97   C103  A    
C160  H125  S    
O75   Zn6   S    
C61   O71   S    
C81   C90   A    
C58   O70   S    
C1    O25   A    
C20   H119  S    
C118  O44   A    
C96   C104  A    
C158  C159  S    
C101  C115  S    
C41   O64   S    
C5    H85   S    
C98   F16   S    
C162  H2    S    
C34   H154  S    
O16   Zn14  S    
C85   C134  A    
C125  F18   S    
C113  O19   A    
C87   C136  A    
C86   C108  S    
C60   H45   S    
C72   C73   S    
C62   H50   S    
C6    C7    S    
O9    Zn10  S    
C132  C157  S    
C12   H101  S    
C11   H99   S    
C163  H46   S    
C32   C33   S    
C51   O68   S    
O67   Zn5   S    
C47   H16   S    
C161  O50   S    
C81   F7    S    
C36   H155  S    
C69   C70   S    
O1    Zn1   S    
C125  C129  D    
C120  O42   A    
C94   C102  A    
C40   H165  S    
C68   O74   S    
C22   C23   S    
C106  O6    A    
C7    H89   S    
C76   C85   A    
C55   H36   S    
C64   O72   S    
C65   H58   S    
C66   H62   S    
C107  O14   A    
C44   H10   S    
O45   Zn5   S    
C42   H5    S    
C88   O67   A    
C59   H43   S    
C123  C124  S    
C64   H55   S    
O48   Zn11  S    
C158  H81   S    
O36   Zn16  S    
C36   C37   S    
C106  O17   A    
C38   C39   S    
C75   C84   A    
C12   H102  S    
O29   Zn16  S    
C16   H110  S    
C31   H146  S    
C43   H7    S    
O41   Zn6   S    
C158  O49   S    
O23   Zn7   S    
C110  C155  S    
O12   Zn13  S    
C26   H133  S    
C70   H69   S    
C117  O37   A    
C20   H121  S    
C116  O36   A    
O19   Zn2   S    
O17   Zn15  S    
C9    C10   S    
C37   H157  S    
C94   F11   S    
O31   Zn12  S    
C3    H78   S    
C14   H105  S    
C30   H143  S    
C126  F19   S    
C60   H47   S    
C46   C75   A    
C90   C138  A    
C141  C150  A    
O21   Zn4   S    
C53   H29   S    
C57   C156  A    
O10   Zn11  S    
C41   H3    S    
C23   H129  S    
C48   O66   S    
C137  O54   S    
C7    H88   S    
C39   C40   S    
C107  O7    A    
C130  F23   S    
C154  O66   S    
C54   H33   S    
C25   C26   S    
C133  C146  A    
C47   H14   S    
O26   Zn13  S    
C164  O51   S    
C29   C30   S    
C123  C127  D    
C31   C32   S    
C49   H20   S    
C18   H115  S    
C40   H167  S    
C164  H57   S    
C5    O52   S    
C55   H34   S    
C51   H26   S    
C147  O64   S    
C77   O56   A    
C29   H141  S    
C145  O62   S    
C3    C4    S    
C8    H91   S    
C52   C53   S    
C159  H92   S    
C54   C55   S    
C5    H84   S    
C11   O54   S    
C35   C153  A    
O5    Zn1   S    
C25   O59   S    
C163  H24   S    
C73   H76   S    
C124  F12   S    
C45   H11   S    
C78   F4    S    
O40   Zn5   S    
C29   H140  S    
O2    Zn8   S    
O43   Zn8   S    
C71   C72   S    
C144  C152  A    
O12   Zn15  S    
C148  O65   S    
C117  O39   A    
C118  O40   A    
O32   Zn13  S    
C9    H94   S    
C131  C145  A    
C34   C36   S    
C148  C157  A    
C61   C62   S    
C6    H86   S    
C37   H159  S    
O15   Zn13  S    
C86   C135  A    
C50   H22   S    
C49   C50   S    
C27   H134  S    
O23   Zn16  S    
C160  H114  S    
C140  C149  A    
O24   Zn15  S    
C73   H75   S    
C119  C127  S    
C53   H31   S    
C55   C56   S    
C17   H111  S    
C35   C74   A    
C2    C150  A    
C109  O9    A    
C41   C42   S    
C10   H98   S    
O46   Zn9   S    
C19   H118  S    
C38   H162  S    
C161  C162  S    
C58   H40   S    
C134  C147  A    
C33   H151  S    
C26   C27   S    
C121  C153  S    
C56   H37   S    
O25   Zn12  S    
O3    Zn7   S    
C28   C29   S    
C119  O41   A    
C131  O49   S    
C28   H139  S    
C14   H106  S    
C126  C130  D    
C13   C81   A    
C52   H28   S    
C77   O26   A    
C18   C19   S    
C80   C89   A    
C24   C152  A    
C146  C155  A    
C142  O60   S    
C16   C17   S    
C48   H17   S    
C84   C106  S    
O28   Zn4   S    
C110  O76   A    
O1    Zn12  S    
C146  O63   S    
C122  C129  S    
C124  C128  D    
C67   H64   S    
C4    H83   S    
C20   H120  S    
C18   O57   S    
C129  F22   S    
O7    Zn1   S    
C112  O18   A    
C164  H68   S    
C114  O33   A    
C74   F24   S    
C25   H130  S    
C68   C78   A    
C82   F8    S    
C39   H164  S    
C3    H79   S    
C132  O3    A    
C139  O57   S    
O23   Zn3   S    
C138  C142  A    
O34   Zn8   S    
O12   Zn9   S    
C58   C59   S    
C63   H54   S    
C100  C103  A    
C51   C52   S    
C109  O20   A    
C149  C154  A    
C31   O61   S    
C62   C63   S    
C105  O16   A    
C1    O45   A    
C159  C160  S    
C47   H15   S    
C36   H156  S    
C119  O46   A    
C147  C156  A    
C73   H77   S    
C91   C139  A    
C48   C49   S    
C17   H113  S    
C89   C137  A    
C40   H166  S    
C125  C126  S    
C120  C130  S    
C42   C43   S    
C77   C149  S    
C68   C157  A    
C63   H52   S    
C44   C45   S    
C110  O29   A    
C162  C163  S    
C137  C141  A    
C161  H147  S    
C56   H39   S    
C140  O58   S    
C60   H44   S    
C72   H74   S    
C141  O59   S    
C70   H67   S    
C64   H56   S    
C122  O48   A    
C4    H80   S    
C24   O70   S    
C27   H137  S    
C112  O11   A    
C64   C65   S    
C79   F5    S    
O27   Zn3   S    
C54   O69   S    
C92   C93   A    
C31   H145  S    
C75   F2    S    
C113  O13   A    
C143  O28   A    
C94   C95   A    
C98   C100  A    
C159  H103  S    
C82   C91   A    
C70   H70   S    
C88   O22   A    
C21   H123  S    
C22   H124  S    
C121  O2    A    
O34   Zn4   S    
C105  O5    A    
C34   H153  S    
C32   H148  S    
C30   H144  S    
C90   C112  S    
C41   H168  S    
C69   H65   S    
C8    O53   S    
C15   H107  S    
C57   O73   S    
O20   Zn3   S    
C11   H100  S    
C97   F15   S    
C111  O10   A    
C15   C16   S    
O13   Zn11  S    
C2    O68   S    
C93   F10   S    
O14   Zn12  S    
C76   F3    S    
C21   O58   S    
C24   C82   A    
C28   H138  S    
C133  O50   S    
C49   H19   S    
C8    C9    S    
C34   O62   S    
C18   H116  S    
C22   H126  S    
O39   Zn4   S    
C7    H90   S    
C116  O38   A    
C87   C109  S    
C145  C153  A    
C78   C86   A    
O42   Zn7   S    
C65   H59   S    
C66   H61   S    
C44   H9    S    
C136  O53   S    
C88   C152  S    
C23   H128  S    
C118  C128  S    
O38   Zn3   S    
C46   O72   S    
O22   Zn14  S    
C44   O65   S    
O47   Zn10  S    
C4    H82   S    
C27   H135  S    
O37   Zn2   S    
C162  H13   S    
O8    Zn9   S    
C158  H1    S    
O56   Zn6   S    
C71   H72   S    
C99   C151  S    
C16   H109  S    
C91   C113  S    
C43   H8    S    
C67   C69   S    
C138  O55   S    
C32   H149  S    
C42   H4    S    
C143  O4    A    
C35   O71   S    
C139  C144  A    
C121  O30   A    
C160  H136  S    
C96   C97   A    
O34   Zn2   S    
C23   H127  S    
C6    H87   S    
O35   Zn15  S    
C3    C164  S    
C108  O15   A    
O4    Zn8   S    
C12   C14   S    
C50   H23   S    
C65   C66   S    
C28   O60   S    
C14   H104  S    
C30   H142  S    
C71   H71   S    
C135  O52   S    
O1    Zn5   S    
C53   H30   S    
O11   Zn10  S    
O34   Zn11  S    
O6    Zn9   S    
C11   C12   S    
C108  O8    A    
C54   H32   S    
C163  H35   S    
C92   F9    S    
C33   H150  S    
C89   C111  S    
C15   O55   S    
C56   H38   S    
C61   H49   S    
O23   Zn10  S    
C13   O69   S    
C58   H41   S    
C79   C154  A    
C8    H93   S    
C51   H25   S    
C143  C156  S    
C21   H122  S    
C122  O43   A    
C98   C104  A    
C115  O32   A    
C2    C80   A    
C123  F1    S    
C95   C101  A    
O44   Zn1   S    
C135  C148  A    
C48   H18   S    
C61   H48   S    
C132  O27   A    
C96   F14   S    
C85   C107  S    
C59   H42   S    
C67   H63   S    
