data_mof_unit_40881.cif
_audit_creation_date              2012-12-10T17:12:04-0500
_audit_creation_method            fapswitch 2.2
_symmetry_space_group_name_H-M    P1
_symmetry_Int_Tables_number       1
_space_group_crystal_system       triclinic
_cell_length_a                    11.744581
_cell_length_b                    13.031713
_cell_length_c                    15.822415
_cell_angle_alpha                 93.671
_cell_angle_beta                  72.628422
_cell_angle_gamma                 102.661067
_cell_volume                      2254.99497775

loop_
_atom_site_label
_atom_site_type_symbol
_atom_type_description
_atom_site_fract_x
_atom_site_fract_y
_atom_site_fract_z
_atom_type_partial_charge
C1    C     C_R   0.524859 0.701887 0.499190 0.920623
C2    C     C_R   0.474727 0.298214 0.501574 0.897343
C3    C     C_R   0.359223 0.425923 0.083301 -0.197999
C4    C     C_R   0.643797 0.553464 0.913526 -0.191435
C5    C     C_R   0.276746 0.401751 0.034266 -0.217541
C6    C     C_R   0.726360 0.577966 0.962393 -0.221831
C7    C     C_R   0.453739 0.182250 0.505456 -0.228030
C8    C     C_R   0.544170 0.817992 0.497960 -0.241622
C9    C     C_R   0.607561 0.986914 0.562201 -0.251793
C10   C     C_R   0.386455 0.012179 0.445094 -0.220828
C11   C     C_R   0.618148 0.881276 0.545777 0.383224
C12   C     C_R   0.377060 0.118015 0.460167 0.378769
C13   C     C_R   0.483094 0.866158 0.452113 0.362058
C14   C     C_R   0.514274 0.134805 0.552348 0.276695
C15   C     C_R   0.467104 0.969741 0.474812 -0.053389
C16   C     C_R   0.528525 0.030292 0.531344 -0.053623
C17   C     C_R   0.945659 0.604812 0.575344 -0.337651
C18   C     C_R   0.054278 0.395116 0.424792 -0.352419
C19   C     C_R   0.825734 0.591532 0.570971 0.005252
C20   C     C_R   0.174244 0.408452 0.429036 -0.000447
C21   C     C_R   0.858770 0.457008 0.463659 0.645322
C22   C     C_R   0.141149 0.542816 0.536500 0.657750
C23   C     C_R   0.425763 0.493826 0.668450 0.813439
C24   C     C_R   0.574087 0.504868 0.331499 0.829106
C25   C     C_R   0.978000 0.462399 0.471788 -0.062715
C26   C     C_R   0.021991 0.537594 0.528267 -0.056273
C27   C     C_R   0.380324 0.479819 0.765096 -0.026172
C28   C     C_R   0.619455 0.514590 0.234468 -0.053233
C29   C     C_R   0.227855 0.400551 0.896508 -0.180628
C30   C     C_R   0.773675 0.586254 0.101083 -0.190088
C31   C     C_R   0.262708 0.423411 0.806471 -0.165334
C32   C     C_R   0.737808 0.568541 0.191937 -0.173331
C33   C     C_R   0.462792 0.512318 0.814581 -0.188748
C34   C     C_R   0.536982 0.479648 0.185269 -0.241501
C35   C     C_R   0.433098 0.483395 0.904044 0.097476
C36   C     C_R   0.568241 0.502457 0.094314 0.089119
C37   C     C_R   0.312189 0.428964 0.945235 0.162054
C38   C     C_R   0.689776 0.555067 0.052330 0.161045
C39   C     C_R   0.519929 0.505669 0.953176 0.072325
C40   C     C_R   0.482115 0.477282 0.044596 0.072325
Cu1   Cu    Cu3+1 0.386820 0.492450 0.493500 1.034120
Cu2   Cu    Cu3+1 0.613180 0.507550 0.506500 1.039888
H1    H     H_    0.184106 0.360974 0.066503 0.142392
H2    H     H_    0.819780 0.616235 0.929423 0.141913
H3    H     H_    0.233193 0.359028 0.389751 0.177530
H4    H     H_    0.766604 0.640723 0.610339 0.175522
H5    H     H_    0.977749 0.667666 0.615898 0.183136
H6    H     H_    0.022088 0.332055 0.384478 0.181331
H7    H     H_    0.447624 0.437476 0.220884 0.148176
H8    H     H_    0.550589 0.558781 0.780559 0.136310
H9    H     H_    0.801077 0.600905 0.229049 0.147128
H10   H     H_    0.199273 0.393393 0.768960 0.141337
H11   H     H_    0.136048 0.357167 0.927440 0.138033
H12   H     H_    0.865968 0.628091 0.069399 0.139155
H13   H     H_    0.322742 0.402086 0.151602 0.141048
H14   H     H_    0.681266 0.572813 0.844260 0.144252
H15   H     H_    0.662273 0.036015 0.598808 0.179957
H16   H     H_    0.329936 0.962142 0.410133 0.199250
N1    N     N_R   0.216750 0.481110 0.483710 -0.208376
N2    N     N_R   0.783250 0.518890 0.516290 -0.201166
O1    O     O_R   0.419950 0.645670 0.495380 -0.491576
O2    O     O_R   0.580050 0.354330 0.504620 -0.498063
O3    O     O_R   0.611110 0.658410 0.506370 -0.564909
O4    O     O_R   0.388890 0.341590 0.493630 -0.563552
O5    O     O_R   0.350820 0.490050 0.621260 -0.596731
O6    O     O_R   0.649180 0.509950 0.378740 -0.589986
O7    O     O_R   0.541970 0.502800 0.632250 -0.554867
O8    O     O_R   0.458030 0.497200 0.367750 -0.564827
S1    S     S_3+6 0.555742 0.201315 0.644991 0.022642
O9    O     O_2   0.475270 0.277930 0.683274 -0.279755
O10   O     O_2   0.539640 0.124631 0.716829 -0.273988
O11   O     O_3   0.701950 0.267150 0.612832 -0.493384
H17   H     H_    0.744392 0.225188 0.563961 0.323329
S2    S     S_3+6 0.444995 0.803138 0.357427 -0.004396
O12   O     O_2   0.314778 0.743324 0.384726 -0.284708
O13   O     O_2   0.460818 0.883180 0.288167 -0.306237
O14   O     O_3   0.537576 0.720285 0.312055 -0.558534
H18   H     H_    0.523476 0.701697 0.253784 0.378297
O15   O     O_3   0.299194 0.161928 0.428299 -0.567006
C41   C     C_3   0.190931 0.088116 0.427148 0.083840
H19   H     H_    0.153946 0.037879 0.487739 0.139337
H20   H     H_    0.208707 0.038460 0.366744 0.170696
C42   C     C_3   0.092519 0.144303 0.423428 -0.818702
H21   H     H_    0.123133 0.190352 0.361147 0.237813
H22   H     H_    0.008004 0.085830 0.423765 0.202358
H23   H     H_    0.072015 0.196130 0.482028 0.257875
O16   O     O_3   0.695087 0.836582 0.578104 -0.567066
C43   C     C_3   0.800491 0.910964 0.584460 0.077036
H24   H     H_    0.778085 0.957079 0.646624 0.169632
H25   H     H_    0.839258 0.964531 0.525976 0.134810
C44   C     C_3   0.899598 0.855756 0.588481 -0.806785
H26   H     H_    0.924383 0.807410 0.528107 0.260411
H27   H     H_    0.981976 0.914948 0.591853 0.205390
H28   H     H_    0.867512 0.806313 0.648974 0.234460
O17   O     O_3   0.184255 0.614024 0.594342 -0.558462
C45   C     C_3   0.127853 0.577341 0.682505 0.039609
H29   H     H_    0.138254 0.496223 0.689851 0.147120
H30   H     H_    0.028575 0.575409 0.704749 0.128228
C46   C     C_3   0.184787 0.650779 0.744503 -0.746873
H31   H     H_    0.164594 0.729950 0.743314 0.244280
H32   H     H_    0.146535 0.619543 0.813182 0.198202
H33   H     H_    0.285230 0.658329 0.723603 0.244883
O18   O     O_3   0.815172 0.384867 0.406619 -0.572218
C47   C     C_3   0.870962 0.420222 0.318065 0.039012
H34   H     H_    0.970203 0.422106 0.295511 0.128986
H35   H     H_    0.860663 0.501136 0.310007 0.149478
C48   C     C_3   0.813303 0.345628 0.257081 -0.743965
H36   H     H_    0.712883 0.338292 0.278265 0.247554
H37   H     H_    0.851171 0.375646 0.188016 0.201571
H38   H     H_    0.833305 0.266548 0.259176 0.241512

loop_
_geom_bond_atom_site_label_1
_geom_bond_atom_site_label_2
_ccdc_geom_bond_type
O16   C43   S    
C45   C46   S    
C8    C13   A    
C5    C37   A    
C1    C8    S    
C22   O17   S    
O17   C45   S    
Cu1   O1    S    
C31   H10   S    
C47   H35   S    
C19   H4    S    
O14   H18   S    
C27   C33   A    
C30   H12   S    
S2    O13   D    
C17   C26   A    
C10   H16   S    
C9    C16   A    
C10   C15   A    
C15   C16   A    
C12   O15   S    
C30   C38   A    
C18   C20   A    
Cu1   Cu2   S    
C23   O7    A    
S1    O10   D    
C33   C35   A    
C3    H13   S    
C7    C14   A    
C2    C7    S    
C11   O16   S    
S2    O14   S    
C45   H30   S    
C48   H36   S    
C6    C38   A    
C23   C27   S    
Cu2   O2    S    
C34   C36   A    
C20   H3    S    
C24   O6    A    
C5    H1    S    
C28   C34   A    
C6    H2    S    
C4    H14   S    
C48   H37   S    
C18   C25   A    
C41   C42   S    
C1    O3    A    
C47   H34   S    
C2    O4    A    
Cu1   O8    S    
C7    C12   A    
S2    O12   D    
C27   C31   A    
C17   H5    S    
C28   C32   A    
Cu1   N1    S    
C21   N2    A    
C41   H20   S    
Cu2   N2    S    
C22   N1    A    
O11   H17   S    
Cu1   O5    S    
C33   H8    S    
C1    O1    A    
C21   O18   S    
S1    O11   S    
C35   C39   A    
C32   H9    S    
C44   H27   S    
C42   H21   S    
C4    C39   A    
C36   C40   A    
C45   H29   S    
C42   H23   S    
C43   H24   S    
C20   N1    A    
C9    C11   A    
C10   C12   A    
C4    C6    A    
C14   S1    S    
C42   H22   S    
C43   H25   S    
C3    C40   A    
C13   C15   A    
Cu2   O7    S    
C48   H38   S    
C14   C16   A    
C44   H26   S    
C35   C37   A    
C21   C25   A    
C34   H7    S    
C46   H32   S    
C24   C28   S    
C41   H19   S    
C3    C5    A    
C18   H6    S    
C19   N2    A    
C46   H31   S    
C23   O5    A    
C36   C38   A    
C25   C26   A    
C29   C31   A    
C44   H28   S    
C30   C32   A    
C43   C44   S    
C29   H11   S    
C8    C11   A    
C17   C19   A    
C9    H15   S    
S1    O9    D    
C24   O8    A    
O15   C41   S    
C39   C40   A    
C46   H33   S    
C13   S2    S    
C22   C26   A    
C29   C37   A    
O18   C47   S    
Cu2   O6    S    
Cu1   O4    S    
Cu2   O3    S    
C47   C48   S    
C2    O2    A    
