data_mof_unit_65007.cif
_audit_creation_date              2012-12-11T14:24:20-0500
_audit_creation_method            fapswitch 2.2
_symmetry_space_group_name_H-M    P1
_symmetry_Int_Tables_number       1
_space_group_crystal_system       triclinic
_cell_length_a                    6.953318
_cell_length_b                    17.458833
_cell_length_c                    18.865552
_cell_angle_alpha                 105.373043
_cell_angle_beta                  89.750012
_cell_angle_gamma                 90.486422
_cell_volume                      2208.18964563

loop_
_atom_site_label
_atom_site_type_symbol
_atom_type_description
_atom_site_fract_x
_atom_site_fract_y
_atom_site_fract_z
_atom_type_partial_charge
O1    O     O_R   0.494360 0.416740 0.414860 -0.515769
O2    O     O_R   0.818980 0.432970 0.557290 -0.525820
O3    O     O_R   0.994290 0.583260 0.585140 -0.539049
C1    C     C_R   0.649991 0.415915 0.580585 0.708759
O4    O     O_R   0.823740 0.407570 0.413690 -0.552391
O5    O     O_R   0.999090 0.557670 0.440510 -0.522164
C2    C     C_R   0.653962 0.383857 0.387600 0.646669
O6    O     O_R   0.489560 0.442330 0.559490 -0.523622
O7    O     O_3   0.662450 0.549280 0.508970 -0.362210
V1    V     V_3+5 0.935350 0.490860 0.498340 1.411957
O8    O     O_R   0.329100 0.567030 0.442710 -0.524672
C3    C     C_R   0.160941 0.584045 0.419376 0.721450
O9    O     O_R   0.324330 0.592430 0.586310 -0.538549
C4    C     C_R   0.154993 0.614981 0.613479 0.742070
V2    V     V_3+5 0.435960 0.509140 0.501660 1.425796
O10   O     O_3   0.158990 0.450720 0.491030 -0.357938
C5    C     C_2   0.278375 0.788493 0.784995 -0.127698
C6    C     C_2   0.113441 0.817184 0.819724 -0.312317
H1    H     H_    0.414214 0.815550 0.807010 0.136674
H2    H     H_    0.975853 0.791115 0.799512 0.128327
C7    C     C_2   0.290979 0.720655 0.717473 -0.133644
C8    C     C_2   0.138281 0.682412 0.680036 -0.309357
H3    H     H_    0.434756 0.702067 0.697923 0.134536
H4    H     H_    0.993411 0.700090 0.698014 0.130165
C9    C     C_1   0.110723 0.863930 0.132649 -0.213216
C10   C     C_1   0.118295 0.821361 0.176213 -0.000080
C11   C     C_1   0.127806 0.771142 0.228100 -0.001421
C12   C     C_1   0.135935 0.728852 0.271894 -0.000906
C13   C     C_1   0.145444 0.678627 0.323775 0.001146
C14   C     C_1   0.153014 0.636047 0.367329 -0.213644
C15   C     C_1   0.641336 0.363944 0.632587 -0.218086
C16   C     C_1   0.636930 0.321343 0.676146 -0.001712
C17   C     C_1   0.633212 0.271108 0.728041 -0.001725
C18   C     C_1   0.630399 0.228804 0.771868 -0.000984
C19   C     C_1   0.626695 0.178587 0.823780 0.000598
C20   C     C_1   0.622318 0.136016 0.867368 -0.212125
C21   C     C_2   0.774882 0.211592 0.215947 -0.115020
C22   C     C_2   0.614716 0.186451 0.176341 -0.278719
H5    H     H_    0.909274 0.180665 0.199299 0.140661
H6    H     H_    0.482198 0.219472 0.188929 0.189633
C23   C     C_2   0.783371 0.283307 0.279933 -0.228119
C24   C     C_2   0.634902 0.310886 0.326065 0.305701
H7    H     H_    0.922648 0.312589 0.291094 0.123389
O11   O     O_R   0.774180 0.057760 0.940580 -0.522096
O12   O     O_R   0.439830 0.092440 0.086330 -0.539167
O13   O     O_R   0.264640 0.942310 0.059470 -0.521943
C25   C     C_R   0.608791 0.115741 0.112772 0.723147
O14   O     O_R   0.444740 0.067040 0.942730 -0.526102
O15   O     O_R   0.269590 0.916730 0.914840 -0.534827
C26   C     C_R   0.613713 0.084082 0.919410 0.716790
O16   O     O_R   0.769230 0.083340 0.085210 -0.534162
O17   O     O_3   0.601340 0.950770 0.991070 -0.362195
V3    V     V_3+5 0.328370 0.009130 0.001660 1.413914
O18   O     O_R   0.939550 0.907490 0.913620 -0.542369
C27   C     C_R   0.108364 0.884946 0.886445 0.744117
O19   O     O_R   0.934640 0.932890 0.057220 -0.525050
C28   C     C_R   0.102793 0.915917 0.080589 0.717869
V4    V     V_3+5 0.827780 0.990750 0.998250 1.409629
O20   O     O_3   0.104690 0.049230 0.008930 -0.361743
O21   O     O_3   0.458143 0.272339 0.315994 -0.550396
C29   C     C_3   0.440896 0.226193 0.366772 -0.237295
H8    H     H_    0.438825 0.264078 0.424399 0.125323
H9    H     H_    0.558035 0.181625 0.359309 0.133331
H10   H     H_    0.302345 0.193164 0.356844 0.156650

loop_
_geom_bond_atom_site_label_1
_geom_bond_atom_site_label_2
_ccdc_geom_bond_type
O5    V1    S    
C29   H10   S    
O2    C1    A    
O8    C3    A    
C21   C22   D    
O1    V2    S    
C23   C24   D    
C19   C20   T    
O9    V2    S    
C1    O6    A    
O15   C27   A    
C16   C17   S    
C4    C8    S    
O14   C26   A    
C5    C6    D    
V3    O20   S    
O12   V3    S    
O4    V1    S    
C21   H5    S    
O3    V1    S    
V1    O10   S    
O9    C4    A    
O17   V3    S    
C22   H6    S    
C23   H7    S    
C22   C25   S    
C13   C14   T    
O3    C4    A    
O17   V4    S    
C6    C27   S    
C21   C23   S    
O15   V3    S    
O13   V3    S    
C7    C8    D    
C12   C13   S    
C5    H1    S    
O19   V4    S    
C17   C18   T    
O6    V2    S    
C6    H2    S    
O12   C25   A    
O13   C28   A    
O5    C3    A    
O14   V3    S    
O18   V4    S    
C8    H4    S    
V4    O20   S    
C1    C15   S    
C29   H8    S    
C24   O21   S    
V2    O10   S    
O2    V1    S    
C9    C28   S    
C20   C26   S    
O19   C28   A    
C29   H9    S    
C18   C19   S    
O7    V1    S    
C2    C24   S    
O16   V4    S    
C11   C12   T    
O4    C2    A    
O18   C27   A    
C10   C11   S    
O11   C26   A    
C3    C14   S    
C9    C10   T    
O1    C2    A    
O8    V2    S    
C7    H3    S    
C25   O16   A    
C15   C16   T    
O7    V2    S    
O11   V4    S    
O21   C29   S    
C5    C7    S    
