data_mof_unit_17173.cif
_audit_creation_date              2013-03-05T16:32:18-0500
_audit_creation_method            fapswitch 2.2
_symmetry_space_group_name_H-M    P1
_symmetry_Int_Tables_number       1
_space_group_crystal_system       triclinic
_cell_length_a                    15.884221
_cell_length_b                    10.948363
_cell_length_c                    9.625273
_cell_angle_alpha                 89.082921
_cell_angle_beta                  89.633114
_cell_angle_gamma                 90.151834
_cell_volume                      1673.6397489

loop_
_atom_site_label
_atom_site_type_symbol
_atom_site_description
_atom_site_fract_x
_atom_site_fract_y
_atom_site_fract_z
_atom_type_partial_charge
O1    O     O_R   0.500000 0.319640 0.618810 -0.567893
O2    O     O_R   0.500010 0.319680 0.381230 -0.525904
C1    C     C_R   0.503232 0.263006 0.500189 0.857529
O3    O     O_R   0.379430 0.499990 0.618840 -0.517106
O4    O     O_R   0.379440 0.500030 0.381260 -0.598527
C2    C     C_R   0.340530 0.499596 0.500316 0.862810
Cu1   Cu    Cu3+1 0.500000 0.499980 0.640670 1.059678
Cu2   Cu    Cu3+1 0.500000 0.500020 0.359330 1.045613
O5    O     O_R   0.499990 0.680320 0.618770 -0.574987
O6    O     O_R   0.500000 0.680360 0.381190 -0.575514
O7    O     O_R   0.620560 0.499970 0.618740 -0.581281
O8    O     O_R   0.620570 0.500010 0.381160 -0.584546
C3    C     C_R   0.499780 0.737111 0.497912 0.838966
C4    C     C_R   0.659617 0.499505 0.499473 0.810265
C5    C     C_3   0.050511 0.569053 0.623213 -0.392110
C6    C     C_3   0.048921 0.361419 0.514004 -0.226122
C7    C     C_3   0.950360 0.362624 0.508851 0.116780
H1    H     H_    0.930378 0.528261 0.722764 0.180625
H2    H     H_    0.073084 0.527335 0.722434 0.218622
H3    H     H_    0.069565 0.326893 0.617769 0.197210
H4    H     H_    0.929342 0.317170 0.412073 0.158819
C8    C     C_1   0.749338 0.498369 0.498250 -0.050891
C9    C     C_3   0.083521 0.494820 0.498424 0.101135
C10   C     C_3   0.952531 0.572631 0.624766 -0.168680
C11   C     C_3   0.917411 0.497451 0.499792 0.070577
C12   C     C_3   0.952611 0.552693 0.361029 -0.406759
C13   C     C_3   0.049991 0.557197 0.363880 -0.348231
C14   C     C_1   0.824924 0.497732 0.498244 0.028899
C15   C     C_1   0.175678 0.496619 0.499225 -0.015655
C16   C     C_1   0.251087 0.498131 0.500360 -0.042650
H5    H     H_    0.071025 0.654283 0.359425 0.202528
H6    H     H_    0.076323 0.513612 0.269792 0.233586
H7    H     H_    0.927691 0.645758 0.340269 0.235264
H8    H     H_    0.077747 0.662955 0.617583 0.215052
H9    H     H_    0.932027 0.496281 0.272157 0.206352
C17   C     C_R   0.494757 0.058823 0.614699 -0.060396
C18   C     C_R   0.508510 0.130240 0.496678 -0.159825
C19   C     C_R   0.522652 0.067748 0.370120 0.296043
C20   C     C_R   0.516419 0.938868 0.365480 -0.123266
C21   C     C_R   0.501267 0.869984 0.490996 -0.166804
C22   C     C_R   0.490881 0.935703 0.611605 0.057453
C23   C     C_3   0.471507 0.922334 0.763423 0.076932
C24   C     C_3   0.476884 0.064621 0.767156 -0.259878
H10   H     H_    0.521200 0.871281 0.820473 0.120730
C25   C     C_R   0.573636 0.497785 0.073127 0.286276
N1    N     N_R   0.500530 0.500930 0.147930 -0.215469
C26   C     C_R   0.427464 0.493205 0.076831 -0.001563
H11   H     H_    0.368261 0.490413 0.132512 0.178399
C27   C     C_R   0.426521 0.494802 0.930193 0.434426
N2    N     N_R   0.500530 0.500890 0.852020 -0.257285
C28   C     C_R   0.573874 0.499966 0.926058 0.177366
C29   C     C_3   0.640976 0.596723 0.924108 -0.264288
C30   C     C_3   0.642386 0.589157 0.081859 -0.511422
H12   H     H_    0.618251 0.686278 0.883035 0.157509
H13   H     H_    0.700413 0.548365 0.126946 0.222704
H14   H     H_    0.621556 0.673476 0.133458 0.219989
C31   C     C_2   0.922080 0.703930 0.633929 0.940200
O9    O     O_2   0.875247 0.748592 0.546630 -0.558733
O10   O     O_R   0.947031 0.773529 0.747134 -0.708855
H15   H     H_    0.922827 0.859137 0.744273 0.376764
N3    N     N_R   0.540621 0.133953 0.243859 0.147535
O11   O     O_R   0.614671 0.182148 0.222948 -0.316915
O12   O     O_R   0.481163 0.151749 0.153718 -0.291258
C32   C     C_2   0.524920 0.883203 0.226525 0.919811
O13   O     O_2   0.465699 0.828119 0.176222 -0.527920
O14   O     O_R   0.598108 0.904306 0.148244 -0.707791
H16   H     H_    0.593994 0.871410 0.050736 0.331532
N4    N     N_R   0.386955 0.873337 0.791435 0.162767
O15   O     O_R   0.361603 0.858882 0.919370 -0.247436
O16   O     O_R   0.336868 0.843228 0.690929 -0.295390
C33   C     C_2   0.394579 0.128609 0.799537 1.010426
O17   O     O_2   0.371150 0.137460 0.920141 -0.474090
O18   O     O_R   0.343896 0.173163 0.691720 -0.729735
H17   H     H_    0.288644 0.207816 0.726185 0.371872
C34   C     C_2   0.552947 0.113634 0.842609 0.920029
O19   O     O_2   0.618116 0.054355 0.847568 -0.544942
O20   O     O_R   0.550217 0.229122 0.901456 -0.705431
H18   H     H_    0.605529 0.251743 0.946378 0.375634
N5    N     N_R   0.345328 0.498743 0.868795 0.128047
O21   O     O_R   0.310770 0.604597 0.845507 -0.278681
O22   O     O_R   0.297083 0.402848 0.878837 -0.360009
C35   C     C_2   0.722337 0.555517 0.860586 0.928612
O23   O     O_2   0.764264 0.627960 0.791438 -0.589382
O24   O     O_R   0.750141 0.435622 0.881508 -0.728831
H19   H     H_    0.805482 0.419572 0.832624 0.367362
C36   C     C_2   0.085582 0.274684 0.408158 0.858255
O25   O     O_2   0.132564 0.192723 0.446696 -0.526930
O26   O     O_R   0.065293 0.287000 0.267486 -0.751254
H20   H     H_    0.093855 0.223441 0.208098 0.372250
N6    N     N_R   0.913294 0.293105 0.626286 0.117688
O27   O     O_R   0.857585 0.208714 0.602660 -0.297750
O28   O     O_R   0.939861 0.307231 0.752687 -0.358533

loop_
_geom_bond_atom_site_label_1
_geom_bond_atom_site_label_2
_geom_bond_distance
_ccdc_geom_bond_type
C6    C36   1.518262 S    
C22   C23   1.496209 S    
N6    O27   1.301304 A    
Cu1   Cu2   2.707967 S    
C26   C27   1.411436 A    
O20   H18   1.013586 S    
C11   C14   1.469275 S    
Cu1   O7    1.925255 S    
C20   C32   1.484155 S    
C12   C13   1.547900 S    
C15   C16   1.198012 T    
H1    C10   1.108923 S    
O4    C2    1.298436 A    
C9    C15   1.463989 S    
C17   C18   1.384574 A    
C19   C20   1.415673 A    
O7    C4    1.301474 A    
C36   O26   1.398336 S    
C31   O10   1.398399 S    
C25   C28   1.415384 A    
O18   H17   1.013064 S    
N3    O12   1.299532 A    
O5    C3    1.310250 A    
C3    C21   1.455317 S    
C10   C31   1.521629 S    
C9    C13   1.552277 S    
C5    H8    1.114710 S    
Cu2   O8    1.927988 S    
C19   N3    1.431804 S    
C5    C9    1.550361 S    
O14   H16   1.013071 S    
C25   C30   1.482716 S    
O10   H15   1.014034 S    
C8    C14   1.200657 T    
C23   N4    1.466676 S    
C17   C22   1.350018 A    
C23   H10   1.111331 S    
O3    Cu1   1.927991 S    
C29   H12   1.113210 S    
C30   H13   1.112854 S    
C24   C34   1.515070 S    
C13   H5    1.113456 S    
C28   C29   1.500560 S    
O24   H19   1.011521 S    
O3    C2    1.300950 A    
C20   C21   1.432626 A    
N5    O22   1.300158 A    
C36   O25   1.223179 D    
N4    O15   1.300256 A    
C11   C12   1.557274 S    
C25   N1    1.363210 A    
C7    H4    1.115689 S    
C27   N5    1.422542 S    
O1    C1    1.308739 A    
C32   O14   1.398001 S    
C5    H2    1.113796 S    
C34   O19   1.224022 D    
C18   C19   1.423541 A    
C12   H7    1.109700 S    
N6    O28   1.301727 A    
C26   H11   1.079519 S    
C6    H3    1.113874 S    
N2    C28   1.369553 A    
C10   C11   1.572750 S    
C29   C35   1.499793 S    
C34   O20   1.394391 S    
Cu2   O6    1.988953 S    
C21   C22   1.384742 A    
C2    C16   1.420776 S    
O8    C4    1.300168 A    
C27   N2    1.392567 A    
C6    C9    1.563764 S    
C35   O24   1.397997 S    
C23   C24   1.560932 S    
C29   C30   1.519644 S    
C33   O18   1.399858 S    
C30   H14   1.105686 S    
Cu1   O5    1.982290 S    
N1    C26   1.354243 A    
C5    C10   1.556918 S    
C24   C33   1.517797 S    
C13   H6    1.110323 S    
O1    Cu1   1.988953 S    
O2    Cu2   1.982290 S    
C7    N6    1.471458 S    
Cu1   N2    2.034556 S    
O6    C3    1.292515 A    
O4    Cu2   1.925258 S    
C7    C11   1.568772 S    
C32   O13   1.222770 D    
C4    C8    1.425214 S    
O2    C1    1.294935 A    
C33   O17   1.222179 D    
C31   O9    1.222840 D    
C6    C7    1.566740 S    
N3    O11   1.301049 A    
Cu2   N1    2.034611 S    
N5    O21   1.300513 A    
C12   H9    1.113332 S    
O26   H20   1.013851 S    
C1    C18   1.457120 S    
N4    O16   1.302363 A    
C35   O23   1.220733 D    
C17   C24   1.495238 S    
