data_mof_unit_12317.cif
_audit_creation_date              2013-03-05T15:43:06-0500
_audit_creation_method            fapswitch 2.2
_symmetry_space_group_name_H-M    P1
_symmetry_Int_Tables_number       1
_space_group_crystal_system       triclinic
_cell_length_a                    10.95804
_cell_length_b                    19.233488
_cell_length_c                    18.428262
_cell_angle_alpha                 89.966172
_cell_angle_beta                  90.273515
_cell_angle_gamma                 89.800681
_cell_volume                      3883.89655245

loop_
_atom_site_label
_atom_site_type_symbol
_atom_site_description
_atom_site_fract_x
_atom_site_fract_y
_atom_site_fract_z
_atom_type_partial_charge
O1    O     O_R   0.575450 0.828820 0.667950 -0.482350
O2    O     O_R   0.575450 0.828820 0.832050 -0.527141
O3    O     O_R   0.575450 0.171180 0.332050 -0.518509
O4    O     O_R   0.575450 0.171180 0.167950 -0.499924
O5    O     O_R   0.075450 0.328820 0.667950 -0.507014
O6    O     O_R   0.075450 0.328820 0.832050 -0.471788
O7    O     O_R   0.075450 0.671180 0.332050 -0.504602
O8    O     O_R   0.075450 0.671180 0.167950 -0.519201
O9    O     O_R   0.416860 0.942890 0.674680 -0.544767
O10   O     O_R   0.416860 0.942890 0.825320 -0.526577
O11   O     O_R   0.416860 0.057110 0.325320 -0.519496
O12   O     O_R   0.416860 0.057110 0.174680 -0.535675
O13   O     O_R   0.916860 0.442890 0.674680 -0.532330
O14   O     O_R   0.916860 0.442890 0.825320 -0.537025
O15   O     O_R   0.916860 0.557110 0.325320 -0.536469
O16   O     O_R   0.916860 0.557110 0.174680 -0.532687
C1    C     C_R   0.320212 0.970567 0.647047 0.584336
C2    C     C_R   0.322113 0.969511 0.853487 0.582387
C3    C     C_R   0.320437 0.030394 0.353569 0.581867
C4    C     C_R   0.319437 0.030428 0.146473 0.577583
C5    C     C_R   0.821266 0.469817 0.646654 0.591731
C6    C     C_R   0.819049 0.470284 0.852924 0.578268
C7    C     C_R   0.819118 0.530560 0.353728 0.577856
C8    C     C_R   0.820955 0.530849 0.146038 0.594832
O17   O     O_R   0.213790 0.953680 0.668330 -0.452828
O18   O     O_R   0.213790 0.953680 0.831670 -0.492024
O19   O     O_R   0.213790 0.046320 0.331670 -0.488273
O20   O     O_R   0.213790 0.046320 0.168330 -0.468893
O21   O     O_R   0.713790 0.453680 0.668330 -0.470435
O22   O     O_R   0.713790 0.453680 0.831670 -0.471345
O23   O     O_R   0.713790 0.546320 0.331670 -0.464639
O24   O     O_R   0.713790 0.546320 0.168330 -0.435868
O25   O     O_R   0.121360 0.817890 0.672660 -0.501498
O26   O     O_R   0.121360 0.817890 0.827340 -0.494509
O27   O     O_R   0.121360 0.182110 0.327340 -0.521207
O28   O     O_R   0.121360 0.182110 0.172660 -0.522707
O29   O     O_R   0.621360 0.317890 0.672660 -0.472751
O30   O     O_R   0.621360 0.317890 0.827340 -0.483380
O31   O     O_R   0.621360 0.682110 0.327340 -0.526744
O32   O     O_R   0.621360 0.682110 0.172660 -0.463029
C9    C     C_R   0.129793 0.756931 0.645656 0.566334
C10   C     C_R   0.183087 0.771191 0.863681 0.552194
C11   C     C_R   0.135886 0.241845 0.356358 0.563922
C12   C     C_R   0.130717 0.243267 0.145113 0.553265
C13   C     C_R   0.627664 0.256521 0.646481 0.553988
C14   C     C_R   0.626982 0.255732 0.852793 0.554594
C15   C     C_R   0.631814 0.742786 0.355262 0.537772
C16   C     C_R   0.632931 0.742043 0.144088 0.545792
O33   O     O_R   0.206850 0.711370 0.665820 -0.519825
O34   O     O_R   0.206850 0.711370 0.834180 -0.495761
O35   O     O_R   0.206850 0.288630 0.334180 -0.514599
O36   O     O_R   0.206850 0.288630 0.165820 -0.527165
O37   O     O_R   0.706850 0.211370 0.665820 -0.537445
O38   O     O_R   0.706850 0.211370 0.834180 -0.532173
O39   O     O_R   0.706850 0.788630 0.334180 -0.525015
O40   O     O_R   0.706850 0.788630 0.165820 -0.528564
O41   O     O_R   0.457710 0.733190 0.672630 -0.429216
O42   O     O_R   0.457710 0.733190 0.827370 -0.460334
O43   O     O_R   0.457710 0.266810 0.327370 -0.447646
O44   O     O_R   0.457710 0.266810 0.172630 -0.468436
O45   O     O_R   0.957710 0.233190 0.672630 -0.472226
O46   O     O_R   0.957710 0.233190 0.827370 -0.419792
O47   O     O_R   0.957710 0.766810 0.327370 -0.434964
O48   O     O_R   0.957710 0.766810 0.172630 -0.455278
C17   C     C_R   0.495698 0.787154 0.637362 0.554939
C18   C     C_R   0.548245 0.767925 0.852963 0.614034
C19   C     C_R   0.544158 0.230576 0.355096 0.604651
C20   C     C_R   0.494103 0.210938 0.137137 0.566925
C21   C     C_R   0.038052 0.270914 0.643529 0.607004
C22   C     C_R   0.992685 0.288758 0.862082 0.559944
C23   C     C_R   0.994405 0.711641 0.362586 0.561801
C24   C     C_R   0.040787 0.730271 0.144532 0.589569
Cr1   Cr    Cr6+3 0.488160 0.884660 0.750000 1.009101
Cr2   Cr    Cr6+3 0.488160 0.115340 0.250000 1.029748
Cr3   Cr    Cr6+3 0.988160 0.384660 0.750000 1.038673
Cr4   Cr    Cr6+3 0.988160 0.615340 0.250000 1.026245
Cr5   Cr    Cr6+3 0.173480 0.883120 0.750000 1.080997
Cr6   Cr    Cr6+3 0.173480 0.116880 0.250000 1.059793
Cr7   Cr    Cr6+3 0.673480 0.383120 0.750000 1.108374
Cr8   Cr    Cr6+3 0.673480 0.616880 0.250000 1.113646
Cr9   Cr    Cr6+3 0.333410 0.727260 0.750000 1.128472
Cr10  Cr    Cr6+3 0.333410 0.272740 0.250000 1.111919
Cr11  Cr    Cr6+3 0.833410 0.227260 0.750000 1.099725
Cr12  Cr    Cr6+3 0.833410 0.772740 0.250000 1.123521
O49   O     O_3   0.331690 0.831680 0.750000 -0.340703
O50   O     O_3   0.331690 0.168320 0.250000 -0.316645
O51   O     O_3   0.831690 0.331680 0.750000 -0.332397
O52   O     O_3   0.831690 0.668320 0.250000 -0.328038
C25   C     C_3   0.028346 0.797836 0.474268 -0.081506
C26   C     C_3   0.033450 0.809841 0.023366 -0.097577
C27   C     C_3   0.992264 0.208155 0.516551 -0.115376
C28   C     C_3   0.959639 0.217793 0.988440 -0.105658
C29   C     C_3   0.613346 0.307879 0.472397 -0.076197
C30   C     C_3   0.549035 0.291291 0.026891 -0.085272
C31   C     C_3   0.454096 0.720525 0.509324 -0.102410
C32   C     C_3   0.644838 0.691528 0.967956 -0.059517
C33   C     C_3   0.150252 0.774869 0.509039 -0.136340
C34   C     C_3   0.168021 0.818887 0.998848 -0.157481
C35   C     C_3   0.117859 0.187350 0.484946 -0.139973
C36   C     C_3   0.091453 0.201555 0.013680 -0.137800
C37   C     C_3   0.693393 0.260053 0.519856 -0.129778
C38   C     C_3   0.656961 0.257695 0.987734 -0.123744
C39   C     C_3   0.581422 0.694554 0.484172 -0.139029
C40   C     C_3   0.710381 0.745351 0.016528 -0.130502
H1    H     H_    0.231760 0.808430 0.514729 0.155561
H2    H     H_    0.219079 0.867702 0.990359 0.126291
H3    H     H_    0.150714 0.135675 0.467434 0.126290
H4    H     H_    0.134018 0.150365 0.024193 0.116483
H5    H     H_    0.784304 0.275294 0.540372 0.145298
H6    H     H_    0.744247 0.284748 0.979229 0.141069
H7    H     H_    0.614759 0.642447 0.469168 0.120599
H8    H     H_    0.805385 0.741660 0.036628 0.143579
H9    H     H_    0.001528 0.847633 0.449432 0.171498
H10   H     H_    0.965962 0.850716 0.037210 0.158855
H11   H     H_    0.911572 0.177876 0.531249 0.172632
H12   H     H_    0.885791 0.181451 0.973704 0.201689
H13   H     H_    0.655363 0.356426 0.454582 0.189247
H14   H     H_    0.553535 0.335514 0.062664 0.171838
H15   H     H_    0.374365 0.688884 0.524428 0.193222
H16   H     H_    0.700201 0.647869 0.947975 0.178311
C41   C     C_3   0.079760 0.746547 0.574137 0.055510
C42   C     C_3   0.146045 0.765278 0.938619 0.041915
C43   C     C_3   0.105509 0.247840 0.431175 0.056221
C44   C     C_3   0.078547 0.255807 0.073938 0.052480
C45   C     C_3   0.586905 0.249841 0.572488 0.081726
C46   C     C_3   0.573119 0.242267 0.923187 0.092395
C47   C     C_3   0.584164 0.752820 0.427521 0.041665
C48   C     C_3   0.601166 0.745975 0.068556 0.074121
C49   C     C_3   0.960672 0.769483 0.540369 0.211854
C50   C     C_3   0.015186 0.756559 0.962433 0.222880
C51   C     C_3   0.984393 0.268037 0.461909 0.195453
C52   C     C_3   0.949882 0.271841 0.049689 0.202927
C53   C     C_3   0.508512 0.296767 0.525531 0.232607
C54   C     C_3   0.466773 0.275183 0.961984 0.225517
C55   C     C_3   0.460067 0.778020 0.451710 0.195958
C56   C     C_3   0.537683 0.693037 0.021030 0.236479
C57   C     C_3   0.945528 0.697376 0.504657 -0.112479
C58   C     C_3   0.052892 0.696204 0.011413 -0.082473
C59   C     C_3   0.047068 0.317899 0.514169 -0.081601
C60   C     C_3   0.996663 0.330048 0.999843 -0.091007
C61   C     C_3   0.464323 0.232393 0.483659 -0.115933
C62   C     C_3   0.431352 0.204046 0.994290 -0.133692
C63   C     C_3   0.521228 0.828088 0.504961 -0.096320
C64   C     C_3   0.476904 0.753067 0.980005 -0.133445
C65   C     C_3   0.068634 0.674639 0.539225 -0.121140
C66   C     C_3   0.186340 0.705206 0.988101 -0.140512
C67   C     C_3   0.172158 0.297387 0.483217 -0.125639
C68   C     C_3   0.128339 0.313563 0.024479 -0.130808
C69   C     C_3   0.546199 0.184973 0.531303 -0.150114
C70   C     C_3   0.541555 0.170646 0.954327 -0.117181
C71   C     C_3   0.648208 0.801829 0.481243 -0.108835
C72   C     C_3   0.543175 0.806539 0.027870 -0.168171
C73   C     C_3   0.139982 0.702425 0.473598 -0.098590
C74   C     C_3   0.208852 0.758431 0.049454 -0.116275
C75   C     C_3   0.184091 0.237078 0.538149 -0.113742
C76   C     C_3   0.141845 0.258849 0.963906 -0.105361
C77   C     C_3   0.652832 0.194730 0.477984 -0.114164
C78   C     C_3   0.626135 0.185937 0.019730 -0.100999
C79   C     C_3   0.644742 0.743571 0.538381 -0.072496
C80   C     C_3   0.651863 0.806393 0.974913 -0.106663
C81   C     C_3   0.018274 0.725213 0.439372 0.015808
C82   C     C_3   0.076636 0.749247 0.072171 0.037573
C83   C     C_3   0.060538 0.257572 0.568241 0.020567
C84   C     C_3   0.011631 0.275701 0.939522 -0.002552
C85   C     C_3   0.572253 0.242734 0.431221 0.034146
C86   C     C_3   0.517309 0.220133 0.058811 -0.005094
C87   C     C_3   0.519871 0.770496 0.561810 0.004294
C88   C     C_3   0.585437 0.752864 0.927384 0.054523
H17   H     H_    0.862076 0.665078 0.500662 0.107166
H18   H     H_    0.999408 0.648081 0.018544 0.135668
H19   H     H_    0.007663 0.367852 0.530618 0.149005
H20   H     H_    0.951079 0.380329 0.990770 0.131656
H21   H     H_    0.374157 0.218091 0.461513 0.110814
H22   H     H_    0.341367 0.178973 0.999915 0.112895
H23   H     H_    0.484841 0.878531 0.520603 0.136969
H24   H     H_    0.385628 0.760024 0.957427 0.103576
H25   H     H_    0.089207 0.626880 0.569921 0.160218
H26   H     H_    0.251768 0.664475 0.972060 0.132897
H27   H     H_    0.246226 0.332767 0.466630 0.161454
H28   H     H_    0.194301 0.353799 0.041911 0.179195
H29   H     H_    0.514111 0.137765 0.559003 0.142239
H30   H     H_    0.538353 0.124569 0.918910 0.152022
H31   H     H_    0.729884 0.833225 0.468557 0.159227
H32   H     H_    0.491809 0.848555 0.054513 0.132388
H33   H     H_    0.212957 0.673403 0.444948 0.174829
H34   H     H_    0.287051 0.759130 0.087970 0.163651
H35   H     H_    0.263256 0.224386 0.573563 0.182618
H36   H     H_    0.214839 0.250043 0.923797 0.227266
H37   H     H_    0.715029 0.153542 0.457555 0.188074
H38   H     H_    0.692357 0.148643 0.043908 0.182746
H39   H     H_    0.713793 0.725834 0.578084 0.240816
H40   H     H_    0.707310 0.849404 0.953260 0.136158
C89   C     C_R   0.327408 0.996387 0.425175 0.048251
C90   C     C_R   0.323681 0.997190 0.074605 0.020244
C91   C     C_R   0.327997 0.007325 0.576676 0.016984
C92   C     C_R   0.337169 0.005250 0.923708 0.021824
C93   C     C_R   0.820862 0.496509 0.425438 0.036824
C94   C     C_R   0.830577 0.498034 0.073966 0.027835
C95   C     C_R   0.833111 0.506273 0.576524 0.026372
C96   C     C_R   0.820459 0.507896 0.922681 0.018061
C97   C     C_R   0.548552 0.980289 0.426275 -0.074343
C98   C     C_R   0.543909 0.973513 0.081696 -0.100931
C99   C     C_R   0.554338 0.005144 0.575021 -0.107555
C100  C     C_R   0.562821 0.992753 0.932577 -0.096091
C101  C     C_R   0.039322 0.470488 0.420879 -0.070925
C102  C     C_R   0.057155 0.507658 0.066081 -0.088956
C103  C     C_R   0.059145 0.496390 0.569072 -0.113794
C104  C     C_R   0.036613 0.535267 0.918144 -0.071779
C105  C     C_R   0.656226 0.971272 0.465137 -0.080373
C106  C     C_R   0.656231 0.966829 0.048105 -0.085922
C107  C     C_R   0.659043 0.983313 0.539420 -0.068043
C108  C     C_R   0.666513 0.979223 0.974137 -0.089517
C109  C     C_R   0.151993 0.465591 0.455055 -0.090257
C110  C     C_R   0.159662 0.526377 0.026131 -0.081946
C111  C     C_R   0.162480 0.479462 0.528834 -0.082790
C112  C     C_R   0.148749 0.540793 0.952407 -0.086424
C113  C     C_R   0.440384 0.005583 0.538658 -0.045195
C114  C     C_R   0.445940 0.995383 0.964829 -0.011266
C115  C     C_R   0.439131 0.996788 0.462526 -0.007535
C116  C     C_R   0.437943 0.989414 0.040933 -0.016064
C117  C     C_R   0.942193 0.498212 0.536062 -0.029011
C118  C     C_R   0.932217 0.516949 0.957789 -0.026228
C119  C     C_R   0.934166 0.489080 0.460315 -0.003339
C120  C     C_R   0.939802 0.507744 0.033593 -0.035724
H41   H     H_    0.734793 0.950004 0.438157 0.192128
H42   H     H_    0.734548 0.950255 0.079565 0.198350
H43   H     H_    0.740324 0.971973 0.570553 0.184838
H44   H     H_    0.754368 0.974932 0.948174 0.169258
H45   H     H_    0.230283 0.448754 0.424277 0.191960
H46   H     H_    0.246933 0.531691 0.052883 0.206084
H47   H     H_    0.249967 0.474490 0.555463 0.181269
H48   H     H_    0.226180 0.558083 0.921415 0.190542
H49   H     H_    0.548904 0.966264 0.369401 0.153210
H50   H     H_    0.539242 0.960950 0.138867 0.142571
H51   H     H_    0.562674 0.018609 0.631787 0.149062
H52   H     H_    0.576508 0.004265 0.875801 0.144524
H53   H     H_    0.034019 0.456536 0.364045 0.156178
H54   H     H_    0.071361 0.492636 0.122014 0.160519
H55   H     H_    0.072442 0.509322 0.625638 0.149337
H56   H     H_    0.030888 0.548107 0.860988 0.157088
C121  C     C_R   0.216997 0.013436 0.536987 -0.093646
C122  C     C_R   0.228176 0.022251 0.959196 -0.103485
C123  C     C_R   0.217056 0.991202 0.464473 -0.085260
C124  C     C_R   0.215534 0.001336 0.031392 -0.100295
C125  C     C_R   0.722270 0.520655 0.540334 -0.100203
C126  C     C_R   0.710830 0.506642 0.963759 -0.096571
C127  C     C_R   0.711213 0.500055 0.467401 -0.101357
C128  C     C_R   0.718526 0.486228 0.036923 -0.070005
C129  C     C_R   0.104791 0.036216 0.568514 0.167020
C130  C     C_R   0.128306 0.052160 0.921110 0.174158
C131  C     C_R   0.104465 0.975680 0.429673 0.151628
C132  C     C_R   0.095539 0.992388 0.059509 0.168589
C133  C     C_R   0.619745 0.548400 0.578043 0.178658
C134  C     C_R   0.593251 0.517722 0.931979 0.169618
C135  C     C_R   0.590945 0.491538 0.437596 0.149904
C136  C     C_R   0.611727 0.460884 0.072677 0.177610
C137  C     C_R   0.995778 0.033405 0.526963 0.225249
C138  C     C_R   0.010652 0.047718 0.951414 0.223658
C139  C     C_R   0.998252 0.007546 0.456402 0.239184
C140  C     C_R   0.996854 0.024482 0.022631 0.221012
C141  C     C_R   0.503597 0.545862 0.545101 0.236235
C142  C     C_R   0.491795 0.485947 0.964418 0.269793
C143  C     C_R   0.491744 0.523476 0.473507 0.222296
C144  C     C_R   0.498333 0.461292 0.035356 0.251614
O53   O     O_3   0.885798 0.059769 0.550677 -0.713121
H57   H     H_    0.893434 0.080609 0.599288 0.358290
O54   O     O_3   0.908117 0.069513 0.914486 -0.671663
H58   H     H_    0.909115 0.045878 0.866740 0.346193
O55   O     O_3   0.900235 0.022330 0.411994 -0.672999
H59   H     H_    0.931875 0.033839 0.363150 0.355242
O56   O     O_3   0.888548 0.039505 0.056548 -0.694047
H60   H     H_    0.907141 0.051375 0.107744 0.348950
O57   O     O_3   0.401822 0.572130 0.578841 -0.668787
H61   H     H_    0.392461 0.545724 0.624598 0.346631
O58   O     O_3   0.386072 0.473733 0.926003 -0.667768
H62   H     H_    0.407019 0.467816 0.874086 0.367976
O59   O     O_3   0.384524 0.539501 0.437936 -0.685359
H63   H     H_    0.402625 0.546126 0.385739 0.353721
O60   O     O_3   0.392146 0.434259 0.064093 -0.720281
H64   H     H_    0.408623 0.407387 0.108635 0.358686
O61   O     O_3   0.874984 0.807603 0.579913 -0.707305
H65   H     H_    0.910276 0.854642 0.586096 0.331763
O62   O     O_3   0.917350 0.754195 0.913506 -0.680866
H66   H     H_    0.904570 0.802793 0.897176 0.331535
O63   O     O_3   0.885799 0.286014 0.417196 -0.698659
H67   H     H_    0.865912 0.243345 0.389467 0.336885
O64   O     O_3   0.853764 0.278668 0.098722 -0.647838
H68   H     H_    0.843318 0.231958 0.120549 0.338251
O65   O     O_3   0.432696 0.348447 0.554077 -0.697700
H69   H     H_    0.424862 0.384032 0.515469 0.326502
O66   O     O_3   0.391979 0.322635 0.925665 -0.667178
H70   H     H_    0.349505 0.348473 0.964177 0.370226
O67   O     O_3   0.367444 0.796825 0.403169 -0.658343
H71   H     H_    0.350336 0.754475 0.374296 0.341090
O68   O     O_3   0.475975 0.635521 0.048704 -0.684983
H72   H     H_    0.431995 0.615465 0.006761 0.327739
N1    N     N_R   0.100180 0.931439 0.365775 0.089046
O69   O     O_R   0.193702 0.892952 0.348928 -0.267842
O70   O     O_R   0.998380 0.920769 0.330919 -0.298708
N2    N     N_R   0.073813 0.947018 0.121241 0.097490
O71   O     O_R   0.964716 0.938750 0.147370 -0.334325
O72   O     O_R   0.159643 0.905721 0.144855 -0.320521
N3    N     N_R   0.103354 0.069045 0.638596 0.089527
O73   O     O_R   0.186769 0.114028 0.656244 -0.323654
O74   O     O_R   0.030085 0.045949 0.688396 -0.307777
N4    N     N_R   0.151144 0.094701 0.857813 0.109468
O75   O     O_R   0.064566 0.110334 0.812406 -0.225664
O76   O     O_R   0.256367 0.124896 0.849701 -0.351634
N5    N     N_R   0.567064 0.447362 0.374879 0.085592
O77   O     O_R   0.655348 0.415499 0.341275 -0.273986
O78   O     O_R   0.456240 0.427361 0.360379 -0.344165
N6    N     N_R   0.620798 0.428270 0.143276 0.066147
O79   O     O_R   0.546701 0.446009 0.195167 -0.262229
O80   O     O_R   0.711224 0.386560 0.158165 -0.270632
N7    N     N_R   0.637247 0.586425 0.645099 0.105781
O81   O     O_R   0.738871 0.619293 0.657462 -0.342577
O82   O     O_R   0.553364 0.588004 0.694693 -0.242699
N8    N     N_R   0.574879 0.562428 0.869056 0.076848
O83   O     O_R   0.466387 0.586278 0.853936 -0.339716
O84   O     O_R   0.666550 0.589772 0.834734 -0.284339

loop_
_geom_bond_atom_site_label_1
_geom_bond_atom_site_label_2
_geom_bond_distance
_ccdc_geom_bond_type
O46   Cr11  1.970762 S    
N1    O70   1.301547 A    
O66   H70   0.984493 S    
O26   C10   1.305185 A    
C63   H23   1.087244 S    
Cr7   O51   1.993122 S    
O6    Cr3   2.081299 S    
N3    O74   1.301237 A    
C27   C51   1.531334 S    
O56   H60   0.991198 S    
C25   C49   1.530286 S    
O46   C22   1.303713 A    
O6    C22   1.315944 A    
O3    Cr2   2.085650 S    
O48   Cr12  1.979604 S    
C132  N2    1.454349 S    
C122  C124  1.397373 A    
C32   C88   1.537318 S    
C59   H19   1.095514 S    
C67   C75   1.543924 S    
C33   H1    1.108436 S    
C102  C110  1.394185 A    
C63   C71   1.543835 S    
C8    C94   1.474915 S    
C9    O33   1.269028 A    
O38   Cr11  2.108599 S    
C109  C111  1.390010 A    
C25   H9    1.099739 S    
C99   C113  1.414324 A    
C2    C92   1.474494 S    
C137  O53   1.378981 S    
C54   O66   1.393381 S    
C97   C115  1.410644 A    
C32   C56   1.531983 S    
C29   C37   1.538359 S    
C51   O63   1.397970 S    
C4    O20   1.264131 A    
C31   H15   1.103170 S    
C125  C133  1.426034 A    
C101  C119  1.410406 A    
C73   C81   1.534994 S    
C36   C44   1.530940 S    
C53   O65   1.397864 S    
C8    O24   1.280091 A    
C98   H50   1.082264 S    
N3    O73   1.301088 A    
C66   C74   1.545188 S    
O12   C4    1.293087 A    
N4    O75   1.296461 A    
O13   C5    1.273968 A    
C58   C82   1.537065 S    
C28   H12   1.104198 S    
C45   C69   1.527531 S    
O47   C23   1.304793 A    
C136  C144  1.417332 A    
C93   C119  1.402175 A    
O28   C12   1.285472 A    
O29   C13   1.277151 A    
C50   C58   1.524743 S    
C109  H45   1.079576 S    
N2    O71   1.301186 A    
C132  C140  1.414269 A    
O31   C15   1.280963 A    
C133  C141  1.408510 A    
O32   C16   1.273973 A    
C23   C81   1.461587 S    
Cr12  O52   2.008517 S    
C26   C34   1.554677 S    
O11   Cr2   1.950889 S    
O27   Cr6   1.984040 S    
C34   H2    1.106049 S    
O37   Cr11  2.099103 S    
O47   Cr12  1.970116 S    
C1    O17   1.275203 A    
O31   Cr8   1.984040 S    
C140  O56   1.373903 S    
O1    Cr1   2.088842 S    
Cr8   O52   1.999100 S    
C75   H35   1.109493 S    
C57   C81   1.543016 S    
C129  N3    1.438038 S    
O10   C2    1.269361 A    
C79   C87   1.525760 S    
C80   C88   1.535304 S    
C67   H27   1.105071 S    
C49   C57   1.544564 S    
C46   C54   1.507755 S    
C100  H52   1.080596 S    
C121  C123  1.403301 A    
O34   Cr9   2.108599 S    
C71   C79   1.537840 S    
O41   C17   1.295279 A    
C20   C86   1.477466 S    
C34   C74   1.553398 S    
O43   Cr10  1.970116 S    
C38   C78   1.539732 S    
C26   H10   1.108175 S    
C74   H34   1.110203 S    
C50   O62   1.398408 S    
C26   C82   1.543360 S    
C39   H7    1.101386 S    
C28   C52   1.538772 S    
C29   C53   1.528510 S    
C78   H38   1.110197 S    
C110  C112  1.390969 A    
C104  C118  1.406084 A    
O8    Cr4   2.091345 S    
N6    O79   1.302294 A    
C66   H26   1.101589 S    
C98   C116  1.412477 A    
C33   C41   1.530869 S    
C47   C71   1.536288 S    
C48   C72   1.520578 S    
O13   Cr3   1.942444 S    
C102  C120  1.415897 A    
O1    C17   1.313167 A    
O27   C11   1.277689 A    
C19   C85   1.454034 S    
C42   C66   1.533876 S    
Cr5   O49   1.993122 S    
O59   H63   0.991303 S    
C106  H42   1.080452 S    
C99   C107  1.388272 A    
C29   H13   1.093475 S    
C5    C95   1.476452 S    
C97   C105  1.387629 A    
C31   C39   1.553281 S    
N5    O78   1.301719 A    
C36   H4    1.104607 S    
C123  C131  1.420506 A    
C6    C96   1.475479 S    
C104  H56   1.083180 S    
C77   C85   1.536500 S    
C40   H8    1.105358 S    
C28   C36   1.546133 S    
C75   C83   1.516458 S    
O4    C20   1.300652 A    
C93   C127  1.433423 A    
C14   C46   1.451300 S    
C100  C114  1.415308 A    
C26   C50   1.533565 S    
O36   Cr10  2.097431 S    
O67   H71   0.991133 S    
C62   C86   1.545464 S    
C114  C116  1.410252 A    
C136  N6    1.446857 S    
Cr1   O49   1.997590 S    
C64   H24   1.089255 S    
O65   H69   0.990174 S    
C118  C120  1.410011 A    
C63   C87   1.524337 S    
O2    Cr1   2.081299 S    
C10   O34   1.298917 A    
O22   Cr7   2.074187 S    
Cr3   O51   1.997590 S    
C103  C117  1.416296 A    
C106  C108  1.388814 A    
C11   C43   1.424553 S    
C91   C113  1.420076 A    
C34   C42   1.534134 S    
C41   C49   1.507557 S    
C6    O22   1.258656 A    
O16   Cr4   1.946519 S    
C74   C82   1.520872 S    
O2    C18   1.269695 A    
C31   C87   1.542092 S    
O54   H58   0.990705 S    
C71   H31   1.107216 S    
O7    Cr4   2.085650 S    
C60   C84   1.535291 S    
C61   C85   1.544166 S    
O14   C6    1.298751 A    
C59   C83   1.535253 S    
C55   O67   1.396258 S    
C64   C72   1.537288 S    
C46   C70   1.533214 S    
O25   Cr5   1.982637 S    
C16   C48   1.435057 S    
C58   C66   1.536429 S    
C41   C65   1.530721 S    
O30   C14   1.285152 A    
C51   C59   1.522573 S    
C37   C77   1.540532 S    
C134  C142  1.406232 A    
O62   H66   0.991060 S    
C24   C82   1.439155 S    
C27   C35   1.548410 S    
Cr9   O49   2.008386 S    
Cr11  O51   2.008386 S    
O12   Cr2   1.946519 S    
O58   H62   0.991487 S    
C2    O18   1.288974 A    
O19   Cr6   2.071011 S    
C30   C86   1.531102 S    
O23   Cr8   2.071011 S    
C70   H30   1.101508 S    
C142  O58   1.375780 S    
C44   C68   1.539540 S    
O11   C3    1.288477 A    
C57   C65   1.550563 S    
C47   C55   1.511376 S    
C48   C56   1.512568 S    
O26   Cr5   1.985488 S    
C135  N5    1.458084 S    
O10   Cr1   1.948708 S    
C52   O64   1.396905 S    
O30   Cr7   1.985488 S    
C37   H5    1.104474 S    
O24   Cr8   2.075237 S    
C144  O60   1.383659 S    
C89   C115  1.401669 A    
O33   Cr9   2.099103 S    
C134  N8    1.455965 S    
O5    C21   1.269989 A    
C131  C139  1.404917 A    
C94   C128  1.421016 A    
C35   C75   1.549811 S    
N4    O76   1.302041 A    
O60   H64   0.985362 S    
C33   C73   1.543404 S    
C139  O55   1.376016 S    
C103  H55   1.081127 S    
C36   C76   1.538982 S    
O15   Cr4   1.950889 S    
C91   C121  1.420803 A    
C15   O39   1.269719 A    
C101  C109  1.386209 A    
N7    O81   1.301645 A    
C68   H28   1.107494 S    
O55   H59   0.991301 S    
C69   H29   1.100920 S    
C89   C123  1.416253 A    
C27   C83   1.539365 S    
C105  H41   1.075933 S    
C40   C80   1.538417 S    
C25   C81   1.542145 S    
N2    O72   1.302056 A    
O40   Cr12  2.097431 S    
C76   H36   1.104384 S    
O8    C24   1.271632 A    
C122  C130  1.417397 A    
C79   H39   1.103123 S    
C80   H40   1.103705 S    
O45   Cr11  1.980053 S    
O42   Cr9   1.970762 S    
O68   H72   0.988225 S    
C90   C116  1.407605 A    
C126  C134  1.428012 A    
C38   C46   1.529348 S    
Cr10  O50   2.008517 S    
C12   C44   1.448056 S    
C92   C122  1.402160 A    
O5    Cr3   2.088842 S    
C94   C120  1.425088 A    
C99   H51   1.081359 S    
O63   H67   0.991369 S    
C54   C62   1.543372 S    
C97   H49   1.082413 S    
O64   H68   0.991328 S    
O21   Cr7   2.076085 S    
C14   O38   1.268723 A    
C103  C111  1.394197 A    
C121  C129  1.429936 A    
C101  H53   1.082688 S    
C125  C127  1.406234 A    
C111  H47   1.078826 S    
C38   H6    1.102249 S    
C110  H46   1.079017 S    
C78   C86   1.541644 S    
C130  N4    1.447679 S    
C70   C78   1.545917 S    
C43   C51   1.495649 S    
C129  C137  1.417041 A    
C39   C47   1.531599 S    
C92   C114  1.421462 A    
C52   C60   1.538578 S    
C35   H3    1.104797 S    
C17   C87   1.454208 S    
C53   C61   1.537737 S    
C18   C88   1.457495 S    
C133  N7    1.448600 S    
C96   C118  1.393821 A    
O14   Cr3   1.948708 S    
C62   C70   1.554673 S    
C56   C64   1.528727 S    
C11   O35   1.260521 A    
C5    O21   1.284453 A    
C27   H11   1.095481 S    
C108  H44   1.080012 S    
O44   C20   1.319833 A    
C68   C76   1.541818 S    
O39   Cr12  2.107465 S    
C69   C77   1.542180 S    
C7    O23   1.257852 A    
C127  C135  1.435291 A    
C72   C80   1.543354 S    
C58   H18   1.105350 S    
C30   H14   1.077554 S    
N1    O69   1.301010 A    
O16   C8    1.279400 A    
C39   C79   1.538595 S    
C60   C68   1.542410 S    
C61   C69   1.547107 S    
C62   H22   1.104461 S    
N5    O77   1.302694 A    
O29   Cr7   1.982637 S    
C59   C67   1.537492 S    
C131  N1    1.453865 S    
C90   C124  1.426596 A    
C64   C88   1.538111 S    
O17   Cr5   2.076085 S    
O7    C23   1.308223 A    
C141  O57   1.374303 S    
C9    C41   1.439339 S    
C105  C107  1.388715 A    
O44   Cr10  1.979604 S    
O42   C18   1.285892 A    
C13   C45   1.438783 S    
C40   C48   1.537068 S    
N8    O84   1.301954 A    
O32   Cr8   1.979054 S    
C95   C117  1.419928 A    
C72   H32   1.100397 S    
O20   Cr6   2.075237 S    
O53   H57   0.984933 S    
Cr4   O52   1.991495 S    
C57   H17   1.109469 S    
N6    O80   1.300909 A    
O43   C19   1.278472 A    
Cr6   O50   1.999100 S    
O15   C7    1.300324 A    
C29   C85   1.533054 S    
C60   H20   1.099248 S    
C107  H43   1.078729 S    
C61   H21   1.103006 S    
C100  C108  1.390965 A    
O9    Cr1   1.942444 S    
C98   C106  1.385975 A    
C138  O54   1.374903 S    
C4    C90   1.471821 S    
C44   C52   1.507797 S    
C126  C128  1.406130 A    
N7    O82   1.299601 A    
O18   Cr5   2.074187 S    
O25   C9    1.277187 A    
C102  H54   1.080719 S    
C96   C126  1.423264 A    
C141  C143  1.393682 A    
C142  C144  1.391785 A    
O61   H65   0.991578 S    
C143  O59   1.376604 S    
C25   C33   1.541948 S    
C137  C139  1.392813 A    
C138  C140  1.395235 A    
N8    O83   1.301669 A    
C56   O68   1.396030 S    
C15   C47   1.445460 S    
C45   C53   1.512589 S    
C31   C55   1.534332 S    
O57   H61   0.990037 S    
Cr2   O50   1.991495 S    
C49   O61   1.397370 S    
O35   Cr10  2.107465 S    
O9    C1    1.286444 A    
C43   C67   1.536401 S    
C3    C89   1.473971 S    
O41   Cr9   1.980053 S    
C1    C91   1.479593 S    
C3    O19   1.270930 A    
C10   C42   1.445780 S    
C35   C43   1.532991 S    
O45   C21   1.263968 A    
C16   O40   1.273478 A    
C124  C132  1.426553 A    
O4    Cr2   2.091345 S    
C32   H16   1.098972 S    
O3    C19   1.265803 A    
C21   C83   1.433457 S    
C135  C143  1.414100 A    
C22   C84   1.462564 S    
C12   O36   1.266993 A    
C128  C136  1.432584 A    
C113  C115  1.413261 A    
C7    C93   1.474546 S    
C32   C40   1.545577 S    
C65   C73   1.539713 S    
C117  C119  1.409366 A    
O28   Cr6   1.979054 S    
C28   C84   1.544635 S    
C73   H33   1.109526 S    
C55   C63   1.529331 S    
C30   C54   1.526877 S    
C42   C50   1.511468 S    
O48   C24   1.261440 A    
C77   H37   1.110343 S    
C95   C125  1.409347 A    
C13   O37   1.274969 A    
C76   C84   1.527569 S    
C104  C112  1.383288 A    
C65   H25   1.100603 S    
C112  H48   1.078459 S    
C37   C45   1.534010 S    
C130  C138  1.410299 A    
C30   C38   1.529799 S    
