data_mof_unit_22227.cif
_audit_creation_date              2012-12-10T17:14:44-0500
_audit_creation_method            fapswitch 2.2
_symmetry_space_group_name_H-M    P1
_symmetry_Int_Tables_number       1
_space_group_crystal_system       triclinic
_cell_length_a                    10.675752
_cell_length_b                    12.914844
_cell_length_c                    11.815827
_cell_angle_alpha                 101.550616
_cell_angle_beta                  94.214499
_cell_angle_gamma                 91.68563
_cell_volume                      1590.18212576

loop_
_atom_site_label
_atom_site_type_symbol
_atom_type_description
_atom_site_fract_x
_atom_site_fract_y
_atom_site_fract_z
_atom_type_partial_charge
C1    C     C_R   0.508803 0.298821 0.476319 0.803725
C2    C     C_R   0.491173 0.701175 0.523679 0.803645
C3    C     C_R   0.563856 0.138411 0.553078 -0.089362
C4    C     C_R   0.436096 0.861570 0.446906 -0.089336
C5    C     C_R   0.523062 0.033376 0.553147 0.081297
C6    C     C_R   0.476885 0.966606 0.446840 0.081243
C7    C     C_R   0.355068 0.425612 0.023674 -0.147626
C8    C     C_R   0.644950 0.574355 0.976316 -0.147761
C9    C     C_R   0.377200 0.423057 0.143178 0.143269
C10   C     C_R   0.622791 0.576946 0.856824 0.143085
C11   C     C_R   0.558364 0.537555 0.158544 0.127226
C12   C     C_R   0.441647 0.462429 0.841448 0.127047
C13   C     C_R   0.552265 0.527902 0.034299 -0.024136
C14   C     C_R   0.447750 0.472071 0.965692 -0.024289
C15   C     C_R   0.260055 0.502769 0.500141 0.819264
C16   C     C_R   0.739946 0.497237 0.499859 0.819561
C17   C     C_3   0.050470 0.559373 0.600107 -0.065347
C18   C     C_3   0.949533 0.440640 0.399890 -0.065252
C19   C     C_3   0.967151 0.457718 0.588858 -0.112076
C20   C     C_3   0.032852 0.542294 0.411140 -0.112195
C21   C     C_3   0.876177 0.496716 0.500478 -0.120904
C22   C     C_3   0.123825 0.503296 0.499520 -0.121195
C23   C     C_3   0.959293 0.598154 0.511616 -0.074539
C24   C     C_3   0.040707 0.401858 0.488380 -0.074699
C25   C     C_R   0.475643 0.816971 0.542054 -0.144696
C26   C     C_R   0.524288 0.183018 0.457938 -0.144689
C27   C     C_R   0.479598 0.005078 0.342935 -0.052293
C28   C     C_R   0.520332 0.994908 0.657054 -0.052279
C29   C     C_R   0.497677 0.114296 0.348039 -0.052010
C30   C     C_R   0.502196 0.885695 0.651955 -0.052076
Cu1   Cu    Cu3+1 0.509400 0.507730 0.615930 0.989407
Cu2   Cu    Cu3+1 0.490600 0.492270 0.384070 0.989530
N1    N     N_R   0.523540 0.519360 0.790140 -0.234131
N2    N     N_R   0.476460 0.480640 0.209860 -0.234158
O1    O     O_R   0.506670 0.354460 0.582000 -0.612904
O2    O     O_R   0.493330 0.645540 0.418000 -0.612926
O3    O     O_R   0.490800 0.341410 0.386200 -0.564524
O4    O     O_R   0.509200 0.658590 0.613800 -0.564596
O5    O     O_R   0.324790 0.506500 0.597880 -0.570024
O6    O     O_R   0.675210 0.493500 0.402120 -0.569724
O7    O     O_R   0.308910 0.493440 0.402080 -0.595949
O8    O     O_R   0.691090 0.506560 0.597920 -0.595842
C31   C     C_1   0.932899 0.411117 0.686578 0.344046
N3    N     N_1   0.906456 0.374830 0.764014 -0.167808
C32   C     C_1   0.067099 0.588892 0.313416 0.343872
N4    N     N_1   0.093535 0.625173 0.235974 -0.167828
C33   C     C_2   0.107209 0.626645 0.711274 0.494384
H1    H     H_    0.103703 0.599041 0.791864 0.140523
O9    O     O_2   0.159473 0.711888 0.711131 -0.483702
C34   C     C_2   0.892829 0.373364 0.288720 0.493870
H2    H     H_    0.897168 0.400606 0.208010 0.140935
O10   O     O_2   0.839791 0.288475 0.288963 -0.483722
C35   C     C_1   0.912592 0.705506 0.525521 0.326500
N5    N     N_1   0.875680 0.789997 0.536684 -0.220084
C36   C     C_1   0.087397 0.294503 0.474467 0.325971
N6    N     N_1   0.124299 0.210007 0.463300 -0.220194
C37   C     C_2   0.331607 0.806515 0.363268 0.409707
H3    H     H_    0.311918 0.722319 0.351690 0.099683
O11   O     O_2   0.258815 0.856509 0.312813 -0.502751
C38   C     C_2   0.668361 0.193452 0.636704 0.409741
H4    H     H_    0.688039 0.277649 0.648323 0.099719
O12   O     O_2   0.741181 0.143444 0.687100 -0.502725
C39   C     C_2   0.503014 0.848225 0.763054 0.399226
H5    H     H_    0.575630 0.878156 0.832047 0.060275
O13   O     O_2   0.418288 0.789687 0.781266 -0.462381
C40   C     C_2   0.496691 0.151768 0.236934 0.399139
H6    H     H_    0.423947 0.121877 0.168039 0.060216
O14   O     O_2   0.581412 0.210251 0.218596 -0.462089
C41   C     C_1   0.478540 0.932159 0.231629 0.306380
N7    N     N_1   0.478143 0.874230 0.143073 -0.249977
C42   C     C_1   0.521440 0.067831 0.768357 0.306213
N8    N     N_1   0.521882 0.125764 0.856911 -0.249879
C43   C     C_1   0.358156 0.383814 0.766333 0.340168
N9    N     N_1   0.291323 0.320116 0.706755 -0.279754
C44   C     C_1   0.641851 0.616180 0.233650 0.340295
N10   N     N_1   0.708681 0.679886 0.293220 -0.279812
C45   C     C_2   0.711492 0.639474 0.803203 0.384884
H7    H     H_    0.678098 0.697684 0.756021 0.092220
O15   O     O_2   0.824270 0.626033 0.810876 -0.573708
C46   C     C_2   0.288451 0.360576 0.196814 0.384610
H8    H     H_    0.321818 0.302511 0.244215 0.092460
O16   O     O_2   0.175654 0.373919 0.188949 -0.574001
C47   C     C_2   0.230186 0.386135 0.964694 0.451211
H9    H     H_    0.195304 0.306360 0.964711 0.105528
O17   O     O_2   0.163475 0.444587 0.920099 -0.517412
C48   C     C_2   0.769871 0.613765 0.035269 0.451119
H10   H     H_    0.804847 0.693506 0.035193 0.105527
O18   O     O_2   0.836507 0.555291 0.079912 -0.517353

loop_
_geom_bond_atom_site_label_1
_geom_bond_atom_site_label_2
_ccdc_geom_bond_type
C40   O14   D    
C36   N6    T    
C39   O13   D    
C16   C21   S    
Cu1   O8    S    
C27   C29   A    
C18   C21   S    
C43   N9    T    
C7    C47   S    
C11   N2    A    
C31   N3    T    
C4    C25   A    
C33   O9    D    
Cu1   Cu2   S    
C32   N4    T    
C24   C36   S    
C1    O1    A    
C17   C23   S    
C18   C24   S    
Cu2   O2    S    
C19   C21   S    
C5    C6    A    
C48   O18   D    
C37   O11   D    
C2    C25   S    
C38   O12   D    
C15   C22   S    
C6    C27   A    
C4    C37   S    
C34   O10   D    
Cu2   O7    S    
Cu1   N1    S    
C7    C14   A    
C18   C20   S    
C20   C32   S    
C27   C41   S    
C1    O3    A    
C3    C38   S    
C40   H6    S    
C13   C14   A    
C12   C43   S    
C10   C45   S    
C19   C31   S    
C23   C35   S    
C45   O15   D    
C33   H1    S    
C15   O7    A    
C46   O16   D    
C48   H10   S    
C45   H7    S    
C29   C40   S    
C38   H4    S    
C9    C46   S    
Cu2   N2    S    
C44   N10   T    
C5    C28   A    
C2    O4    A    
C47   H9    S    
C20   C23   S    
C34   H2    S    
Cu2   O3    S    
C15   O5    A    
C16   O6    A    
C4    C6    A    
C47   O17   D    
C20   C22   S    
C21   C23   S    
C9    N2    A    
C22   C24   S    
C28   C42   S    
C16   O8    A    
C18   C34   S    
C2    O2    A    
C25   C30   A    
C7    C9    A    
C3    C26   A    
C17   C33   S    
C12   C14   A    
C46   H8    S    
C3    C5    A    
C35   N5    T    
C17   C22   S    
Cu1   O4    S    
C28   C30   A    
C19   C24   S    
C42   N8    T    
C11   C44   S    
C11   C13   A    
C37   H3    S    
C1    C26   S    
Cu1   O1    S    
C17   C19   S    
Cu1   O5    S    
C10   N1    A    
C8    C48   S    
Cu2   O6    S    
C41   N7    T    
C39   H5    S    
C8    C13   A    
C26   C29   A    
C8    C10   A    
C12   N1    A    
C30   C39   S    
