data_mof_unit_52025.cif
_audit_creation_date              2012-12-10T20:32:39-0500
_audit_creation_method            fapswitch 2.2
_symmetry_space_group_name_H-M    P1
_symmetry_Int_Tables_number       1
_space_group_crystal_system       triclinic
_cell_length_a                    11.534935
_cell_length_b                    10.701969
_cell_length_c                    9.886908
_cell_angle_alpha                 89.443676
_cell_angle_beta                  89.782885
_cell_angle_gamma                 90.824181
_cell_volume                      1220.31113491

loop_
_atom_site_label
_atom_site_type_symbol
_atom_type_description
_atom_site_fract_x
_atom_site_fract_y
_atom_site_fract_z
_atom_type_partial_charge
C1    C     C_R   0.499647 0.260435 0.500456 0.902925
C2    C     C_R   0.503799 0.128943 0.498004 -0.110930
C3    C     C_R   0.447190 0.066119 0.393673 -0.277939
C4    C     C_R   0.450207 0.936736 0.388263 0.468511
C5    C     C_R   0.508437 0.871979 0.492492 -0.212951
C6    C     C_R   0.581750 0.937213 0.579971 -0.024836
C7    C     C_3   0.606775 0.926072 0.728946 0.253591
C8    C     C_3   0.596913 0.068196 0.734015 -0.247752
C9    C     C_R   0.402718 0.529798 0.070851 0.148432
C10   C     C_R   0.598838 0.477400 0.071629 -0.085775
C11   C     C_R   0.598690 0.476722 0.927982 -0.081754
C12   C     C_R   0.281964 0.500403 0.500243 0.942859
C13   C     C_R   0.403575 0.532504 0.928850 0.148982
C14   C     C_3   0.285933 0.473830 0.920710 -0.616036
C15   C     C_3   0.284462 0.468472 0.076220 0.350985
C16   C     C_R   0.501250 0.739834 0.498868 0.902836
C17   C     C_R   0.718051 0.499719 0.499766 0.875799
C18   C     C_1   0.161534 0.501269 0.500746 -0.109303
C19   C     C_1   0.059356 0.501634 0.500595 0.002915
C20   C     C_1   0.940718 0.501325 0.499837 -0.014200
C21   C     C_1   0.838523 0.500587 0.499417 -0.188961
C22   C     C_R   0.576082 0.064301 0.584937 -0.014417
H1    H     H_    0.395330 0.116414 0.320899 0.196500
H2    H     H_    0.287180 0.381098 0.870878 0.218731
H3    H     H_    0.539727 0.873674 0.789132 0.094791
H4    H     H_    0.679756 0.117489 0.758618 0.176156
H5    H     H_    0.678121 0.457461 0.125094 0.146900
H6    H     H_    0.677804 0.455972 0.874287 0.142307
H7    H     H_    0.223113 0.540211 0.876029 0.213316
N1    N     N_R   0.499240 0.499140 0.142800 -0.130511
N2    N     N_R   0.499240 0.499180 0.857150 -0.091096
O1    O     O_R   0.500010 0.316790 0.614690 -0.601036
O2    O     O_R   0.500000 0.316760 0.385350 -0.604499
O3    O     O_R   0.334450 0.500030 0.614670 -0.627928
O4    O     O_R   0.334440 0.500000 0.385330 -0.560341
O5    O     O_R   0.500000 0.683240 0.614650 -0.655300
O6    O     O_R   0.499990 0.683210 0.385310 -0.589982
O7    O     O_R   0.665560 0.500000 0.614670 -0.646983
O8    O     O_R   0.665550 0.499970 0.385330 -0.625612
Zn1   Zn    Zn3+2 0.500010 0.500020 0.653130 0.947216
Zn2   Zn    Zn3+2 0.499990 0.499980 0.346870 0.998715
O9    O     O_3   0.204484 0.550835 0.136816 -0.598574
C23   C     C_3   0.087577 0.514707 0.113675 0.144246
H8    H     H_    0.054581 0.458972 0.201227 0.204448
H9    H     H_    0.074624 0.458557 0.020541 0.118935
C24   C     C_3   0.014646 0.631359 0.102384 -0.857880
H10   H     H_    0.045932 0.690098 0.016143 0.259651
H11   H     H_    0.922438 0.604594 0.085826 0.205280
H12   H     H_    0.021202 0.686128 0.196988 0.275606
C25   C     C_2   0.284756 0.337454 0.137799 0.884222
O10   O     O_2   0.350306 0.258907 0.093572 -0.630114
O11   O     O_R   0.210351 0.306254 0.245207 -0.822533
H13   H     H_    0.216417 0.215700 0.274807 0.333043
O12   O     O_3   0.380349 0.874643 0.296299 -0.587405
C26   C     C_3   0.428799 0.887107 0.164997 0.108474
H14   H     H_    0.498864 0.817836 0.152211 0.151911
H15   H     H_    0.465359 0.982232 0.143024 0.164577
C27   C     C_3   0.335000 0.861391 0.060837 -0.762044
H16   H     H_    0.269225 0.936099 0.063835 0.259109
H17   H     H_    0.373917 0.858780 0.958112 0.210598
H18   H     H_    0.291680 0.770315 0.082392 0.292626
O13   O     O_3   0.722604 0.892352 0.755699 -0.604606
C28   C     C_3   0.734854 0.762198 0.744617 0.176210
H19   H     H_    0.727576 0.734732 0.636960 0.152724
H20   H     H_    0.669226 0.710668 0.807299 0.142796
C29   C     C_3   0.854304 0.726196 0.794523 -0.849674
H21   H     H_    0.922379 0.770547 0.729592 0.266574
H22   H     H_    0.863584 0.623112 0.791415 0.211541
H23   H     H_    0.865711 0.758035 0.900164 0.259663
C30   C     C_2   0.495185 0.111197 0.816105 0.921996
O14   O     O_2   0.511628 0.185294 0.907394 -0.582614
O15   O     O_R   0.383077 0.067497 0.787927 -0.816848
H24   H     H_    0.322672 0.104384 0.850024 0.353734

loop_
_geom_bond_atom_site_label_1
_geom_bond_atom_site_label_2
_ccdc_geom_bond_type
C10   H5    S    
C2    C22   A    
C25   O11   S    
C23   H8    S    
C28   H20   S    
N1    Zn2   S    
C6    C7    S    
C8    H4    S    
O9    C23   S    
C10   N1    A    
C29   H22   S    
C19   C20   S    
C7    H3    S    
C16   O6    A    
C26   H14   S    
O2    Zn2   S    
C27   H18   S    
O1    Zn1   S    
C29   H21   S    
C9    C15   S    
C28   C29   S    
C11   N2    A    
C7    C8    S    
C7    O13   S    
C24   H10   S    
C13   C14   S    
C16   O5    A    
C12   O4    A    
O7    Zn1   S    
C23   H9    S    
C24   H12   S    
C30   O14   D    
C9    N1    A    
O3    Zn1   S    
C4    C5    A    
C11   H6    S    
C8    C30   S    
C2    C3    A    
C4    O12   S    
C17   O7    A    
C26   H15   S    
O6    Zn2   S    
C5    C6    A    
O4    Zn2   S    
C23   C24   S    
C24   H11   S    
C26   C27   S    
C29   H23   S    
C10   C11   A    
C1    O2    A    
C14   H7    S    
C27   H17   S    
C3    C4    A    
C6    C22   A    
O5    Zn1   S    
C20   C21   T    
O8    Zn2   S    
C1    C2    S    
C17   O8    A    
C15   C25   S    
C14   H2    S    
C3    H1    S    
C9    C13   A    
O12   C26   S    
C18   C19   T    
C5    C16   S    
C30   O15   S    
N2    Zn1   S    
C25   O10   D    
C27   H16   S    
C14   C15   S    
C12   O3    A    
C8    C22   S    
C13   N2    A    
C1    O1    A    
C17   C21   S    
O13   C28   S    
C28   H19   S    
C15   O9    S    
O11   H13   S    
O15   H24   S    
C12   C18   S    
