data_mof_unit_42358.cif
_audit_creation_date              2012-12-11T15:23:36-0500
_audit_creation_method            fapswitch 2.2
_symmetry_space_group_name_H-M    P1
_symmetry_Int_Tables_number       1
_space_group_crystal_system       triclinic
_cell_length_a                    17.529309
_cell_length_b                    24.687868
_cell_length_c                    15.254216
_cell_angle_alpha                 89.323301
_cell_angle_beta                  126.504837
_cell_angle_gamma                 90.352801
_cell_volume                      5305.90318478

loop_
_atom_site_label
_atom_site_type_symbol
_atom_type_description
_atom_site_fract_x
_atom_site_fract_y
_atom_site_fract_z
_atom_type_partial_charge
C1    C     C_R   0.362813 0.345850 0.913793 0.756434
C2    C     C_R   0.683434 0.369042 0.092923 0.741707
C3    C     C_R   0.860166 0.846472 0.913040 0.760045
C4    C     C_R   0.155718 0.850837 0.091184 0.744166
C5    C     C_R   0.376317 0.681034 0.995586 -0.094016
C6    C     C_R   0.648360 0.670618 0.002034 -0.069010
C7    C     C_R   0.863927 0.175504 0.997499 -0.087394
C8    C     C_R   0.167436 0.160445 0.006837 -0.008581
C9    C     C_R   0.540001 0.497729 0.350302 -0.167589
C10   C     C_R   0.455319 0.503035 0.647095 -0.092325
C11   C     C_R   0.043432 0.997440 0.352138 -0.153718
C12   C     C_R   0.961959 0.002222 0.651217 -0.072110
C13   C     C_R   0.175995 0.499250 0.734132 -0.343961
C14   C     C_R   0.815325 0.497006 0.353316 -0.456030
C15   C     C_R   0.675333 0.998087 0.731314 -0.322070
C16   C     C_R   0.320533 0.996156 0.343919 -0.457058
C17   C     C_2   0.920430 0.469216 0.544036 0.558200
C18   C     C_2   0.015851 0.460947 0.645415 0.504641
C19   C     C_2   0.421795 0.967221 0.533069 0.571152
C20   C     C_2   0.515368 0.958831 0.636509 0.494639
C21   C     C_2   0.909175 0.495378 0.458650 0.502614
C22   C     C_2   0.075273 0.503275 0.691862 0.369962
C23   C     C_2   0.413886 0.993419 0.449625 0.508971
C24   C     C_2   0.573676 0.001350 0.685417 0.365237
C25   C     C_R   0.330520 0.774298 0.996129 0.377565
C26   C     C_R   0.708608 0.762360 0.027101 0.408541
C27   C     C_R   0.820758 0.271111 0.951840 0.459906
C28   C     C_R   0.226903 0.252763 0.038204 0.412029
C29   C     C_R   0.779541 0.316108 0.960939 0.466948
C30   C     C_R   0.275361 0.291313 0.021582 0.338936
C31   C     C_R   0.275931 0.808814 0.010932 0.400728
C32   C     C_R   0.764419 0.798644 0.017250 0.353671
C33   C     C_R   0.732503 0.309382 0.009078 -0.417770
C34   C     C_R   0.340330 0.273740 0.002535 -0.407524
C35   C     C_R   0.200112 0.786724 0.007773 -0.360672
C36   C     C_R   0.829297 0.778056 0.000040 -0.407220
C37   C     C_R   0.724627 0.259388 0.046758 0.623962
C38   C     C_R   0.349832 0.219482 0.987007 0.628085
C39   C     C_R   0.183512 0.731415 0.002204 0.607138
C40   C     C_R   0.832678 0.723569 0.981002 0.645370
C41   C     C_R   0.239776 0.697172 0.993251 0.564046
C42   C     C_R   0.772783 0.688259 0.982845 0.530750
C43   C     C_R   0.764712 0.215055 0.037158 0.587564
C44   C     C_R   0.294378 0.181688 0.992125 0.529039
C45   C     C_R   0.437516 0.649495 0.088046 0.517088
C46   C     C_R   0.573336 0.645215 0.910488 0.561046
C47   C     C_R   0.931945 0.146740 0.089601 0.526192
C48   C     C_R   0.086595 0.139022 0.912681 0.493305
C49   C     C_R   0.312639 0.718647 0.990795 -0.416979
C50   C     C_R   0.711085 0.707980 0.004658 -0.343075
C51   C     C_R   0.814596 0.221329 0.993086 -0.413709
C52   C     C_R   0.231932 0.198814 0.014759 -0.338653
C53   C     C_R   0.557175 0.530683 0.595855 0.325794
C54   C     C_R   0.583734 0.523944 0.527118 0.463613
C55   C     C_R   0.066343 0.026870 0.602146 0.324492
C56   C     C_R   0.091467 0.020281 0.531924 0.460557
C57   C     C_R   0.520046 0.498658 0.427364 -0.402113
C58   C     C_R   0.472497 0.506093 0.567420 -0.333285
C59   C     C_R   0.024541 0.998047 0.429887 -0.397097
C60   C     C_R   0.979553 0.004802 0.572056 -0.331828
C61   C     C_R   0.433159 0.477558 0.396766 0.594527
C62   C     C_R   0.410069 0.480505 0.468113 0.660311
C63   C     C_R   0.936137 0.979229 0.398268 0.598557
C64   C     C_R   0.914239 0.981805 0.470646 0.652820
C65   C     C_R   0.534000 0.453112 0.293645 0.593724
C66   C     C_R   0.460577 0.456618 0.700920 0.513452
C67   C     C_R   0.035911 0.953012 0.294634 0.593447
C68   C     C_R   0.964911 0.956031 0.703824 0.504069
C69   C     C_R   0.232324 0.543914 0.755400 0.754140
C70   C     C_R   0.763898 0.542798 0.296977 0.716353
C71   C     C_R   0.731046 0.043101 0.752787 0.702320
C72   C     C_R   0.266529 0.042237 0.294002 0.711222
C73   C     C_R   0.537959 0.543246 0.296669 0.809719
C74   C     C_R   0.461012 0.546303 0.704335 0.782352
C75   C     C_R   0.040027 0.043033 0.297985 0.807794
C76   C     C_R   0.964313 0.045868 0.705643 0.768556
C77   C     C_R   0.232569 0.454268 0.755385 0.624621
C78   C     C_R   0.759729 0.453180 0.296587 0.726838
C79   C     C_R   0.732761 0.953618 0.753875 0.619982
C80   C     C_R   0.264018 0.952587 0.288027 0.700169
C81   C     C_R   0.351863 0.650864 0.906128 0.638556
C82   C     C_R   0.666189 0.644275 0.091683 0.521008
C83   C     C_R   0.844875 0.149269 0.908738 0.559415
C84   C     C_R   0.174987 0.139110 0.094454 0.500365
C85   C     C_R   0.456944 0.346062 0.093725 0.617423
C86   C     C_R   0.592343 0.367872 0.911377 0.522986
C87   C     C_R   0.953128 0.846493 0.093183 0.607577
C88   C     C_R   0.065690 0.850839 0.910916 0.502539
C89   C     C_R   0.399917 0.313462 0.003712 -0.125790
C90   C     C_R   0.677820 0.351863 0.004593 -0.156923
C91   C     C_R   0.893451 0.814666 0.002746 -0.147262
C92   C     C_R   0.134818 0.822519 0.003153 -0.101786
N1    N     N_R   0.395440 0.396300 0.944370 -0.166678
N2    N     N_R   0.604560 0.396300 0.055630 -0.165076
N3    N     N_R   0.895440 0.896300 0.944370 -0.173504
N4    N     N_R   0.104560 0.896300 0.055630 -0.170306
N5    N     N_R   0.449890 0.602500 0.055780 -0.146842
N6    N     N_R   0.550110 0.602500 0.944220 -0.138919
N7    N     N_R   0.949890 0.102500 0.055780 -0.151510
N8    N     N_R   0.050110 0.102500 0.944220 -0.154378
N9    N     N_R   0.525090 0.470990 0.205640 -0.145851
N10   N     N_R   0.474910 0.470990 0.794360 -0.175646
N11   N     N_R   0.025090 0.970990 0.205640 -0.144686
N12   N     N_R   0.974910 0.970990 0.794360 -0.157202
N13   N     N_R   0.320240 0.527820 0.794510 -0.161658
N14   N     N_R   0.679760 0.527820 0.205490 -0.179957
N15   N     N_R   0.820240 0.027820 0.794510 -0.179541
N16   N     N_R   0.179760 0.027820 0.205490 -0.173923
N17   N     N_R   0.524580 0.527810 0.205160 -0.172783
N18   N     N_R   0.475420 0.527810 0.794840 -0.160055
N19   N     N_R   0.024580 0.027810 0.205160 -0.172219
N20   N     N_R   0.975420 0.027810 0.794840 -0.162465
N21   N     N_R   0.320750 0.470990 0.794990 -0.185192
N22   N     N_R   0.679250 0.470990 0.205010 -0.181465
N23   N     N_R   0.820750 0.970990 0.794990 -0.176708
N24   N     N_R   0.179250 0.970990 0.205010 -0.162601
N25   N     N_R   0.393580 0.602500 0.942610 -0.138328
N26   N     N_R   0.606420 0.602500 0.057390 -0.176386
N27   N     N_R   0.893580 0.102500 0.942610 -0.178010
N28   N     N_R   0.106420 0.102500 0.057390 -0.174988
N29   N     N_R   0.451750 0.396300 0.057540 -0.128872
N30   N     N_R   0.548250 0.396300 0.942460 -0.179174
N31   N     N_R   0.951750 0.896300 0.057540 -0.134174
N32   N     N_R   0.048250 0.896300 0.942460 -0.152241
Ni1   Ni    Ni4+2 0.435420 0.434250 0.870220 0.202160
Ni2   Ni    Ni4+2 0.564580 0.434250 0.129780 0.302968
Ni3   Ni    Ni4+2 0.935420 0.934250 0.870220 0.224599
Ni4   Ni    Ni4+2 0.064580 0.934250 0.129780 0.307128
Ni5   Ni    Ni4+2 0.563400 0.564580 0.128670 0.225980
Ni6   Ni    Ni4+2 0.436600 0.564580 0.871330 0.290192
Ni7   Ni    Ni4+2 0.063400 0.064580 0.128670 0.221877
Ni8   Ni    Ni4+2 0.936600 0.064580 0.871330 0.202747
F1    F     F_    0.319960 0.326316 0.812005 -0.669051
F2    F     F_    0.746211 0.350655 0.196087 -0.595999
F3    F     F_    0.822460 0.826143 0.812919 -0.660776
F4    F     F_    0.202114 0.829845 0.193014 -0.605612
O1    O     O_3   0.986793 0.520983 0.472144 -0.605970
C93   C     C_3   0.985676 0.515363 0.379413 -0.084829
H1    H     H_    0.056489 0.526876 0.401912 0.183813
H2    H     H_    0.932794 0.543195 0.312820 0.152186
H3    H     H_    0.972161 0.472713 0.350709 0.105553
O2    O     O_3   0.036692 0.554771 0.672030 -0.575547
C94   C     C_3   0.035694 0.568667 0.760640 0.000052
H4    H     H_    0.108609 0.568482 0.838615 0.182187
H5    H     H_    0.988745 0.541034 0.767026 0.063183
H6    H     H_    0.007097 0.610348 0.747031 0.184867
O3    O     O_3   0.493951 0.017641 0.466466 -0.614849
C95   C     C_3   0.488263 0.020293 0.370263 -0.041952
H7    H     H_    0.437299 0.052151 0.313898 0.157746
H8    H     H_    0.469315 0.980333 0.329129 0.083073
H9    H     H_    0.559045 0.031650 0.392496 0.180148
O4    O     O_3   0.533581 0.052457 0.664747 -0.564909
C96   C     C_3   0.537540 0.067639 0.756123 0.017789
H10   H     H_    0.504869 0.108306 0.740127 0.183307
H11   H     H_    0.612208 0.070521 0.830573 0.141100
H12   H     H_    0.496555 0.039039 0.770483 0.055268
O5    O     O_3   0.408084 0.791993 0.000039 -0.614342
C97   C     C_3   0.384342 0.835690 0.927146 -0.059115
H13   H     H_    0.408771 0.874341 0.972517 0.171564
H14   H     H_    0.307294 0.838530 0.858407 0.104027
H15   H     H_    0.423053 0.830425 0.890936 0.134950
O6    O     O_3   0.644274 0.779429 0.046074 -0.630408
C98   C     C_3   0.692489 0.804552 0.148894 -0.032458
H16   H     H_    0.707699 0.847660 0.143856 0.203511
H17   H     H_    0.758943 0.782823 0.213203 0.130530
H18   H     H_    0.645217 0.804389 0.174717 0.129388
O7    O     O_3   0.857425 0.275309 0.892995 -0.554506
C99   C     C_3   0.956774 0.280623 0.965115 -0.112198
H19   H     H_    0.990338 0.240325 0.997030 0.114799
H20   H     H_    0.980790 0.308658 0.033612 0.097378
H21   H     H_    0.981814 0.297494 0.918684 0.180248
O8    O     O_3   0.166358 0.267316 0.064317 -0.662578
C100  C     C_3   0.217299 0.294261 0.165607 -0.060681
H22   H     H_    0.227395 0.337711 0.156096 0.212728
H23   H     H_    0.286750 0.274516 0.227880 0.151408
H24   H     H_    0.174562 0.293211 0.197397 0.106783
O9    O     O_3   0.777057 0.364559 0.912480 -0.550014
C101  C     C_3   0.840971 0.401509 0.994157 -0.103842
H25   H     H_    0.911791 0.383160 0.055807 0.092406
H26   H     H_    0.811498 0.418625 0.035234 0.111841
H27   H     H_    0.851781 0.435735 0.954859 0.172972
O10   O     O_3   0.262272 0.346203 0.026362 -0.623441
C102  C     C_3   0.174974 0.362204 0.929120 -0.037674
H28   H     H_    0.166229 0.346829 0.855267 0.209136
H29   H     H_    0.172890 0.407093 0.923918 0.166343
H30   H     H_    0.114520 0.348678 0.929258 0.135214
O11   O     O_3   0.293518 0.863947 0.024999 -0.607122
C103  C     C_3   0.369040 0.873320 0.135311 -0.205911
H31   H     H_    0.436716 0.856036 0.156852 0.158377
H32   H     H_    0.353670 0.856807 0.191489 0.183231
H33   H     H_    0.378916 0.917686 0.148113 0.162037
O12   O     O_3   0.758317 0.853966 0.026329 -0.614540
C104  C     C_3   0.674719 0.873754 0.929109 -0.075351
H34   H     H_    0.611457 0.864079 0.926538 0.150387
H35   H     H_    0.664990 0.857738 0.855148 0.214362
H36   H     H_    0.679804 0.918498 0.926878 0.153648
F5    F     F_    0.672696 0.253072 0.085838 -0.600207
F6    F     F_    0.411965 0.203673 0.966678 -0.617918
F7    F     F_    0.112010 0.711073 0.003550 -0.613207
F8    F     F_    0.894006 0.705016 0.961433 -0.607192
F9    F     F_    0.225164 0.642865 0.989426 -0.657101
F10   F     F_    0.775702 0.634689 0.965523 -0.655983
F11   F     F_    0.755987 0.165929 0.071676 -0.610563
F12   F     F_    0.301430 0.128539 0.975849 -0.648618
O13   O     O_3   0.617314 0.556241 0.695316 -0.621652
C105  C     C_3   0.616536 0.612560 0.677227 0.092712
H37   H     H_    0.543399 0.628796 0.617585 0.143793
H38   H     H_    0.661396 0.622771 0.650250 0.156511
H39   H     H_    0.647311 0.633599 0.755306 0.190914
O14   O     O_3   0.668832 0.544306 0.553724 -0.564103
C106  C     C_3   0.742406 0.508124 0.627115 -0.030949
H40   H     H_    0.728536 0.466689 0.592958 0.127284
H41   H     H_    0.753927 0.506821 0.707078 0.150638
H42   H     H_    0.809102 0.522631 0.641862 0.167828
O15   O     O_3   0.128946 0.049994 0.703726 -0.616815
C107  C     C_3   0.134875 0.106182 0.690271 0.081409
H43   H     H_    0.063514 0.125475 0.637007 0.152802
H44   H     H_    0.176258 0.114934 0.658200 0.155813
H45   H     H_    0.173433 0.125365 0.771193 0.195919
O16   O     O_3   0.177796 0.038459 0.558598 -0.559443
C108  C     C_3   0.249357 0.001176 0.631511 -0.062286
H46   H     H_    0.233110 0.959774 0.596944 0.113507
H47   H     H_    0.261228 0.000431 0.711644 0.150414
H48   H     H_    0.316732 0.014088 0.646131 0.174043
F13   F     F_    0.370681 0.454798 0.297501 -0.626992
F14   F     F_    0.326777 0.459254 0.440219 -0.642820
F15   F     F_    0.871152 0.959064 0.297057 -0.626574
F16   F     F_    0.829255 0.962924 0.441636 -0.647235
O17   O     O_3   0.463886 0.656391 0.192913 -0.556629
C109  C     C_3   0.476939 0.711022 0.225229 -0.075732
H49   H     H_    0.410901 0.727246 0.209491 0.138436
H50   H     H_    0.501277 0.737397 0.186955 0.099055
H51   H     H_    0.532592 0.712603 0.314593 0.179866
O18   O     O_3   0.523192 0.661690 0.802677 -0.575747
C110  C     C_3   0.504250 0.717819 0.790770 -0.011851
H52   H     H_    0.564458 0.740772 0.802963 0.101301
H53   H     H_    0.486764 0.732819 0.845570 0.132687
H54   H     H_    0.441408 0.725913 0.705857 0.183914
O19   O     O_3   0.974643 0.157589 0.198642 -0.549139
C111  C     C_3   0.988958 0.213300 0.223860 -0.049599
H55   H     H_    0.931718 0.229201 0.227091 0.160904
H56   H     H_    0.995960 0.238405 0.168160 0.011840
H57   H     H_    0.056215 0.217834 0.306794 0.167328
O20   O     O_3   0.046124 0.151924 0.804702 -0.591816
C112  C     C_3   0.053587 0.207456 0.787765 -0.175410
H58   H     H_    0.121205 0.215701 0.799149 0.128391
H59   H     H_    0.045178 0.234367 0.839503 0.116472
H60   H     H_    0.995495 0.217814 0.701734 0.205047
O21   O     O_3   0.528263 0.399201 0.314587 -0.563734
C113  C     C_3   0.604742 0.385313 0.422405 0.009543
H61   H     H_    0.592597 0.399876 0.481693 0.087582
H62   H     H_    0.673795 0.400235 0.443391 0.186073
H63   H     H_    0.609538 0.340537 0.429962 0.158131
O22   O     O_3   0.427371 0.407228 0.649882 -0.566334
C114  C     C_3   0.341152 0.395267 0.633476 0.068126
H64   H     H_    0.309604 0.358960 0.581288 0.155196
H65   H     H_    0.288926 0.428977 0.590864 0.118460
H66   H     H_    0.353815 0.385418 0.712000 0.163960
O23   O     O_3   0.028102 0.899292 0.314576 -0.554625
C115  C     C_3   0.105559 0.884204 0.421049 -0.026152
H67   H     H_    0.095905 0.898771 0.482376 0.075367
H68   H     H_    0.174505 0.898161 0.440304 0.183072
H69   H     H_    0.108474 0.839366 0.427022 0.152716
O24   O     O_3   0.930973 0.906914 0.651991 -0.575228
C116  C     C_3   0.841324 0.897109 0.628607 0.090292
H70   H     H_    0.791999 0.932015 0.585464 0.114864
H71   H     H_    0.848770 0.887006 0.704206 0.174487
H72   H     H_    0.809043 0.861603 0.574183 0.147823
F17   F     F_    0.201764 0.595632 0.734488 -0.649373
F18   F     F_    0.783997 0.591916 0.343709 -0.632656
F19   F     F_    0.696136 0.093643 0.721372 -0.618174
F20   F     F_    0.288337 0.089727 0.346776 -0.637745
F21   F     F_    0.569901 0.592423 0.343022 -0.635524
F22   F     F_    0.423445 0.595278 0.658381 -0.645717
F23   F     F_    0.074354 0.091729 0.345692 -0.629831
F24   F     F_    0.925477 0.094153 0.656288 -0.682645
F25   F     F_    0.204669 0.402129 0.735895 -0.616921
F26   F     F_    0.769978 0.403626 0.341363 -0.569872
F27   F     F_    0.705462 0.901443 0.731574 -0.620800
F28   F     F_    0.282616 0.901123 0.326397 -0.591445
O25   O     O_3   0.328000 0.671492 0.807594 -0.590418
C117  C     C_3   0.252306 0.708734 0.759893 0.010486
H73   H     H_    0.217205 0.710281 0.670836 0.166486
H74   H     H_    0.279606 0.749785 0.791240 0.083187
H75   H     H_    0.197018 0.696944 0.770892 0.140277
O26   O     O_3   0.724545 0.663486 0.196551 -0.568535
C118  C     C_3   0.667427 0.681314 0.227093 -0.005193
H76   H     H_    0.635956 0.646410 0.241584 0.195817
H77   H     H_    0.610734 0.709197 0.164776 0.076049
H78   H     H_    0.712422 0.703887 0.304548 0.163065
O27   O     O_3   0.793955 0.172378 0.805404 -0.544332
C119  C     C_3   0.845979 0.169800 0.762808 0.181396
H79   H     H_    0.915436 0.189989 0.818161 0.058002
H80   H     H_    0.806609 0.192239 0.684022 0.156414
H81   H     H_    0.853942 0.127532 0.746219 0.147037
O28   O     O_3   0.231109 0.160055 0.198258 -0.574894
C120  C     C_3   0.172584 0.176005 0.228248 0.066427
H82   H     H_    0.141246 0.140445 0.241131 0.189591
H83   H     H_    0.115290 0.203434 0.166078 0.043105
H84   H     H_    0.216231 0.198305 0.306192 0.158410
O29   O     O_3   0.537571 0.329713 0.194890 -0.570604
C121  C     C_3   0.533981 0.275359 0.221259 0.039876
H85   H     H_    0.536215 0.247301 0.166453 0.184262
H86   H     H_    0.471383 0.267910 0.221302 0.075356
H87   H     H_    0.598081 0.266895 0.305152 0.160385
O30   O     O_3   0.550405 0.347680 0.808355 -0.570436
C122  C     C_3   0.509194 0.296853 0.799702 0.014654
H88   H     H_    0.473596 0.295352 0.840535 0.153015
H89   H     H_    0.563214 0.264276 0.832476 0.116033
H90   H     H_    0.454402 0.288316 0.712097 0.161367
O31   O     O_3   0.031531 0.828815 0.194791 -0.567525
C123  C     C_3   0.026442 0.773858 0.216725 0.025870
H91   H     H_    0.027635 0.747085 0.159513 0.181096
H92   H     H_    0.963680 0.766076 0.216272 0.084118
H93   H     H_    0.090337 0.763854 0.299856 0.157763
O32   O     O_3   0.024341 0.838097 0.803512 -0.593794
C124  C     C_3   0.992848 0.783870 0.781438 -0.009909
H94   H     H_    0.968500 0.768851 0.830246 0.194619
H95   H     H_    0.048900 0.757311 0.792715 0.095654
H96   H     H_    0.931141 0.781206 0.694394 0.155604
F29   F     F_    0.846448 0.444030 0.533990 -0.693055
F30   F     F_    0.044283 0.409212 0.679704 -0.643554
F31   F     F_    0.345770 0.942823 0.519730 -0.700203
F32   F     F_    0.543717 0.907046 0.670258 -0.648740

loop_
_geom_bond_atom_site_label_1
_geom_bond_atom_site_label_2
_ccdc_geom_bond_type
C85   O29   S    
C114  H65   S    
O5    C97   S    
C87   C91   A    
C19   C20   S    
C95   H9    S    
C21   O1    S    
N10   Ni1   S    
C39   C41   A    
O29   C121  S    
C117  H73   S    
C2    F2    S    
C9    C73   A    
C103  H33   S    
C14   C21   S    
C98   H17   S    
N1    N29   A    
C26   C50   A    
C70   F18   S    
C113  H62   S    
C94   H4    S    
C29   C33   A    
O20   C112  S    
C83   N27   A    
C2    C90   A    
O10   C102  S    
N16   Ni7   S    
C4    N4    A    
O27   C119  S    
C107  H45   S    
C85   N29   A    
C113  H63   S    
C100  H23   S    
C46   N6    A    
C29   O9    S    
C112  H58   S    
C30   O10   S    
C5    C49   S    
C77   N21   A    
C41   C49   A    
C87   O31   S    
C48   N8    A    
C81   O25   S    
C78   F26   S    
C86   C90   A    
C83   O27   S    
C105  H37   S    
C63   F15   S    
C74   F22   S    
C17   C21   D    
O32   C124  S    
C16   C80   A    
C124  H96   S    
C19   C23   D    
O15   C107  S    
O17   C109  S    
O30   C122  S    
C95   H7    S    
C96   H12   S    
C109  H50   S    
C93   H2    S    
N32   Ni3   S    
N2    N30   A    
C36   C91   S    
O28   C120  S    
C97   H13   S    
C82   N26   A    
C56   O16   S    
C75   F23   S    
C93   H3    S    
C74   N18   A    
C53   C58   A    
N8    Ni8   S    
C57   C61   A    
C59   C63   A    
C56   C59   A    
C60   C64   A    
C119  H80   S    
N26   Ni5   S    
N5    N25   A    
C9    C65   A    
N7    N27   A    
C86   O30   S    
C1    N1    A    
C104  H34   S    
C112  H60   S    
C31   O11   S    
C3    N3    A    
C25   C31   A    
C7    C83   A    
C26   C32   A    
C79   N23   A    
C27   C29   A    
O3    C95   S    
C65   N9    A    
C88   N32   A    
C101  H25   S    
C67   N11   A    
C53   C54   A    
C12   C68   A    
C32   O12   S    
O21   C113  S    
C46   O18   S    
N13   N21   A    
C10   C58   S    
C95   H8    S    
C55   O15   S    
N22   Ni2   S    
C47   N7    A    
C123  H91   S    
C103  H32   S    
C28   O8    S    
C99   H21   S    
C15   C79   A    
C72   N16   A    
O24   C116  S    
C38   F6    S    
C8    C52   S    
C17   F29   S    
C44   C52   A    
C40   C42   A    
C100  H22   S    
C120  H83   S    
C1    F1    S    
O16   C108  S    
C27   C51   A    
N6    N26   A    
N1    Ni1   S    
C10   C66   A    
C121  H86   S    
C30   C34   A    
C80   N24   A    
C2    N2    A    
C102  H30   S    
N12   N20   A    
C108  H46   S    
N11   Ni4   S    
C104  H36   S    
C22   O2    S    
C118  H77   S    
C17   C18   S    
C6    C50   S    
C116  H71   S    
C42   C50   A    
C47   O19   S    
N19   Ni7   S    
C15   C24   S    
C16   C23   S    
N17   Ni5   S    
C110  H54   S    
C42   F10   S    
C68   O24   S    
N3    N31   A    
C39   F7    S    
C18   C22   D    
N15   Ni8   S    
N13   Ni6   S    
N11   N19   A    
C117  H74   S    
C123  H93   S    
C122  H90   S    
N30   Ni1   S    
C34   C89   S    
C11   C75   A    
C87   N31   A    
C13   C69   A    
C111  H55   S    
C61   C62   A    
C63   C64   A    
C54   O14   S    
C106  H42   S    
O4    C96   S    
C117  H75   S    
C44   F12   S    
C67   O23   S    
C114  H64   S    
C54   C57   A    
C58   C62   A    
C94   H6    S    
C55   C56   A    
C71   N15   A    
N28   Ni7   S    
O19   C111  S    
C16   C72   A    
C48   O20   S    
C108  H48   S    
C105  H38   S    
N9    N17   A    
N4    Ni4   S    
C3    C91   A    
C124  H95   S    
C24   O4    S    
C97   H15   S    
C66   O22   S    
C86   N30   A    
C110  H52   S    
C96   H11   S    
C4    F4    S    
C35   C92   S    
C99   H20   S    
C114  H66   S    
C55   C60   A    
C97   H14   S    
C14   C70   A    
C78   N22   A    
C115  H69   S    
C11   C59   S    
C122  H88   S    
C98   H18   S    
C70   N14   A    
O7    C99   S    
C85   C89   A    
C115  H67   S    
C40   F8    S    
C113  H61   S    
C62   F14   S    
C23   O3    S    
C26   O6    S    
C111  H57   S    
C33   C37   A    
C7    C47   A    
C37   C43   A    
C35   C39   A    
C8    C48   A    
C38   C44   A    
O22   C114  S    
C5    C81   A    
C106  H40   S    
C84   N28   A    
N6    Ni6   S    
C118  H78   S    
N20   Ni8   S    
C112  H59   S    
C12   C76   A    
C31   C35   A    
N10   N18   A    
O18   C110  S    
C41   F9    S    
C32   C36   A    
O6    C98   S    
C69   N13   A    
C8    C84   A    
C68   N12   A    
C107  H44   S    
N27   Ni8   S    
C101  H26   S    
C73   N17   A    
C84   O28   S    
C15   C71   A    
C75   N19   A    
N16   N24   A    
C7    C51   S    
O11   C103  S    
C43   C51   A    
N12   Ni3   S    
C5    C45   A    
C123  H92   S    
C13   C22   S    
N18   Ni6   S    
C3    F3    S    
C109  H49   S    
C82   O26   S    
C25   C49   A    
C101  H27   S    
C93   H1    S    
C69   F17   S    
N3    Ni3   S    
C79   F27   S    
O9    C101  S    
C80   F28   S    
O2    C94   S    
C4    C92   A    
N14   Ni5   S    
O31   C123  S    
C6    C82   A    
C65   O21   S    
C10   C74   A    
C120  H82   S    
C66   N10   A    
C98   H16   S    
C102  H28   S    
O13   C105  S    
C121  H87   S    
N14   N22   A    
C119  H79   S    
C102  H29   S    
O26   C118  S    
N21   Ni1   S    
C88   O32   S    
N23   Ni3   S    
C76   F24   S    
C109  H51   S    
C77   F25   S    
C20   F32   S    
C20   C24   D    
C73   F21   S    
C104  H35   S    
C53   O13   S    
N8    N28   A    
C37   F5    S    
C18   F30   S    
C116  H70   S    
C110  H53   S    
C45   O17   S    
C11   C67   A    
N2    Ni2   S    
C13   C77   A    
N4    N32   A    
C88   C92   A    
C36   C40   A    
C107  H43   S    
C115  H68   S    
O25   C117  S    
C61   F13   S    
C103  H31   S    
C122  H89   S    
C76   N20   A    
C111  H56   S    
N9    Ni2   S    
N25   Ni6   S    
N15   N23   A    
C81   N25   A    
C106  H41   S    
C118  H76   S    
C43   F11   S    
C120  H84   S    
O23   C115  S    
C64   F16   S    
O8    C100  S    
C100  H24   S    
C94   H5    S    
C121  H85   S    
C99   H19   S    
C1    C89   A    
C6    C46   A    
C34   C38   A    
C119  H81   S    
C19   F31   S    
O1    C93   S    
N7    Ni7   S    
O12   C104  S    
C28   C30   A    
N5    Ni5   S    
N29   Ni2   S    
C108  H47   S    
C45   N5    A    
C33   C90   S    
C28   C52   A    
C105  H39   S    
N31   Ni4   S    
C9    C57   S    
C14   C78   A    
C124  H94   S    
C116  H72   S    
C25   O5    S    
C12   C60   S    
C71   F19   S    
O14   C106  S    
N24   Ni4   S    
C72   F20   S    
C96   H10   S    
C27   O7    S    
