data_mof_unit_66395.cif
_audit_creation_date              2012-12-10T16:41:31-0500
_audit_creation_method            fapswitch 2.2
_symmetry_space_group_name_H-M    P1
_symmetry_Int_Tables_number       1
_space_group_crystal_system       triclinic
_cell_length_a                    18.927195
_cell_length_b                    19.098822
_cell_length_c                    19.037889
_cell_angle_alpha                 110.194651
_cell_angle_beta                  109.421275
_cell_angle_gamma                 109.505829
_cell_volume                      5250.70732542

loop_
_atom_site_label
_atom_site_type_symbol
_atom_type_description
_atom_site_fract_x
_atom_site_fract_y
_atom_site_fract_z
_atom_type_partial_charge
C1    C     C_R   0.381739 0.381809 0.498284 0.694276
C2    C     C_R   0.414104 0.667109 0.677483 0.039206
C3    C     C_R   0.494540 0.678556 0.684773 -0.068686
C4    C     C_R   0.572390 0.753933 0.752706 -0.203879
C5    C     C_R   0.571639 0.819347 0.813073 -0.202022
C6    C     C_R   0.492970 0.810828 0.806187 -0.079261
C7    C     C_2   0.224918 0.264256 0.552766 -0.162428
C8    C     C_2   0.205568 0.181722 0.522324 0.344806
C9    C     C_2   0.301861 0.327234 0.560290 -0.159198
C10   C     C_2   0.311097 0.311740 0.490446 0.347125
C11   C     C_2   0.490277 0.173967 0.246509 -0.158797
C12   C     C_R   0.498322 0.616034 0.618308 0.791607
C13   C     C_2   0.508765 0.184625 0.187522 -0.308627
C14   C     C_2   0.502322 0.246937 0.319885 -0.163021
C15   C     C_2   0.490907 0.309805 0.311525 -0.331403
C16   C     C_2   0.818826 0.743704 0.494787 -0.152768
C17   C     C_2   0.822931 0.819182 0.509157 -0.313834
C18   C     C_2   0.758434 0.683307 0.507289 -0.156384
C19   C     C_2   0.681994 0.678029 0.492660 -0.316490
C20   C     C_R   0.381873 0.994999 0.878076 0.839304
C21   C     C_R   0.497057 0.878524 0.875914 0.783945
C22   C     C_R   0.618215 0.998997 0.115744 0.848838
C23   C     C_R   0.617649 0.615656 0.498284 0.853664
C24   C     C_R   0.502177 0.115453 0.116859 0.846171
C25   C     C_R   0.880828 0.998439 0.382596 0.857795
C26   C     C_R   0.123281 0.117117 0.505914 0.723291
C27   C     C_R   0.119438 0.001752 0.617351 0.840962
C28   C     C_R   0.884601 0.882763 0.502248 0.846826
C29   C     C_2   0.249740 0.991334 0.674909 -0.153450
C30   C     C_2   0.189971 0.008587 0.686175 -0.307426
C31   C     C_2   0.322606 0.002821 0.747225 -0.152160
C32   C     C_2   0.312440 0.987999 0.808029 -0.320176
C33   C     C_2   0.750467 0.008484 0.322947 -0.154809
C34   C     C_R   0.497651 0.380017 0.381161 0.842632
C35   C     C_2   0.810984 0.991714 0.313235 -0.314528
C36   C     C_2   0.677587 0.995274 0.249107 -0.152343
C37   C     C_2   0.687574 0.007204 0.186886 -0.310944
C38   C     C_R   0.335155 0.588520 0.613589 -0.280871
C39   C     C_R   0.255320 0.580582 0.602551 0.517840
C40   C     C_R   0.254251 0.650065 0.658053 -0.206618
C41   C     C_R   0.331687 0.726964 0.723707 -0.258125
C42   C     C_R   0.412867 0.735577 0.736595 0.099486
Cu1   Cu    Cu3+1 0.561020 0.499620 0.560640 0.953063
Cu2   Cu    Cu3+1 0.438980 0.500380 0.439360 0.929323
Cu3   Cu    Cu3+1 0.561070 0.057880 0.996780 0.951241
Cu4   Cu    Cu3+1 0.439050 0.935860 0.996810 0.947539
Cu5   Cu    Cu3+1 0.000000 0.061410 0.561410 0.957475
Cu6   Cu    Cu3+1 0.000000 0.938590 0.438590 0.940636
H1    H     H_    0.634006 0.762731 0.758217 0.151071
H2    H     H_    0.470791 0.112395 0.243939 0.159072
H3    H     H_    0.537031 0.248389 0.195254 0.157020
H4    H     H_    0.515935 0.246265 0.379692 0.159775
H5    H     H_    0.467600 0.305490 0.248935 0.154987
H6    H     H_    0.863268 0.727923 0.478117 0.162416
H7    H     H_    0.785515 0.839331 0.535214 0.152836
H8    H     H_    0.774755 0.639485 0.523556 0.162946
H9    H     H_    0.661513 0.714935 0.467016 0.155079
H10   H     H_    0.248092 0.973106 0.613428 0.154468
H11   H     H_    0.334547 0.532194 0.572773 0.146597
H12   H     H_    0.196893 0.035701 0.750106 0.155115
H13   H     H_    0.383553 0.018949 0.747669 0.163487
H14   H     H_    0.248898 0.962599 0.802296 0.154225
H15   H     H_    0.751286 0.027038 0.384080 0.161572
H16   H     H_    0.804848 0.964112 0.249701 0.154575
H17   H     H_    0.616618 0.980037 0.248455 0.158880
H18   H     H_    0.751064 0.031949 0.192477 0.152296
H19   H     H_    0.192903 0.644372 0.650309 0.154578
H20   H     H_    0.326735 0.779441 0.763163 0.172042
H21   H     H_    0.633015 0.876582 0.866209 0.155522
H22   H     H_    0.180966 0.284569 0.565093 0.130516
H23   H     H_    0.346920 0.388837 0.620936 0.105133
O1    O     O_R   0.462500 0.410660 0.551220 -0.591543
O2    O     O_R   0.359500 0.945890 0.908340 -0.595007
O3    O     O_R   0.551580 0.958790 0.907180 -0.588922
O4    O     O_R   0.448540 0.855750 0.907210 -0.584923
O5    O     O_R   0.640630 0.047850 0.085250 -0.587859
O6    O     O_R   0.537580 0.944800 0.085280 -0.578962
O7    O     O_R   0.551590 0.137990 0.086380 -0.585226
O8    O     O_R   0.448540 0.034950 0.086410 -0.584766
O9    O     O_R   0.910970 0.052410 0.463390 -0.576285
O10   O     O_R   0.910970 0.948690 0.359670 -0.584105
O11   O     O_R   0.089030 0.140870 0.551850 -0.594666
O12   O     O_R   0.359440 0.411300 0.448810 -0.597609
O13   O     O_R   0.089030 0.037160 0.448130 -0.598484
O14   O     O_R   0.089030 0.051310 0.640330 -0.584127
O15   O     O_R   0.089030 0.947590 0.536610 -0.594851
O16   O     O_R   0.910970 0.962840 0.551870 -0.590175
O17   O     O_R   0.910970 0.859130 0.448150 -0.578396
O18   O     O_R   0.551530 0.589280 0.640810 -0.580802
O19   O     O_R   0.448470 0.589920 0.538390 -0.590528
O20   O     O_R   0.640560 0.588700 0.551190 -0.579240
O21   O     O_R   0.537500 0.589340 0.448780 -0.583871
O22   O     O_R   0.551530 0.410080 0.461610 -0.577897
O23   O     O_R   0.448470 0.410720 0.359190 -0.588503
O24   O     O_R   0.462540 0.048930 0.908310 -0.577414
O25   O     O_3   0.241327 0.240922 0.409497 -0.622811
C43   C     C_3   0.264299 0.213627 0.345407 0.060994
H24   H     H_    0.239837 0.143300 0.318077 0.136434
H25   H     H_    0.335424 0.244346 0.369913 0.109482
C44   C     C_3   0.218402 0.225701 0.271249 -0.311647
H26   H     H_    0.147261 0.191453 0.245945 0.216687
H27   H     H_    0.241207 0.295327 0.295176 0.237585
C45   C     C_3   0.235031 0.189768 0.197209 -0.912472
H28   H     H_    0.305551 0.224021 0.220401 0.268239
H29   H     H_    0.200609 0.199207 0.144492 0.253855
H30   H     H_    0.210701 0.119461 0.170564 0.253079
O26   O     O_3   0.178090 0.502824 0.542413 -0.616383
C46   C     C_3   0.157448 0.484004 0.457013 0.053591
H31   H     H_    0.112843 0.413004 0.412956 0.176649
H32   H     H_    0.214914 0.499835 0.448060 0.135380
C47   C     C_3   0.110607 0.529889 0.429705 -0.365484
H33   H     H_    0.052711 0.512227 0.437627 0.231428
H34   H     H_    0.154815 0.601136 0.471828 0.212508
C48   C     C_3   0.081651 0.504740 0.335416 -0.906906
H35   H     H_    0.138792 0.523104 0.326393 0.254835
H36   H     H_    0.048204 0.539089 0.317708 0.258313
H37   H     H_    0.035826 0.433921 0.291608 0.255971
O27   O     O_3   0.272498 0.164282 0.526990 -0.609874
C49   C     C_3   0.249133 0.094376 0.448534 0.116219
H38   H     H_    0.299326 0.117658 0.431340 0.143066
H39   H     H_    0.185813 0.070948 0.392201 0.151259
C50   C     C_3   0.251589 0.020751 0.462503 -0.346546
H40   H     H_    0.318573 0.044204 0.512362 0.215419
H41   H     H_    0.207502 0.999872 0.486725 0.242031
C51   C     C_3   0.224714 0.943184 0.378621 -0.926921
H42   H     H_    0.157012 0.917292 0.328562 0.258572
H43   H     H_    0.228021 0.891389 0.391115 0.257321
H44   H     H_    0.269062 0.962185 0.353926 0.251272

loop_
_geom_bond_atom_site_label_1
_geom_bond_atom_site_label_2
_ccdc_geom_bond_type
Cu1   O1    S    
C25   O9    A    
C8    C26   S    
C41   C42   A    
C31   H13   S    
C47   H33   S    
C34   O22   A    
C22   O5    A    
Cu2   O12   S    
C7    H22   S    
C48   H35   S    
C8    O27   S    
C7    C8    D    
Cu3   Cu4   S    
C19   H9    S    
C39   O26   S    
Cu1   O18   S    
Cu3   O5    S    
C15   H5    S    
C12   O19   A    
C36   C37   D    
C5    C6    A    
C11   C14   S    
C11   C13   D    
C33   C36   S    
C46   H31   S    
C18   C19   D    
Cu5   O11   S    
C27   O14   A    
O27   C49   S    
C5    H21   S    
C3    C12   S    
C33   C35   D    
C13   H3    S    
C14   H4    S    
C31   C32   D    
C16   C17   D    
C40   H19   S    
C30   H12   S    
C28   O17   A    
C51   H44   S    
O26   C46   S    
Cu6   O17   S    
Cu3   O7    S    
C45   H30   S    
C9    C10   D    
C17   H7    S    
C15   C34   S    
Cu2   O21   S    
C18   H8    S    
C26   O11   A    
C37   H18   S    
C27   C30   S    
C25   O10   A    
Cu5   O9    S    
Cu4   O4    S    
C43   H25   S    
C43   H24   S    
C41   H20   S    
C49   H39   S    
C38   C39   A    
C1    O1    A    
C9    H23   S    
C12   O18   A    
C45   H29   S    
C39   C40   A    
C36   H17   S    
C22   C37   S    
C21   O3    A    
C44   C45   S    
Cu1   O20   S    
Cu6   O13   S    
C13   C24   S    
Cu3   O3    S    
Cu5   O16   S    
C27   O15   A    
C19   C23   S    
Cu1   Cu2   S    
C29   C30   D    
C2    C38   A    
C24   O8    A    
Cu5   Cu6   S    
C10   O25   S    
C33   H15   S    
O25   C43   S    
C28   O16   A    
C44   H27   S    
C47   H34   S    
C35   H16   S    
C25   C35   S    
C24   O7    A    
C40   C41   A    
C20   O24   A    
C51   H42   S    
Cu6   O15   S    
C50   H41   S    
C3    C4    A    
Cu3   O24   S    
Cu5   O14   S    
C43   C44   S    
Cu2   O19   S    
C20   C32   S    
C49   C50   S    
C7    C9    S    
C26   O13   A    
C14   C15   D    
C17   C28   S    
C1    C10   S    
C34   O23   A    
C22   O6    A    
C4    C5    A    
Cu4   O6    S    
C48   H36   S    
C49   H38   S    
C1    O12   A    
C21   O4    A    
C46   C47   S    
C4    H1    S    
C50   C51   S    
Cu6   O10   S    
C32   H14   S    
C29   C31   S    
C11   H2    S    
C6    C21   S    
Cu4   O8    S    
C2    C42   A    
C44   H26   S    
Cu1   O22   S    
C46   H32   S    
C20   O2    A    
C2    C3    A    
C47   C48   S    
C23   O20   A    
C16   H6    S    
C48   H37   S    
Cu2   O23   S    
C38   H11   S    
C29   H10   S    
C16   C18   S    
C6    C42   A    
C45   H28   S    
C51   H43   S    
C23   O21   A    
C50   H40   S    
Cu4   O2    S    
