data_mof_unit_52672.cif
_audit_creation_date              2012-12-11T14:27:07-0500
_audit_creation_method            fapswitch 2.2
_symmetry_space_group_name_H-M    P1
_symmetry_Int_Tables_number       1
_space_group_crystal_system       triclinic
_cell_length_a                    14.997651
_cell_length_b                    14.889007
_cell_length_c                    14.914687
_cell_angle_alpha                 109.306468
_cell_angle_beta                  109.335273
_cell_angle_gamma                 109.597904
_cell_volume                      2569.25887874

loop_
_atom_site_label
_atom_site_type_symbol
_atom_type_description
_atom_site_fract_x
_atom_site_fract_y
_atom_site_fract_z
_atom_type_partial_charge
C1    C     C_R   0.006237 0.805056 0.099219 -0.274946
C2    C     C_R   0.220647 0.760433 0.314464 -0.241408
C3    C     C_R   0.898515 0.408815 0.203179 -0.102313
C4    C     C_R   0.793838 0.196180 0.703315 -0.136788
C5    C     C_R   0.298398 0.590944 0.993596 -0.046724
C6    C     C_R   0.925001 0.498941 0.294373 0.106014
C7    C     C_R   0.299521 0.499946 0.931183 0.092750
C8    C     C_R   0.324246 0.796830 0.326618 -0.062576
C9    C     C_R   0.033297 0.203008 0.029410 -0.040477
C10   C     C_3   0.465534 0.398243 0.819589 0.450601
C11   C     C_3   0.363372 0.397364 0.822760 -0.464757
C12   C     C_R   0.702773 0.132964 0.703849 0.137672
C13   C     C_3   0.562810 0.496399 0.035103 0.503341
C14   C     C_3   0.573500 0.602223 0.933962 -0.722196
C15   C     C_3   0.570034 0.495142 0.931804 0.011613
C16   C     C_R   0.034494 0.590651 0.776279 0.745799
C17   C     C_3   0.395970 0.499508 0.927536 0.088148
C18   C     C_3   0.458968 0.495448 0.030566 -0.699063
C19   C     C_3   0.470471 0.604318 0.931080 0.683964
C20   C     C_2   0.436856 0.874106 0.522635 -0.136218
C21   C     C_2   0.427155 0.866236 0.427447 -0.121074
C22   C     C_2   0.534135 0.964882 0.625772 -0.104296
C23   C     C_R   0.963192 0.499495 0.673497 -0.083040
C24   C     C_2   0.628832 0.015993 0.629393 -0.188564
C25   C     C_2   0.844771 0.415056 0.476557 -0.132614
C26   C     C_2   0.927389 0.503015 0.572519 -0.099824
C27   C     C_2   0.834173 0.409076 0.373126 -0.132347
C28   C     C_R   0.687077 0.407221 0.930599 -0.048565
C29   C     C_2   0.880825 0.499859 0.367766 -0.163147
C30   C     C_2   0.155956 0.132957 0.076667 -0.178490
C31   C     C_2   0.058983 0.125971 0.053674 -0.149524
C32   C     C_2   0.171905 0.044255 0.085748 -0.084077
C33   C     C_2   0.119996 0.988975 0.124369 -0.152763
C34   C     C_R   0.673390 0.497582 0.945133 0.072528
C35   C     C_R   0.942803 0.407547 0.685709 -0.234975
C36   C     C_R   0.775846 0.590486 0.022664 -0.130814
C37   C     C_R   0.703233 0.197434 0.794764 -0.158353
C38   C     C_R   0.100037 0.805316 0.011653 0.822571
C39   C     C_R   0.074595 0.870604 0.076454 -0.085167
C40   C     C_3   0.979019 0.229179 0.209877 0.140107
C41   C     C_3   0.926621 0.133001 0.226498 -0.250124
C42   C     C_3   0.999927 0.152176 0.338282 -1.036081
C43   C     C_3   0.438368 0.232812 0.691169 0.148382
C44   C     C_3   0.319240 0.177886 0.602299 -0.310230
C45   C     C_R   0.991163 0.590259 0.296098 -0.126143
C46   C     C_3   0.298339 0.099957 0.491158 -0.968167
C47   C     C_3   0.507356 0.314176 0.011879 0.287535
C48   C     C_3   0.489968 0.282735 0.094890 -0.377229
C49   C     C_3   0.408100 0.160913 0.039934 -0.948839
C50   C     C_R   0.209030 0.408873 0.904455 -0.147772
C51   C     C_R   0.313407 0.763526 0.223877 0.733945
C52   C     C_R   0.965799 0.239230 0.054428 0.539807
C53   C     C_R   0.057436 0.239632 0.962047 -0.197946
F1    F     F_    0.395422 0.790109 0.200830 -0.733488
F2    F     F_    0.414500 0.611117 0.840904 -0.686477
F3    F     F_    0.079225 0.696458 0.799342 -0.678925
F4    F     F_    0.190362 0.843123 0.002314 -0.672359
H1    H     H_    0.984718 0.834068 0.161149 0.147239
H2    H     H_    0.314134 0.320577 0.819787 0.172542
H3    H     H_    0.405921 0.424304 0.032649 0.202692
H4    H     H_    0.644861 0.677438 0.009395 0.157576
H5    H     H_    0.580918 0.607879 0.863946 0.238670
H6    H     H_    0.497074 0.679321 0.006001 0.033831
H7    H     H_    0.629622 0.579530 0.104716 0.083718
H8    H     H_    0.482025 0.568839 0.105421 0.179307
H9    H     H_    0.367060 0.825035 0.526046 0.143109
H10   H     H_    0.494482 0.917149 0.422371 0.164917
H11   H     H_    0.520419 0.000907 0.692427 0.124768
H12   H     H_    0.179395 0.323839 0.849755 0.096567
H13   H     H_    0.644727 0.976499 0.565742 0.137190
H14   H     H_    0.796833 0.339638 0.473241 0.135394
H15   H     H_    0.978586 0.578294 0.577991 0.164587
H16   H     H_    0.806102 0.328655 0.307998 0.126644
H17   H     H_    0.903215 0.579701 0.429456 0.135170
H18   H     H_    0.217325 0.195330 0.074310 0.147450
H19   H     H_    0.994975 0.061018 0.050531 0.150378
H20   H     H_    0.206885 0.012444 0.039462 0.210593
H21   H     H_    0.627222 0.321692 0.882791 0.130267
H22   H     H_    0.090263 0.025989 0.174872 0.139937
H23   H     H_    0.104197 0.222518 0.923969 0.131965
H24   H     H_    0.893073 0.322265 0.622244 0.142420
H25   H     H_    0.797129 0.675637 0.058549 0.108031
H26   H     H_    0.654370 0.169601 0.829545 0.098038
H27   H     H_    0.012614 0.673803 0.346719 0.098381
H28   H     H_    0.989937 0.303762 0.272952 0.126620
H29   H     H_    0.062624 0.246187 0.226280 0.102117
H30   H     H_    0.847310 0.122404 0.219923 0.208335
H31   H     H_    0.910709 0.056170 0.161645 0.193667
H32   H     H_    0.078841 0.160440 0.345707 0.269805
H33   H     H_    0.959255 0.081259 0.347865 0.271104
H34   H     H_    0.199043 0.775413 0.378107 0.143515
H35   H     H_    0.015579 0.227758 0.404692 0.276332
H36   H     H_    0.458322 0.167369 0.691223 0.135376
H37   H     H_    0.495380 0.283641 0.672602 0.093711
H38   H     H_    0.264666 0.130787 0.625150 0.210953
H39   H     H_    0.299259 0.241512 0.595286 0.191691
H40   H     H_    0.351506 0.145525 0.466250 0.270033
H41   H     H_    0.211848 0.062255 0.428428 0.264911
H42   H     H_    0.314591 0.033336 0.494771 0.268537
H43   H     H_    0.535841 0.262700 0.970554 0.125562
H44   H     H_    0.428368 0.293868 0.948134 0.128956
H45   H     H_    0.832458 0.326406 0.166289 0.142797
H46   H     H_    0.569051 0.301341 0.157966 0.228821
H47   H     H_    0.459762 0.331999 0.136406 0.205762
H48   H     H_    0.327305 0.140921 0.978893 0.257306
H49   H     H_    0.399158 0.140853 0.102922 0.280616
H50   H     H_    0.437030 0.110006 0.998448 0.280658
H51   H     H_    0.350749 0.675088 0.018526 0.185356
H52   H     H_    0.470195 0.417902 0.754546 0.055037
H53   H     H_    0.311143 0.395913 0.748522 0.179963
H54   H     H_    0.825751 0.165940 0.652277 0.097237
N1    N     N_R   0.993980 0.704500 0.053430 -0.079319
N2    N     N_R   0.053690 0.556380 0.849240 -0.113745
N3    N     N_R   0.790390 0.443640 0.997160 -0.050551
N4    N     N_R   0.998260 0.443670 0.792970 -0.077148
N5    N     N_R   0.845830 0.556350 0.053430 -0.035781
N6    N     N_R   0.792820 0.295510 0.849240 -0.051177
N7    N     N_R   0.051260 0.704510 0.997160 -0.127176
N8    N     N_R   0.001740 0.556330 0.207030 -0.043235
N9    N     N_R   0.154170 0.443650 0.946570 -0.048381
N10   N     N_R   0.207180 0.704490 0.150760 -0.114001
N11   N     N_R   0.948740 0.295490 0.002840 -0.089005
N12   N     N_R   0.006020 0.295500 0.946570 -0.068485
N13   N     N_R   0.149890 0.704480 0.207030 -0.077562
N14   N     N_R   0.946310 0.443620 0.150760 -0.053366
N15   N     N_R   0.209610 0.556360 0.002840 -0.058969
N16   N     N_R   0.850110 0.295520 0.792970 -0.038694
Ni1   Ni    Ni4+2 0.997880 0.629240 0.129060 0.190896
Ni2   Ni    Ni4+2 0.002120 0.370760 0.870940 0.191805
Ni3   Ni    Ni4+2 0.129260 0.629260 0.000000 0.312060
Ni4   Ni    Ni4+2 0.870740 0.370740 0.000000 0.224488
O1    O     O_3   0.908335 0.206936 0.104566 -0.683285
O2    O     O_3   0.454515 0.293420 0.796648 -0.704201
O3    O     O_3   0.590434 0.425448 0.068492 -0.657228

loop_
_geom_bond_atom_site_label_1
_geom_bond_atom_site_label_2
_ccdc_geom_bond_type
C30   C32   S    
C46   H42   S    
C41   C42   S    
C40   C41   S    
C47   H44   S    
C6    C45   A    
C27   C29   D    
C26   H15   S    
N3    Ni4   S    
C10   O2    S    
N10   Ni3   S    
C3    C6    A    
C16   N2    A    
N16   Ni2   S    
C35   H24   S    
C24   H13   S    
C49   H50   S    
C18   H8    S    
C33   C39   S    
C13   C18   S    
N7    Ni3   S    
C20   H9    S    
C50   H12   S    
C10   C15   S    
C1    N1    A    
C30   C31   D    
N9    N15   A    
N15   Ni3   S    
C48   H47   S    
C43   H37   S    
C10   H52   S    
C13   O3    S    
C23   C26   S    
C40   H29   S    
C12   C37   A    
C43   O2    S    
N10   N13   A    
C17   C19   S    
C32   H20   S    
C52   N11   A    
C19   H6    S    
C7    C17   S    
C5    N15   A    
C35   N4    A    
C25   H14   S    
C4    C12   A    
C28   H21   S    
C15   C34   S    
C34   C36   A    
N13   Ni1   S    
N8    Ni1   S    
C45   N8    A    
C46   H41   S    
C28   C34   A    
C21   H10   S    
C11   H53   S    
C9    C52   A    
C11   H2    S    
C44   C46   S    
C8    C21   S    
C41   H30   S    
N2    Ni3   S    
N9    Ni2   S    
C52   O1    S    
C53   H23   S    
C53   N12   A    
C36   H25   S    
C5    C7    A    
C9    C31   S    
C33   H22   S    
C49   H48   S    
C29   H17   S    
C25   C26   D    
C48   H46   S    
C47   H43   S    
C42   H33   S    
C40   H28   S    
C43   C44   S    
C16   F3    S    
C44   H39   S    
C38   F4    S    
N14   Ni4   S    
C47   C48   S    
C17   C18   S    
N6    N16   A    
C8    C51   A    
C22   H11   S    
C28   N3    A    
N8    N14   A    
C3    H45   S    
C18   H3    S    
C48   C49   S    
C46   H40   S    
C20   C22   S    
C16   C23   A    
C23   C35   A    
C13   C15   S    
C47   O3    S    
C51   N10   A    
C22   C24   D    
C45   H27   S    
C9    C53   A    
C36   N5    A    
N11   Ni4   S    
N4    Ni2   S    
C19   F2    S    
C41   H31   S    
C11   C17   S    
C4    N16   A    
C14   C19   S    
C4    H54   S    
C2    C8    A    
C7    C50   A    
N3    N5    A    
C3    N14   A    
C49   H49   S    
C2    N13   A    
C25   C27   S    
C12   C24   S    
C50   N9    A    
C51   F1    S    
C32   C33   D    
C42   H32   S    
C44   H38   S    
C1    H1    S    
N1    N7    A    
C30   H18   S    
C14   H4    S    
C31   H19   S    
C38   C39   A    
C13   H7    S    
C43   H36   S    
C42   H35   S    
C40   O1    S    
C2    H34   S    
N6    Ni4   S    
N1    Ni1   S    
C10   C11   S    
C1    C39   A    
C38   N7    A    
C6    C29   S    
C37   N6    A    
C20   C21   D    
N5    Ni1   S    
C14   C15   S    
C37   H26   S    
N11   N12   A    
C27   H16   S    
N12   Ni2   S    
N2    N4    A    
C5    H51   S    
C14   H5    S    
