data_mof_unit_57905.cif
_audit_creation_date              2012-12-10T18:35:47-0500
_audit_creation_method            fapswitch 2.2
_symmetry_space_group_name_H-M    P1
_symmetry_Int_Tables_number       1
_space_group_crystal_system       triclinic
_cell_length_a                    13.321007
_cell_length_b                    13.88977
_cell_length_c                    15.117943
_cell_angle_alpha                 90.102016
_cell_angle_beta                  91.154903
_cell_angle_gamma                 74.201487
_cell_volume                      2690.97721729

loop_
_atom_site_label
_atom_site_type_symbol
_atom_type_description
_atom_site_fract_x
_atom_site_fract_y
_atom_site_fract_z
_atom_type_partial_charge
C1    C     C_R   0.501834 0.499704 0.669675 0.748025
C2    C     C_R   0.969288 0.460747 0.590355 -0.057091
C3    C     C_R   0.860857 0.491353 0.575487 -0.072735
C4    C     C_R   0.028182 0.532261 0.577071 -0.034648
C5    C     C_R   0.971525 0.635755 0.571855 -0.010793
C6    C     C_R   0.864156 0.664043 0.594124 0.356193
C7    C     C_R   0.810026 0.590341 0.599066 0.323496
C8    C     C_R   0.137971 0.504725 0.559996 -0.026365
C9    C     C_R   0.128984 0.678160 0.525267 -0.286850
C10   C     C_R   0.807884 0.419447 0.548192 -0.146457
C11   C     C_R   0.577992 0.429435 0.906459 -0.147692
C12   C     C_R   0.698710 0.447951 0.513076 0.804556
C13   C     C_R   0.580973 0.426534 0.814569 0.396715
C14   C     C_R   0.505749 0.499876 0.765566 -0.120155
C15   C     C_R   0.432274 0.575653 0.809191 -0.242055
C16   C     C_R   0.430543 0.577578 0.900880 -0.152594
C17   C     C_R   0.503049 0.504237 0.949548 0.028465
C18   C     C_R   0.520080 0.583539 0.095341 0.010138
C19   C     C_R   0.518808 0.580435 0.187472 -0.278354
C20   C     C_R   0.500365 0.498700 0.232038 -0.152352
C21   C     C_R   0.481127 0.418493 0.182819 0.344017
C22   C     C_R   0.478031 0.422306 0.090216 -0.044442
C23   C     C_R   0.499891 0.499639 0.329488 0.846372
C24   C     C_R   0.499766 0.503923 0.046384 -0.054857
C25   C     C_R   0.479394 0.898303 0.422756 -0.261670
C26   C     C_R   0.468783 0.800689 0.426063 0.580804
C27   C     C_R   0.528417 0.783914 0.574631 0.030806
C28   C     C_R   0.532055 0.884435 0.575536 -0.305282
C29   C     C_R   0.508860 0.943811 0.498290 0.063257
C30   C     C_R   0.565356 0.092592 0.561082 -0.284587
C31   C     C_R   0.559604 0.195193 0.561365 0.072249
C32   C     C_R   0.447813 0.222581 0.435430 0.101803
C33   C     C_R   0.450597 0.120819 0.433138 -0.296488
C34   C     C_R   0.299909 0.551906 0.507807 0.802678
C35   C     C_R   0.509027 0.053088 0.497188 0.142075
C36   C     C_R   0.023830 0.707920 0.546950 0.027047
C37   C     C_R   0.186961 0.578115 0.530348 -0.108140
C38   C     C_R   0.859924 0.317461 0.558691 -0.292720
C39   C     C_R   0.958745 0.288592 0.600024 0.460582
C40   C     C_R   0.010116 0.361152 0.619428 -0.133191
Cu1   Cu    Cu3+1 0.500000 0.403570 0.500010 0.949090
Cu2   Cu    Cu3+1 0.500000 0.596430 0.499990 0.962741
H1    H     H_    0.165960 0.734489 0.503888 0.163733
H2    H     H_    0.374868 0.632237 0.772047 0.154512
H3    H     H_    0.372173 0.635339 0.934000 0.147079
H4    H     H_    0.534867 0.641629 0.224547 0.210242
H5    H     H_    0.459668 0.938722 0.361044 0.150954
H6    H     H_    0.545966 0.741529 0.635306 0.192606
H7    H     H_    0.551412 0.915000 0.637336 0.144342
H8    H     H_    0.614701 0.045079 0.610353 0.147238
H9    H     H_    0.603855 0.223926 0.610591 0.137215
H10   H     H_    0.401423 0.273263 0.386597 0.158452
H11   H     H_    0.403171 0.097688 0.383106 0.131194
H12   H     H_    0.821417 0.260810 0.540405 0.144456
H13   H     H_    0.080644 0.337966 0.658784 0.168239
H14   H     H_    0.635001 0.373632 0.944682 0.149942
N1    N     N_R   0.500000 0.741310 0.499980 -0.209589
N2    N     N_R   0.500060 0.258650 0.499980 -0.170622
O1    O     O_R   0.499990 0.418570 0.628550 -0.584478
O2    O     O_R   0.499990 0.581440 0.628540 -0.579101
O3    O     O_R   0.650980 0.378820 0.499990 -0.599620
O4    O     O_R   0.650980 0.541690 0.499970 -0.535945
O5    O     O_R   0.500010 0.418560 0.371460 -0.572219
O6    O     O_R   0.500010 0.581430 0.371450 -0.564757
O7    O     O_R   0.349020 0.458310 0.500030 -0.565123
O8    O     O_R   0.349020 0.621180 0.500010 -0.606438
O9    O     O_3   0.659286 0.352824 0.776441 -0.743508
H15   H     H_    0.666972 0.370291 0.714040 0.310611
C41   C     C_R   0.544072 0.670430 0.052170 0.118794
C42   C     C_R   0.628818 0.656479 0.995045 -0.122068
C43   C     C_R   0.649828 0.738631 0.953664 -0.122939
C44   C     C_R   0.587249 0.835283 0.969634 -0.119425
C45   C     C_R   0.503744 0.849987 0.027262 -0.140105
C46   C     C_R   0.482245 0.768004 0.068587 -0.151183
H16   H     H_    0.678590 0.582137 0.982646 0.130192
H17   H     H_    0.714763 0.727358 0.909310 0.141245
H18   H     H_    0.603610 0.898786 0.937526 0.121132
H19   H     H_    0.455501 0.924923 0.039734 0.132793
H20   H     H_    0.416823 0.780415 0.112609 0.147645
O10   O     O_3   0.460397 0.337880 0.223775 -0.735500
H21   H     H_    0.527315 0.299775 0.251865 0.319755
C47   C     C_R   0.451650 0.340176 0.039697 0.169563
C48   C     C_R   0.362243 0.360318 0.984371 -0.122789
C49   C     C_R   0.339138 0.283563 0.935002 -0.145619
C50   C     C_R   0.404732 0.186208 0.940750 -0.118270
C51   C     C_R   0.493468 0.165430 0.996002 -0.132817
C52   C     C_R   0.517014 0.242032 0.045330 -0.107665
H22   H     H_    0.310808 0.435442 0.979310 0.125728
H23   H     H_    0.270425 0.299598 0.892206 0.130953
H24   H     H_    0.386829 0.126893 0.902389 0.123250
H25   H     H_    0.544245 0.090028 0.000348 0.121220
H26   H     H_    0.586679 0.225210 0.087075 0.116754
O11   O     O_3   0.419297 0.770432 0.355196 -0.756397
H27   H     H_    0.370599 0.735430 0.379861 0.345293
O12   O     O_3   0.815309 0.762420 0.615002 -0.733078
H28   H     H_    0.739861 0.771716 0.623157 0.362853
C53   C     C_R   0.969056 0.815196 0.536778 0.167782
C54   C     C_R   0.912597 0.850327 0.458495 -0.124614
C55   C     C_R   0.850727 0.949261 0.452801 -0.106105
C56   C     C_R   0.844168 0.012985 0.525390 -0.131716
C57   C     C_R   0.900551 0.978276 0.603373 -0.142309
C58   C     C_R   0.964390 0.880204 0.608665 -0.054876
H29   H     H_    0.914619 0.800502 0.402966 0.120178
H30   H     H_    0.806439 0.976019 0.392719 0.129444
H31   H     H_    0.794833 0.088968 0.521418 0.121802
H32   H     H_    0.893852 0.026943 0.660187 0.139878
H33   H     H_    0.006257 0.853503 0.669894 0.120773
C59   C     C_R   0.202274 0.400427 0.574292 0.122873
C60   C     C_R   0.197441 0.324836 0.513682 -0.138761
C61   C     C_R   0.243501 0.224595 0.535746 -0.103589
C62   C     C_R   0.301125 0.199865 0.614813 -0.075945
C63   C     C_R   0.313008 0.275327 0.672018 -0.139688
C64   C     C_R   0.263111 0.375433 0.652367 -0.122869
H34   H     H_    0.151802 0.343151 0.452903 0.130205
H35   H     H_    0.234873 0.166032 0.491360 0.137308
H36   H     H_    0.337545 0.122227 0.631249 0.132759
H37   H     H_    0.358979 0.256082 0.732465 0.136117
H38   H     H_    0.269036 0.433089 0.698946 0.116718
O13   O     O_3   0.008247 0.190357 0.620654 -0.741551
H39   H     H_    0.966000 0.147842 0.595892 0.316018
O14   O     O_3   0.715531 0.613398 0.641036 -0.749344
H40   H     H_    0.705016 0.551150 0.666394 0.319192

loop_
_geom_bond_atom_site_label_1
_geom_bond_atom_site_label_2
_ccdc_geom_bond_type
C27   H6    S    
O11   H27   S    
C34   C37   S    
Cu1   Cu2   S    
C19   C20   A    
Cu1   O3    S    
C4    C8    A    
C34   O8    A    
C53   C54   A    
C19   H4    S    
C50   C51   A    
C56   H31   S    
C57   C58   A    
C30   C35   A    
C18   C24   A    
C22   C47   S    
C31   N2    A    
C28   C29   A    
C15   H2    S    
C3    C7    A    
C51   H25   S    
C1    O1    A    
C30   C31   A    
O10   H21   S    
C54   H29   S    
C5    C36   A    
C59   C60   A    
Cu2   N1    S    
C18   C19   A    
C45   C46   A    
C61   C62   A    
C32   H10   S    
C48   C49   A    
C16   C17   A    
C9    C36   A    
C45   H19   S    
C62   H36   S    
C32   N2    A    
C25   H5    S    
C53   C58   A    
C26   O11   S    
C23   O5    A    
C48   H22   S    
C30   H8    S    
C21   C22   A    
C25   C29   A    
C7    O14   S    
C8    C59   S    
C34   O7    A    
C63   C64   A    
C33   H11   S    
C38   C39   A    
C9    H1    S    
C17   C24   S    
C15   C16   A    
O9    H15   S    
C41   C46   A    
C49   C50   A    
Cu1   O1    S    
C27   N1    A    
C1    O2    A    
Cu2   O2    S    
C39   C40   A    
C51   C52   A    
C44   C45   A    
Cu1   O7    S    
C25   C26   A    
C47   C48   A    
C36   C53   S    
C59   C64   A    
C2    C4    A    
C44   H18   S    
C12   O4    A    
C28   H7    S    
C55   C56   A    
C38   H12   S    
C20   C23   S    
C50   H24   S    
C40   H13   S    
C9    C37   A    
C58   H33   S    
O14   H40   S    
C42   C43   A    
C10   C12   S    
C60   H34   S    
C23   O6    A    
C54   C55   A    
C46   H20   S    
C22   C24   A    
C8    C37   A    
Cu1   O5    S    
Cu2   O6    S    
C43   H17   S    
C42   H16   S    
C52   H26   S    
C13   O9    S    
C57   H32   S    
Cu2   O4    S    
C11   C17   A    
C62   C63   A    
C31   H9    S    
C4    C5    A    
C16   H3    S    
Cu1   N2    S    
O13   H39   S    
C6    C7    A    
C29   C35   S    
C63   H37   S    
C10   C38   A    
C32   C33   A    
C2    C3    A    
O12   H28   S    
C43   C44   A    
C3    C10   A    
C60   C61   A    
C12   O3    A    
C11   C13   A    
C5    C6    A    
C18   C41   S    
C39   O13   S    
C21   O10   S    
C56   C57   A    
C33   C35   A    
C55   H30   S    
C41   C42   A    
C26   N1    A    
C64   H38   S    
C2    C40   A    
C20   C21   A    
C6    O12   S    
C49   H23   S    
C27   C28   A    
Cu2   O8    S    
C14   C15   A    
C1    C14   S    
C13   C14   A    
C61   H35   S    
C11   H14   S    
C47   C52   A    
