data_mof_unit_43379.cif
_audit_creation_date              2012-12-11T16:45:45-0500
_audit_creation_method            fapswitch 2.2
_symmetry_space_group_name_H-M    P1
_symmetry_Int_Tables_number       1
_space_group_crystal_system       triclinic
_cell_length_a                    19.771041
_cell_length_b                    17.130689
_cell_length_c                    15.497731
_cell_angle_alpha                 90.233505
_cell_angle_beta                  53.292075
_cell_angle_gamma                 90.052473
_cell_volume                      4208.00431268

loop_
_atom_site_label
_atom_site_type_symbol
_atom_type_description
_atom_site_fract_x
_atom_site_fract_y
_atom_site_fract_z
_atom_type_partial_charge
C1    C     C_R   0.843426 0.676037 0.037372 -0.132184
C2    C     C_R   0.152911 0.311023 0.065607 0.153140
C3    C     C_2   0.558983 0.301532 0.582473 1.224679
C4    C     C_2   0.923598 0.426908 0.374567 0.919871
C5    C     C_2   0.081795 0.428459 0.621986 0.909566
C6    C     C_2   0.423612 0.926907 0.374556 0.919868
C7    C     C_2   0.581801 0.928458 0.621982 0.909580
C8    C     C_R   0.343953 0.812119 0.937827 0.156173
C9    C     C_R   0.652912 0.811023 0.065606 0.153147
C10   C     C_R   0.815836 0.644331 0.323385 -0.118246
C11   C     C_R   0.134823 0.676353 0.687287 -0.083379
C12   C     C_R   0.315841 0.144335 0.323386 -0.118194
C13   C     C_R   0.634786 0.176370 0.687303 -0.083389
C14   C     C_R   0.751942 0.660384 0.513286 0.154511
C15   C     C_R   0.189578 0.714660 0.508170 0.135388
C16   C     C_R   0.251923 0.160372 0.513298 0.154500
C17   C     C_R   0.161771 0.669540 0.950335 -0.111704
C18   C     C_R   0.689553 0.214669 0.508177 0.135298
C19   C     C_R   0.748801 0.673870 0.427266 0.087751
C20   C     C_R   0.198490 0.712454 0.590052 0.087280
C21   C     C_R   0.248800 0.173871 0.427266 0.087721
C22   C     C_R   0.698456 0.212470 0.590067 0.087320
C23   C     C_R   0.179540 0.214520 0.446222 -0.202204
C24   C     C_R   0.778133 0.224238 0.566943 -0.184054
C25   C     C_R   0.679535 0.714512 0.446232 -0.202203
C26   C     C_R   0.278169 0.724220 0.566922 -0.184101
C27   C     C_R   0.125500 0.254155 0.544166 -0.095616
C28   C     C_R   0.343424 0.176035 0.037376 -0.132196
C29   C     C_R   0.844161 0.250924 0.465757 -0.071134
C30   C     C_R   0.625501 0.754150 0.544174 -0.095618
C31   C     C_R   0.344192 0.750912 0.465738 -0.071093
C32   C     C_R   0.143366 0.253847 0.619653 0.073077
C33   C     C_R   0.828375 0.267107 0.391009 0.079740
C34   C     C_R   0.643379 0.753850 0.619649 0.073088
C35   C     C_R   0.328398 0.767102 0.390999 0.079712
C36   C     C_R   0.698833 0.697238 0.609107 0.096693
C37   C     C_R   0.253400 0.741559 0.409724 0.084176
C38   C     C_R   0.198810 0.197226 0.609119 0.096706
C39   C     C_R   0.661775 0.169533 0.950323 -0.111672
C40   C     C_R   0.753381 0.241559 0.409728 0.084182
C41   C     C_3   0.760677 0.689729 0.636557 -0.369416
C42   C     C_3   0.193404 0.773984 0.388306 -0.351276
C43   C     C_3   0.260635 0.189694 0.636596 -0.369443
C44   C     C_3   0.693388 0.273969 0.388294 -0.351253
C45   C     C_R   0.895279 0.302844 0.206231 -0.154972
C46   C     C_R   0.103108 0.302393 0.793714 -0.151876
C47   C     C_R   0.395289 0.802841 0.206227 -0.154965
C48   C     C_R   0.603116 0.802394 0.793711 -0.151917
C49   C     C_3   0.820309 0.648021 0.526987 -0.601661
C50   C     C_R   0.882009 0.316424 0.301811 -0.042047
C51   C     C_3   0.121251 0.741674 0.500137 -0.590914
C52   C     C_3   0.320269 0.147978 0.527032 -0.601650
C53   C     C_3   0.621230 0.241671 0.500131 -0.590888
C54   C     C_2   0.789693 0.180792 0.947337 0.510426
C55   C     C_2   0.210675 0.180909 0.048779 0.529257
C56   C     C_2   0.289697 0.680787 0.947338 0.510412
C57   C     C_2   0.710677 0.680910 0.048775 0.529228
C58   C     C_2   0.299218 0.756619 0.918946 -0.263222
C59   C     C_2   0.693466 0.753936 0.089303 -0.260061
C60   C     C_2   0.799194 0.256629 0.918976 -0.263234
C61   C     C_R   0.115762 0.315117 0.698016 -0.005162
C62   C     C_2   0.193467 0.253936 0.089303 -0.260067
C63   C     C_R   0.863388 0.388202 0.900170 -0.140314
C64   C     C_R   0.134486 0.387634 0.102262 -0.154370
C65   C     C_R   0.363394 0.888199 0.900163 -0.140322
C66   C     C_R   0.634486 0.887634 0.102261 -0.154361
C67   C     C_R   0.860222 0.579429 0.312648 -0.157403
C68   C     C_R   0.107600 0.602438 0.690282 -0.163851
C69   C     C_R   0.360225 0.079432 0.312649 -0.157304
C70   C     C_R   0.607577 0.102449 0.690293 -0.163863
C71   C     C_R   0.871528 0.300400 0.999481 -0.032298
C72   C     C_R   0.382028 0.816420 0.301801 -0.042069
C73   C     C_R   0.127044 0.299918 0.001765 -0.003437
C74   C     C_R   0.371533 0.800399 0.999477 -0.032319
C75   C     C_R   0.627045 0.799919 0.001765 -0.003481
C76   C     C_R   0.858744 0.679368 0.222691 0.550319
C77   C     C_R   0.113158 0.694500 0.787078 0.506338
C78   C     C_R   0.358748 0.179371 0.222692 0.550298
C79   C     C_R   0.613136 0.194508 0.787089 0.506301
C80   C     C_R   0.904834 0.393000 0.303139 -0.020741
C81   C     C_R   0.095888 0.392875 0.696156 -0.005576
C82   C     C_R   0.404844 0.892997 0.303134 -0.020757
C83   C     C_R   0.615771 0.815119 0.698013 -0.005152
C84   C     C_R   0.595892 0.892876 0.696154 -0.005566
C85   C     C_R   0.830205 0.579669 0.950489 -0.008207
C86   C     C_R   0.170797 0.579319 0.047521 -0.048169
C87   C     C_R   0.330204 0.079669 0.950491 -0.008209
C88   C     C_R   0.670798 0.079319 0.047519 -0.048221
C89   C     C_R   0.789808 0.644610 0.016914 -0.084359
C90   C     C_R   0.213190 0.641064 0.975617 -0.106607
C91   C     C_R   0.289806 0.144609 0.016918 -0.084356
C92   C     C_R   0.713191 0.141062 0.975611 -0.106609
C93   C     C_2   0.792119 0.767495 0.648340 1.016366
C94   C     C_R   0.843943 0.312124 0.937839 0.156185
C95   C     C_2   0.198504 0.862622 0.376779 1.015255
C96   C     C_2   0.292090 0.267449 0.648384 1.016373
C97   C     C_2   0.698484 0.362605 0.376744 1.015244
C98   C     C_2   0.731518 0.633490 0.728054 1.078181
C99   C     C_2   0.197846 0.731546 0.298728 1.076304
C100  C     C_2   0.231446 0.133457 0.728103 1.078183
C101  C     C_2   0.697833 0.231512 0.298725 1.076309
C102  C     C_2   0.904132 0.688300 0.446685 1.201322
C103  C     C_2   0.059003 0.801527 0.582495 1.224690
C104  C     C_2   0.404113 0.188233 0.446754 1.201330
H1    H     H_    0.838692 0.731338 0.072524 0.182768
H2    H     H_    0.088096 0.690528 0.496904 0.179371
H3    H     H_    0.328870 0.084544 0.533174 0.174311
H4    H     H_    0.588076 0.190519 0.496909 0.179435
H5    H     H_    0.261801 0.784466 0.898129 0.111859
H6    H     H_    0.723177 0.778999 0.123022 0.104712
H7    H     H_    0.761754 0.284481 0.898198 0.111885
H8    H     H_    0.223179 0.279001 0.123018 0.104712
H9    H     H_    0.891383 0.247686 0.175461 0.163298
H10   H     H_    0.100330 0.246851 0.828093 0.145038
H11   H     H_    0.391391 0.747684 0.175457 0.163266
H12   H     H_    0.174543 0.716507 0.897435 0.159375
H13   H     H_    0.600341 0.746851 0.828086 0.145053
H14   H     H_    0.857150 0.413627 0.841494 0.152647
H15   H     H_    0.139199 0.413111 0.162447 0.151240
H16   H     H_    0.357160 0.913623 0.841483 0.152658
H17   H     H_    0.639200 0.913111 0.162447 0.151234
H18   H     H_    0.844175 0.539761 0.375542 0.134108
H19   H     H_    0.112771 0.572287 0.625603 0.163598
H20   H     H_    0.344179 0.039761 0.375541 0.134057
H21   H     H_    0.612743 0.072300 0.625615 0.163600
H22   H     H_    0.872517 0.247391 0.035899 0.178571
H23   H     H_    0.338688 0.231334 0.072532 0.182767
H24   H     H_    0.125029 0.247056 0.965490 0.170021
H25   H     H_    0.372524 0.747390 0.035893 0.178558
H26   H     H_    0.625030 0.747056 0.965488 0.170021
H27   H     H_    0.809025 0.543086 0.914216 0.092536
H28   H     H_    0.191289 0.545374 0.086675 0.120575
H29   H     H_    0.309024 0.043086 0.914218 0.092578
H30   H     H_    0.691290 0.045377 0.086675 0.120587
H31   H     H_    0.170906 0.220103 0.383771 0.136723
H32   H     H_    0.788615 0.214004 0.627080 0.131885
H33   H     H_    0.670891 0.720089 0.383789 0.136717
H34   H     H_    0.674555 0.216492 0.897406 0.159352
H35   H     H_    0.288656 0.713981 0.627053 0.131887
H36   H     H_    0.829756 0.877677 0.594939 0.347803
H37   H     H_    0.204736 0.966757 0.433198 0.324651
H38   H     H_    0.329762 0.377625 0.594974 0.347824
H39   H     H_    0.704724 0.466755 0.433125 0.324656
H40   H     H_    0.764042 0.567209 0.804901 0.320678
H41   H     H_    0.148372 0.718071 0.217372 0.336630
H42   H     H_    0.263931 0.067163 0.804982 0.320682
H43   H     H_    0.648322 0.217973 0.217421 0.336626
H44   H     H_    0.959322 0.634838 0.505632 0.286390
H45   H     H_    0.075018 0.289216 0.556365 0.138029
H46   H     H_    0.003832 0.815277 0.508359 0.329751
H47   H     H_    0.459229 0.134766 0.505796 0.286419
H48   H     H_    0.503799 0.315243 0.508346 0.329782
H49   H     H_    0.831564 0.088277 0.973430 0.334450
H50   H     H_    0.175101 0.088669 0.012049 0.322150
H51   H     H_    0.331547 0.588275 0.973469 0.334445
H52   H     H_    0.675107 0.588670 0.012036 0.322162
H53   H     H_    0.811940 0.782972 0.270930 0.342219
H54   H     H_    0.132912 0.805309 0.766223 0.358275
H55   H     H_    0.311953 0.282978 0.270930 0.342213
H56   H     H_    0.904672 0.263768 0.448782 0.142449
H57   H     H_    0.632848 0.305323 0.766260 0.358287
H58   H     H_    0.994865 0.501849 0.389446 0.330451
H59   H     H_    0.003978 0.490547 0.604709 0.331416
H60   H     H_    0.494878 0.001854 0.389431 0.330475
H61   H     H_    0.503982 0.990539 0.604701 0.331411
H62   H     H_    0.575014 0.789208 0.556380 0.138020
H63   H     H_    0.404706 0.763756 0.448757 0.142448
H64   H     H_    0.828937 0.584592 0.533120 0.174304
N1    N     N_R   0.908660 0.628630 0.995840 -0.047337
N2    N     N_R   0.096530 0.421430 0.063580 -0.047229
N3    N     N_R   0.403470 0.921430 0.936420 -0.045306
N4    N     N_R   0.596530 0.921430 0.063580 -0.047225
N5    N     N_R   0.927500 0.575670 0.211370 -0.052237
N6    N     N_R   0.072500 0.575670 0.788630 -0.071706
N7    N     N_R   0.427500 0.075670 0.211370 -0.052236
N8    N     N_R   0.572500 0.075670 0.788630 -0.071709
N9    N     N_R   0.908660 0.365680 0.995820 -0.065735
N10   N     N_R   0.091340 0.365680 0.004180 -0.072854
N11   N     N_R   0.408660 0.865680 0.995820 -0.065727
N12   N     N_R   0.091340 0.628630 0.004160 -0.037480
N13   N     N_R   0.591340 0.865680 0.004180 -0.072849
N14   N     N_R   0.922310 0.631420 0.151980 -0.073107
N15   N     N_R   0.077690 0.631420 0.848020 -0.084752
N16   N     N_R   0.422310 0.131420 0.151980 -0.073108
N17   N     N_R   0.577690 0.131420 0.848020 -0.084753
N18   N     N_R   0.927500 0.426330 0.211360 -0.061219
N19   N     N_R   0.072500 0.426330 0.788640 -0.067158
N20   N     N_R   0.427500 0.926330 0.211360 -0.061216
N21   N     N_R   0.572500 0.926330 0.788640 -0.067158
N22   N     N_R   0.903470 0.570760 0.936440 -0.040663
N23   N     N_R   0.408660 0.128630 0.995840 -0.047334
N24   N     N_R   0.096530 0.570760 0.063560 -0.033540
N25   N     N_R   0.403470 0.070760 0.936440 -0.040669
N26   N     N_R   0.596530 0.070760 0.063560 -0.033533
N27   N     N_R   0.591340 0.128630 0.004160 -0.037472
N28   N     N_R   0.922310 0.368460 0.151950 -0.052245
N29   N     N_R   0.077690 0.368460 0.848050 -0.055745
N30   N     N_R   0.422310 0.868460 0.151950 -0.052234
N31   N     N_R   0.577690 0.868460 0.848050 -0.055741
N32   N     N_R   0.903470 0.421430 0.936420 -0.045308
Ni1   Ni    Ni4+2 1.000000 0.630300 0.000000 0.325618
Ni2   Ni    Ni4+2 0.500000 0.130300 0.000000 0.325620
Ni3   Ni    Ni4+2 1.000000 0.369700 0.000000 0.228800
Ni4   Ni    Ni4+2 0.500000 0.869700 0.000000 0.228803
Ni5   Ni    Ni4+2 0.988090 0.497570 0.863760 0.261745
Ni6   Ni    Ni4+2 0.011910 0.497570 0.136240 0.271286
Ni7   Ni    Ni4+2 0.488090 0.997570 0.863760 0.261741
Ni8   Ni    Ni4+2 0.511910 0.997570 0.136240 0.271297
O1    O     O_2   0.801205 0.776670 0.719199 -0.603370
O2    O     O_R   0.789627 0.606776 0.744715 -0.773454
O3    O     O_2   0.250464 0.680440 0.245892 -0.649839
O4    O     O_R   0.139757 0.750159 0.278374 -0.718149
O5    O     O_2   0.158682 0.109764 0.785000 -0.620713
O6    O     O_R   0.289534 0.106728 0.744791 -0.773466
O7    O     O_2   0.750490 0.180443 0.245852 -0.649880
O8    O     O_R   0.639702 0.250068 0.278422 -0.718158
O9    O     O_2   0.912245 0.734810 0.381594 -0.540610
O10   O     O_R   0.973104 0.673125 0.447515 -0.783013
O11   O     O_2   0.060000 0.820972 0.657575 -0.570561
O12   O     O_R   0.809992 0.829045 0.578550 -0.753360
O13   O     O_R   0.999150 0.835092 0.573429 -0.739782
O14   O     O_2   0.412272 0.234734 0.381625 -0.540618
O15   O     O_R   0.473050 0.173044 0.447651 -0.783061
O16   O     O_2   0.559987 0.321001 0.657540 -0.570580
O17   O     O_R   0.499122 0.335077 0.573405 -0.739818
O18   O     O_3   0.846104 0.144370 0.959050 -0.735787
O19   O     O_3   0.157916 0.143977 0.030774 -0.751395
O20   O     O_3   0.346095 0.644366 0.959077 -0.735804
O21   O     O_3   0.657919 0.643978 0.030767 -0.751395
O22   O     O_3   0.856164 0.757008 0.202311 -0.748627
O23   O     O_2   0.201673 0.893542 0.303412 -0.615391
O24   O     O_3   0.107826 0.768066 0.826823 -0.743886
O25   O     O_3   0.356170 0.257011 0.202310 -0.748641
O26   O     O_3   0.607799 0.268071 0.826845 -0.743901
O27   O     O_2   0.880654 0.410303 0.470016 -0.632828
O28   O     O_R   0.988602 0.481469 0.333059 -0.816071
O29   O     O_2   0.136828 0.425223 0.524849 -0.616605
O30   O     O_R   0.006214 0.467850 0.663284 -0.820947
O31   O     O_2   0.380679 0.910293 0.470002 -0.632839
O32   O     O_R   0.488609 0.981476 0.333048 -0.816073
O33   O     O_2   0.636834 0.925221 0.524845 -0.616587
O34   O     O_R   0.200967 0.908990 0.449433 -0.773947
O35   O     O_R   0.506218 0.967845 0.663277 -0.820959
O36   O     O_2   0.301154 0.276618 0.719263 -0.603401
O37   O     O_R   0.309995 0.328999 0.578578 -0.753373
O38   O     O_2   0.701639 0.393507 0.303377 -0.615417
O39   O     O_R   0.700957 0.408990 0.449376 -0.773939
O40   O     O_2   0.658761 0.609780 0.784963 -0.620731

loop_
_geom_bond_atom_site_label_1
_geom_bond_atom_site_label_2
_ccdc_geom_bond_type
C12   C69   A    
C13   C79   A    
C3    O16   D    
N25   Ni7   S    
C87   C91   A    
C26   H35   S    
C58   H5    S    
C4    O28   S    
C87   H29   S    
C86   H28   S    
H40   O2    S    
C97   O39   S    
C28   N23   A    
N8    N17   A    
N27   Ni2   S    
C54   C60   D    
C10   C67   A    
C47   H11   S    
C98   O2    S    
C63   C94   A    
C100  O6    S    
N32   Ni5   S    
C64   H15   S    
C5    O29   D    
N19   N29   A    
C93   O12   S    
C6    C82   S    
N1    N22   A    
N8    Ni7   S    
N18   N28   A    
C35   C37   A    
C95   O23   D    
C32   C61   S    
N2    Ni6   S    
C32   C38   A    
C51   H2    S    
C14   C36   A    
C43   C52   S    
C57   C59   D    
C14   C49   S    
C13   C70   A    
C101  O8    S    
C51   C103  S    
N14   Ni1   S    
C55   C62   D    
C29   C33   A    
C59   H6    S    
C5    C81   S    
C63   N32   A    
C55   O19   S    
C37   C42   S    
C18   C40   A    
C24   C29   A    
C96   O36   D    
C55   C91   S    
C11   C77   A    
C18   C53   S    
C8    C58   S    
C9    C66   A    
C10   C76   A    
C44   C53   S    
H36   O12   S    
C54   O18   S    
H57   O26   S    
C88   C92   A    
C52   H3    S    
C56   C58   D    
N9    N32   A    
C12   C78   A    
H60   O32   S    
N6    Ni5   S    
N9    Ni3   S    
C47   N30   A    
N29   Ni3   S    
N5    Ni6   S    
H61   O35   S    
N23   Ni2   S    
C23   C27   A    
C3    O17   S    
C104  O15   S    
C34   C36   A    
C102  O9    D    
C75   H26   S    
C42   C51   S    
H41   O4    S    
H58   O28   S    
N21   N31   A    
C45   N28   A    
C56   C90   S    
N26   N27   A    
C39   H34   S    
C26   C31   A    
C27   H45   S    
N10   Ni3   S    
H55   O25   S    
N3    N11   A    
C36   C41   S    
N7    Ni8   S    
C73   H24   S    
C76   N14   A    
H52   O21   S    
C68   H19   S    
C104  O14   D    
C2    C64   A    
H53   O22   S    
C29   H56   S    
C99   O4    S    
C15   C20   A    
C11   C20   S    
C41   C93   S    
C100  O5    D    
C33   C40   A    
N16   Ni2   S    
C5    O30   S    
C30   C34   A    
C46   C61   A    
C42   C95   S    
N15   Ni1   S    
C88   N26   A    
H49   O18   S    
N4    Ni8   S    
C43   C100  S    
C87   N25   A    
C49   H64   S    
C16   C52   S    
H43   O8    S    
N12   N24   A    
H54   O24   S    
C49   C102  S    
C71   C94   A    
C63   H14   S    
C56   O20   S    
C46   N29   A    
C99   O3    D    
C48   N31   A    
C69   H20   S    
C16   C38   A    
C33   C50   S    
C39   N27   A    
C12   C21   S    
C101  O7    D    
C82   N20   A    
C9    C59   S    
N17   Ni2   S    
C25   H33   S    
N23   N25   A    
C54   C92   S    
C57   O21   S    
C44   C97   S    
N22   Ni5   S    
C8    C65   A    
C15   C51   S    
N20   N30   A    
C10   C19   S    
H38   O37   S    
N19   Ni5   S    
C8    C74   A    
C43   C96   S    
C66   H17   S    
C84   N21   A    
C71   H22   S    
N21   Ni7   S    
N28   Ni3   S    
C7    O35   S    
C2    C73   A    
C30   H62   S    
C98   O40   D    
H42   O6    S    
H59   O30   S    
C57   C89   S    
H44   O10   S    
C73   N10   A    
C17   N12   A    
C65   N3    A    
C35   C72   S    
N12   Ni1   S    
C85   C89   A    
C21   C23   A    
N30   Ni4   S    
N31   Ni4   S    
C4    O27   D    
C22   C24   A    
C83   C84   A    
N13   Ni4   S    
C34   C83   S    
N3    Ni7   S    
C75   N13   A    
C67   H18   S    
C39   C92   A    
C97   O38   D    
C11   C68   A    
C70   H21   S    
C76   O22   S    
C66   N4    A    
C25   C30   A    
C52   C104  S    
C77   O24   S    
C1    C89   A    
C79   N17   A    
C27   C32   A    
C18   C22   A    
N24   Ni6   S    
C14   C19   A    
C17   C90   A    
C74   N11   A    
C46   H10   S    
C31   H63   S    
C20   C26   A    
H51   O20   S    
C50   C80   A    
N6    N15   A    
N5    N14   A    
C44   C101  S    
C28   H23   S    
C16   C21   A    
C4    C80   S    
C48   H13   S    
C41   C49   S    
N26   Ni8   S    
C6    O31   D    
C86   N24   A    
H37   O34   S    
C48   C83   A    
C23   H31   S    
H50   O19   S    
C69   N7    A    
C71   N9    A    
C68   N6    A    
C96   O37   S    
C85   N22   A    
C88   H30   S    
C38   C43   S    
C60   H7    S    
C15   C37   A    
C42   C99   S    
C103  O13   S    
C93   O1    D    
C3    C53   S    
C53   H4    S    
C24   H32   S    
C6    O32   S    
C45   C50   A    
C67   N5    A    
C78   O25   S    
N18   Ni6   S    
C31   C35   A    
C1    N1    A    
C86   C90   A    
H46   O13   S    
C65   H16   S    
H47   O15   S    
C13   C22   S    
C7    C84   S    
C28   C91   A    
C78   N16   A    
C64   N2    A    
C19   C25   A    
C72   C82   A    
C47   C72   A    
C102  O10   S    
C95   O34   S    
N1    Ni1   S    
H48   O17   S    
N20   Ni8   S    
C45   H9    S    
C40   C44   S    
H39   O39   S    
C62   H8    S    
N11   Ni4   S    
C79   O26   S    
C74   H25   S    
C103  O11   D    
C2    C62   S    
C80   N18   A    
C41   C98   S    
C61   C81   A    
C9    C75   A    
N4    N13   A    
C70   N8    A    
C7    O33   D    
C81   N19   A    
C85   H27   S    
C77   N15   A    
C17   H12   S    
C1    H1    S    
N7    N16   A    
N2    N10   A    
C60   C94   S    
