data_mof_unit_37563.cif
_audit_creation_date              2012-12-10T17:31:57-0500
_audit_creation_method            fapswitch 2.2
_symmetry_space_group_name_H-M    P1
_symmetry_Int_Tables_number       1
_space_group_crystal_system       triclinic
_cell_length_a                    12.144827
_cell_length_b                    11.49174
_cell_length_c                    12.780063
_cell_angle_alpha                 91.351455
_cell_angle_beta                  96.300981
_cell_angle_gamma                 88.138535
_cell_volume                      1771.58165592

loop_
_atom_site_label
_atom_site_type_symbol
_atom_type_description
_atom_site_fract_x
_atom_site_fract_y
_atom_site_fract_z
_atom_type_partial_charge
C1    C     C_R   0.475189 0.498787 0.299557 0.907231
C2    C     C_R   0.979383 0.540879 0.535344 -0.043160
C3    C     C_R   0.498481 0.282506 0.499835 0.893136
C4    C     C_R   0.501519 0.717493 0.500165 0.893131
C5    C     C_1   0.496137 0.161965 0.500057 -0.205899
C6    C     C_1   0.503863 0.838035 0.499943 -0.205899
C7    C     C_1   0.497993 0.059478 0.500050 -0.010128
C8    C     C_1   0.502007 0.940522 0.499951 -0.010128
C9    C     C_R   0.545258 0.502378 0.813947 -0.123817
C10   C     C_R   0.454741 0.497627 0.186053 -0.123819
C11   C     C_R   0.383765 0.402887 0.022854 0.241846
C12   C     C_R   0.524810 0.501213 0.700443 0.907231
C13   C     C_R   0.616232 0.597122 0.977144 0.241843
C14   C     C_R   0.383902 0.416076 0.132230 0.082968
C15   C     C_R   0.616090 0.583936 0.867767 0.082967
C16   C     C_R   0.516572 0.572049 0.132210 0.113627
C17   C     C_R   0.483432 0.427954 0.867792 0.113627
C18   C     C_R   0.533392 0.543308 0.027515 -0.032541
C19   C     C_R   0.466610 0.456697 0.972485 -0.032538
C20   C     C_3   0.444348 0.314746 0.813935 -0.821579
C21   C     C_3   0.555661 0.685253 0.186070 -0.821572
C22   C     C_3   0.691051 0.654069 0.808112 -0.906666
C23   C     C_R   0.056195 0.602018 0.606952 0.081165
C24   C     C_3   0.308931 0.345954 0.191882 -0.906688
C25   C     C_3   0.195683 0.411123 0.937756 -0.782613
C26   C     C_3   0.804324 0.588899 0.062222 -0.782607
C27   C     C_3   0.817459 0.680764 0.550866 -0.809339
C28   C     C_3   0.182540 0.319235 0.449136 -0.809335
C29   C     C_3   0.766230 0.202004 0.386378 -0.747654
C30   C     C_3   0.233771 0.797996 0.613622 -0.747647
C31   C     C_3   0.024423 0.650859 0.711123 -0.936570
C32   C     C_3   0.975578 0.349141 0.288878 -0.936571
C33   C     C_R   0.943805 0.397983 0.393048 0.081164
C34   C     C_R   0.168812 0.601706 0.587341 0.308940
C35   C     C_R   0.831188 0.398294 0.412659 0.308942
C36   C     C_R   0.137343 0.439785 0.470507 0.216846
C37   C     C_R   0.862657 0.560215 0.529493 0.216847
C38   C     C_R   0.020617 0.459122 0.464656 -0.043160
H1    H     H_    0.497018 0.286716 0.751601 0.208761
H2    H     H_    0.359569 0.297780 0.255378 0.229407
H3    H     H_    0.248301 0.406199 0.225567 0.255035
H4    H     H_    0.260564 0.280375 0.143806 0.235501
H5    H     H_    0.286264 0.258053 0.981945 0.221509
H6    H     H_    0.137216 0.361007 0.882464 0.236094
H7    H     H_    0.213344 0.493250 0.899419 0.241946
H8    H     H_    0.156193 0.431834 0.010626 0.247084
H9    H     H_    0.713722 0.741963 0.018055 0.221507
H10   H     H_    0.862791 0.639016 0.117512 0.236092
H11   H     H_    0.843807 0.568203 0.989345 0.247084
H12   H     H_    0.451922 0.242633 0.870829 0.227846
H13   H     H_    0.786678 0.506764 0.100553 0.241947
H14   H     H_    0.762168 0.679877 0.613568 0.254237
H15   H     H_    0.882238 0.745052 0.572681 0.221901
H16   H     H_    0.774164 0.714814 0.476487 0.246915
H17   H     H_    0.237830 0.320119 0.386432 0.254234
H18   H     H_    0.225837 0.285188 0.523515 0.246915
H19   H     H_    0.117760 0.254947 0.427325 0.221900
H20   H     H_    0.748362 0.331987 0.274717 0.216154
H21   H     H_    0.694080 0.153738 0.348811 0.234113
H22   H     H_    0.768386 0.195431 0.473201 0.251496
H23   H     H_    0.357625 0.325391 0.776963 0.266207
H24   H     H_    0.842818 0.160225 0.361269 0.215050
H25   H     H_    0.251639 0.668013 0.725283 0.216152
H26   H     H_    0.305921 0.846262 0.651188 0.234112
H27   H     H_    0.157184 0.839775 0.638731 0.215049
H28   H     H_    0.231614 0.804569 0.526799 0.251495
H29   H     H_    0.083599 0.617659 0.776727 0.230830
H30   H     H_    0.024315 0.747255 0.713102 0.243579
H31   H     H_    0.942059 0.621926 0.727694 0.256374
H32   H     H_    0.916403 0.382342 0.223273 0.230830
H33   H     H_    0.057943 0.378073 0.272306 0.256376
H34   H     H_    0.502998 0.713279 0.248410 0.208762
H35   H     H_    0.975685 0.252745 0.286899 0.243580
H36   H     H_    0.642386 0.674606 0.223033 0.266206
H37   H     H_    0.548080 0.757369 0.129180 0.227842
H38   H     H_    0.640407 0.702225 0.744608 0.229405
H39   H     H_    0.739401 0.719666 0.856184 0.235496
H40   H     H_    0.751696 0.593830 0.774437 0.255025
N1    N     N_R   0.792200 0.479100 0.480660 -0.133332
N2    N     N_R   0.207800 0.520900 0.519340 -0.133332
N3    N     N_2   0.297014 0.342940 0.962040 -0.302796
N4    N     N_2   0.702984 0.657072 0.037955 -0.302796
N5    N     N_2   0.755273 0.322543 0.355177 -0.248262
N6    N     N_2   0.244727 0.677457 0.644823 -0.248262
O1    O     O_R   0.578300 0.494420 0.341180 -0.598747
O2    O     O_R   0.421700 0.505580 0.658820 -0.598749
O3    O     O_R   0.390690 0.507830 0.353590 -0.613724
O4    O     O_R   0.609310 0.492170 0.646410 -0.613723
O5    O     O_R   0.593810 0.327740 0.493800 -0.583900
O6    O     O_R   0.406190 0.672260 0.506200 -0.583899
O7    O     O_R   0.406190 0.341150 0.506220 -0.626063
O8    O     O_R   0.593810 0.658850 0.493780 -0.626064
Zn1   Zn    Zn3+2 0.625270 0.491050 0.491710 0.941012
Zn2   Zn    Zn3+2 0.374730 0.508950 0.508290 0.941011

loop_
_geom_bond_atom_site_label_1
_geom_bond_atom_site_label_2
_ccdc_geom_bond_type
C1    O3    A    
C16   C21   S    
C30   H26   S    
C24   H4    S    
C22   H38   S    
C28   H18   S    
C27   H16   S    
C7    C8    S    
C28   H19   S    
C11   N3    S    
C31   H29   S    
C37   N1    A    
C11   C19   A    
C13   C18   A    
C29   N5    S    
C33   C35   A    
C11   C14   A    
O3    Zn2   S    
C17   C20   S    
C3    O7    A    
C18   C19   A    
H9    N4    S    
C14   C24   S    
C20   H23   S    
C20   H12   S    
O2    Zn2   S    
C24   H2    S    
C29   H24   S    
O1    Zn1   S    
C15   C22   S    
C29   H21   S    
C26   H10   S    
C34   N2    A    
C26   N4    S    
C25   N3    S    
C24   H3    S    
C34   N6    S    
C25   H6    S    
C28   H17   S    
O6    Zn2   S    
C32   H33   S    
C4    O6    A    
C1    O1    A    
C31   H30   S    
C12   O4    A    
C21   H34   S    
C22   H40   S    
C4    C6    S    
C36   N2    A    
C26   H11   S    
C32   H35   S    
C5    C7    T    
C20   H1    S    
C35   N5    S    
C32   H32   S    
C13   N4    S    
O5    Zn1   S    
C23   C31   S    
C2    C38   A    
C29   H22   S    
C23   C34   A    
C30   H28   S    
C9    C17   A    
C13   C15   A    
C10   C14   A    
H5    N3    S    
N2    Zn2   S    
C25   H7    S    
C27   H14   S    
O4    Zn1   S    
C1    C10   S    
C22   H39   S    
C3    C5    S    
C6    C8    T    
C27   H15   S    
N1    Zn1   S    
C21   H37   S    
C33   C38   A    
C12   O2    A    
H25   N6    S    
C3    O5    A    
C32   C33   S    
C36   C38   A    
C9    C15   A    
C10   C16   A    
C26   H13   S    
O7    Zn2   S    
C2    C37   A    
C27   C37   S    
C21   H36   S    
C35   N1    A    
O8    Zn1   S    
C17   C19   A    
C30   N6    S    
C9    C12   S    
C30   H27   S    
C31   H31   S    
C28   C36   S    
C16   C18   A    
C2    C23   A    
H20   N5    S    
C25   H8    S    
C4    O8    A    
