data_mof_unit_45795.cif
_audit_creation_date              2013-03-05T16:04:52-0500
_audit_creation_method            fapswitch 2.2
_symmetry_space_group_name_H-M    P1
_symmetry_Int_Tables_number       1
_space_group_crystal_system       triclinic
_cell_length_a                    15.446674
_cell_length_b                    15.269865
_cell_length_c                    9.50651
_cell_angle_alpha                 90.387019
_cell_angle_beta                  90.35944
_cell_angle_gamma                 89.339755
_cell_volume                      2242.04439383

loop_
_atom_site_label
_atom_site_type_symbol
_atom_site_description
_atom_site_fract_x
_atom_site_fract_y
_atom_site_fract_z
_atom_type_partial_charge
O1    O     O_R   0.090170 0.409820 0.618740 -0.575094
O2    O     O_R   0.909830 0.590180 0.381260 -0.575006
O3    O     O_R   0.909830 0.590180 0.618740 -0.567919
O4    O     O_R   0.090170 0.409820 0.381260 -0.567901
O5    O     O_R   0.909830 0.409820 0.381260 -0.543858
O6    O     O_R   0.090170 0.590180 0.618740 -0.543830
O7    O     O_R   0.090170 0.590180 0.381260 -0.569824
O8    O     O_R   0.909830 0.409820 0.618740 -0.569803
O9    O     O_R   0.590170 0.909820 0.618740 -0.575044
O10   O     O_R   0.409830 0.090180 0.381260 -0.575079
O11   O     O_R   0.409830 0.090180 0.618740 -0.567893
O12   O     O_R   0.590170 0.909820 0.381260 -0.567926
O13   O     O_R   0.409830 0.909820 0.381260 -0.543821
O14   O     O_R   0.590170 0.090180 0.618740 -0.543859
O15   O     O_R   0.590170 0.090180 0.381260 -0.569811
O16   O     O_R   0.409830 0.909820 0.618740 -0.569820
C1    C     C_R   0.118566 0.380941 0.500095 0.934839
C2    C     C_R   0.881435 0.619060 0.499903 0.934714
C3    C     C_R   0.878967 0.383188 0.499059 0.937816
C4    C     C_R   0.121031 0.616815 0.500940 0.938019
C5    C     C_R   0.618564 0.880939 0.500097 0.934805
C6    C     C_R   0.381434 0.119059 0.499904 0.934792
C7    C     C_R   0.378968 0.883187 0.499060 0.938020
C8    C     C_R   0.621031 0.116814 0.500940 0.937857
H1    H     H_    0.008528 0.361737 0.129262 0.190495
H2    H     H_    0.991468 0.638263 0.870738 0.190445
H3    H     H_    0.991806 0.638379 0.132034 0.160729
H4    H     H_    0.008193 0.361621 0.867966 0.160733
H5    H     H_    0.508538 0.861736 0.129262 0.190411
H6    H     H_    0.491474 0.138262 0.870739 0.190517
H7    H     H_    0.491806 0.138379 0.132034 0.160735
H8    H     H_    0.508197 0.861621 0.867966 0.160722
N1    N     N_R   1.000000 0.500000 0.852070 -0.203221
N2    N     N_R   1.000000 0.500000 0.147930 -0.203212
N3    N     N_R   0.500000 1.000000 0.852070 -0.203219
N4    N     N_R   0.500000 0.000000 0.147930 -0.203213
Cu1   Cu    Cu3+1 0.000000 0.500000 0.640660 1.101120
Cu2   Cu    Cu3+1 1.000000 0.500000 0.359340 1.101166
Cu3   Cu    Cu3+1 0.500000 1.000000 0.640660 1.101156
Cu4   Cu    Cu3+1 0.500000 1.000000 0.359340 1.101126
C9    C     C_R   0.004721 0.423187 0.073670 0.097428
C10   C     C_R   0.995277 0.576813 0.926330 0.097397
C11   C     C_R   0.995376 0.576838 0.075232 0.090001
C12   C     C_R   0.004623 0.423162 0.924768 0.089879
C13   C     C_R   0.504725 0.923187 0.073670 0.097379
C14   C     C_R   0.495279 0.076813 0.926330 0.097441
C15   C     C_R   0.495377 0.076838 0.075232 0.089912
C16   C     C_R   0.504625 0.923162 0.924768 0.089939
C17   C     C_R   0.793726 0.268032 0.374099 0.266418
C18   C     C_R   0.206279 0.731963 0.625904 0.266429
C19   C     C_R   0.236396 0.698428 0.378611 0.227136
C20   C     C_R   0.763592 0.301585 0.621380 0.227166
C21   C     C_R   0.260187 0.326201 0.582740 0.230922
C22   C     C_R   0.739816 0.673799 0.417269 0.230997
C23   C     C_R   0.825728 0.762496 0.581462 0.222612
C24   C     C_R   0.174282 0.237518 0.418514 0.222618
C25   C     C_R   0.293718 0.768040 0.374095 0.266432
C26   C     C_R   0.706270 0.231972 0.625899 0.266416
C27   C     C_R   0.736405 0.198419 0.378619 0.227168
C28   C     C_R   0.263601 0.801575 0.621387 0.227133
C29   C     C_R   0.760186 0.826203 0.582728 0.230952
C30   C     C_R   0.239814 0.173801 0.417256 0.230948
C31   C     C_R   0.325717 0.262482 0.581486 0.222657
C32   C     C_R   0.674271 0.737503 0.418539 0.222557
C33   C     C_R   0.190246 0.681655 0.503091 -0.311773
C34   C     C_R   0.809750 0.318349 0.496906 -0.311818
C35   C     C_R   0.814828 0.686355 0.499258 -0.324385
C36   C     C_R   0.185181 0.313654 0.500730 -0.324391
C37   C     C_R   0.690247 0.181654 0.503093 -0.311798
C38   C     C_R   0.309751 0.818348 0.496908 -0.311781
C39   C     C_R   0.314820 0.186346 0.499269 -0.324389
C40   C     C_R   0.685172 0.813646 0.500741 -0.324389
N5    N     N_R   0.835118 0.286709 0.243168 0.170589
O17   O     O_R   0.807430 0.352480 0.168386 -0.231156
O18   O     O_R   0.887331 0.229265 0.186538 -0.222554
N6    N     N_R   0.164895 0.713278 0.756839 0.170602
O19   O     O_R   0.192587 0.647504 0.831608 -0.231155
O20   O     O_R   0.112682 0.770718 0.813482 -0.222579
N7    N     N_R   0.227017 0.643879 0.255960 0.180631
O21   O     O_R   0.251380 0.562058 0.259669 -0.255383
O22   O     O_R   0.197710 0.676831 0.138922 -0.228196
N8    N     N_R   0.772962 0.356145 0.744021 0.180636
O23   O     O_R   0.748608 0.437968 0.740283 -0.255425
O24   O     O_R   0.802255 0.323202 0.861074 -0.228160
N9    N     N_R   0.272551 0.406526 0.658869 0.178618
O25   O     O_R   0.284800 0.478963 0.590932 -0.300060
O26   O     O_R   0.260442 0.409219 0.794127 -0.236491
N10   N     N_R   0.727460 0.593473 0.341147 0.178653
O27   O     O_R   0.714871 0.521100 0.409099 -0.299683
O28   O     O_R   0.740024 0.590681 0.205978 -0.236862
N11   N     N_R   0.905753 0.778055 0.654804 0.161082
O29   O     O_R   0.905905 0.797960 0.788068 -0.243171
O30   O     O_R   0.978704 0.774617 0.587220 -0.337424
N12   N     N_R   0.094257 0.221966 0.345172 0.161105
O31   O     O_R   0.094094 0.202220 0.211843 -0.243312
O32   O     O_R   0.021312 0.225322 0.412788 -0.337339
N13   N     N_R   0.335101 0.786726 0.243159 0.170610
O33   O     O_R   0.307408 0.852503 0.168393 -0.231143
O34   O     O_R   0.387312 0.729288 0.186511 -0.222590
N14   N     N_R   0.664878 0.213295 0.756830 0.170585
O35   O     O_R   0.692566 0.147526 0.831614 -0.231168
O36   O     O_R   0.612665 0.270740 0.813460 -0.222546
N15   N     N_R   0.727035 0.143859 0.255977 0.180634
O37   O     O_R   0.751391 0.062038 0.259712 -0.255414
O38   O     O_R   0.697739 0.176802 0.138926 -0.228173
N16   N     N_R   0.272980 0.856125 0.744039 0.180632
O39   O     O_R   0.248619 0.937946 0.740327 -0.255385
O40   O     O_R   0.302285 0.823173 0.861077 -0.228185
N17   N     N_R   0.772546 0.906532 0.658842 0.178637
O41   O     O_R   0.785017 0.978923 0.590890 -0.299810
O42   O     O_R   0.760158 0.909298 0.794036 -0.236734
N18   N     N_R   0.227453 0.093478 0.341123 0.178630
O43   O     O_R   0.215160 0.021046 0.409064 -0.300014
O44   O     O_R   0.239645 0.090775 0.205870 -0.236547
N19   N     N_R   0.405741 0.278032 0.654831 0.161150
O45   O     O_R   0.405907 0.297697 0.788178 -0.243393
O46   O     O_R   0.478683 0.274702 0.587214 -0.337314
N20   N     N_R   0.594247 0.721942 0.345191 0.161028
O47   O     O_R   0.594109 0.701912 0.211963 -0.243063
O48   O     O_R   0.521289 0.725429 0.412754 -0.337472

loop_
_geom_bond_atom_site_label_1
_geom_bond_atom_site_label_2
_geom_bond_distance
_ccdc_geom_bond_type
O2    C2    1.286079 A    
N5    O18   1.300956 A    
N5    O17   1.301111 A    
C29   N17   1.433971 S    
N18   O44   1.300981 A    
N13   O33   1.301112 A    
C28   N16   1.435924 S    
N9    O25   1.300915 A    
O10   C6    1.286091 A    
C24   N12   1.436739 S    
N16   O40   1.300780 A    
N4    C15   1.366661 A    
N1    C10   1.366356 A    
N6    O20   1.300957 A    
N17   O42   1.300902 A    
O3    C2    1.288095 A    
N16   O39   1.301317 A    
N19   O45   1.300758 A    
O9    Cu3   1.958362 S    
C32   N20   1.436782 S    
O13   C7    1.289988 A    
C3    C34   1.465489 S    
O10   Cu4   1.958362 S    
C19   C33   1.411739 A    
O14   C8    1.289984 A    
C21   C36   1.406646 A    
N20   O47   1.300920 A    
O13   Cu4   1.982761 S    
C23   N11   1.436765 S    
O14   Cu3   1.982759 S    
N19   O46   1.300999 A    
C19   C25   1.392310 A    
C25   C38   1.415350 A    
O1    Cu1   1.958362 S    
N12   O32   1.301031 A    
C31   N19   1.436728 S    
H7    C15   1.081687 S    
O5    Cu2   1.982761 S    
C20   N8    1.435924 S    
H8    C16   1.081687 S    
C7    C38   1.465489 S    
N2    C9    1.366354 A    
N3    C16   1.366666 A    
N18   O43   1.300975 A    
N13   O34   1.300957 A    
C8    C37   1.465491 S    
N20   O48   1.301020 A    
N9    O26   1.300830 A    
O8    C3    1.295580 A    
C17   C34   1.415350 A    
C5    C40   1.445734 S    
C4    C33   1.465490 S    
N4    Cu4   2.009772 S    
C26   N14   1.434706 S    
N6    O19   1.301110 A    
H1    C9    1.080859 S    
N11   O29   1.300819 A    
N7    O22   1.300779 A    
C22   C35   1.406627 A    
C2    C35   1.445734 S    
C24   C36   1.407626 A    
O12   C5    1.288094 A    
H4    C12   1.081687 S    
N1    Cu1   2.009771 S    
H5    C13   1.080874 S    
O12   Cu4   1.958482 S    
N3    Cu3   2.009771 S    
Cu1   Cu2   2.674371 S    
C18   N6    1.434708 S    
N11   O30   1.301012 A    
O2    Cu2   1.958362 S    
C28   C38   1.411739 A    
C25   N13   1.434710 S    
N14   O36   1.300957 A    
O6    Cu1   1.982759 S    
N4    C13   1.366359 A    
N15   O38   1.300779 A    
O11   Cu3   1.958482 S    
C20   C26   1.392314 A    
C27   C37   1.411734 A    
O4    C1    1.288082 A    
C29   C40   1.406644 A    
O15   C8    1.295578 A    
N10   O28   1.301101 A    
O7    C4    1.295573 A    
O16   C7    1.295574 A    
N8    O24   1.300778 A    
C9    C12   1.415528 A    
C24   C30   1.395973 A    
C10   C11   1.415529 A    
C6    C39   1.445735 S    
Cu3   Cu4   2.674371 S    
C20   C34   1.411734 A    
H2    C10   1.080864 S    
C13   C16   1.415531 A    
C14   C15   1.415526 A    
C1    C36   1.445732 S    
N2    Cu2   2.009772 S    
N1    C12   1.366664 A    
H6    C14   1.080853 S    
N2    C11   1.366664 A    
C31   C39   1.407619 A    
C23   C35   1.407627 A    
C26   C37   1.415351 A    
O5    C3    1.289984 A    
O6    C4    1.289989 A    
O11   C6    1.288084 A    
O1    C1    1.286091 A    
C17   C27   1.392313 A    
C18   C28   1.392310 A    
C27   N15   1.435924 S    
N17   O41   1.300938 A    
C22   N10   1.433951 S    
C21   C31   1.395970 A    
O9    C5    1.286079 A    
C22   C32   1.395970 A    
C23   C29   1.395977 A    
N14   O35   1.301109 A    
O7    Cu2   1.978964 S    
C30   C39   1.406641 A    
C17   N5    1.434707 S    
C32   C40   1.407640 A    
N12   O31   1.300878 A    
C18   C33   1.415350 A    
C19   N7    1.435924 S    
O15   Cu4   1.978964 S    
O16   Cu3   1.978966 S    
N7    O21   1.301317 A    
H3    C11   1.081687 S    
C30   N18   1.433988 S    
N10   O27   1.301011 A    
O3    Cu1   1.958482 S    
N8    O23   1.301317 A    
O8    Cu1   1.978966 S    
N15   O37   1.301317 A    
C21   N9    1.433998 S    
O4    Cu2   1.958482 S    
N3    C14   1.366351 A    
