data_mof_unit_18770.cif
_audit_creation_date              2012-12-10T19:06:28-0500
_audit_creation_method            fapswitch 2.2
_symmetry_space_group_name_H-M    P1
_symmetry_Int_Tables_number       1
_space_group_crystal_system       triclinic
_cell_length_a                    23.490171
_cell_length_b                    10.825423
_cell_length_c                    9.553065
_cell_angle_alpha                 89.848213
_cell_angle_beta                  90.000152
_cell_angle_gamma                 90.877035
_cell_volume                      2428.96569136

loop_
_atom_site_label
_atom_site_type_symbol
_atom_type_description
_atom_site_fract_x
_atom_site_fract_y
_atom_site_fract_z
_atom_type_partial_charge
C1    C     C_R   0.500997 0.262424 0.500032 0.776441
C2    C     C_R   0.969965 0.249119 0.519514 -0.166025
C3    C     C_R   0.029396 0.251339 0.520093 -0.163254
C4    C     C_R   0.059679 0.363552 0.504898 -0.017102
C5    C     C_R   0.029607 0.474235 0.488522 -0.018242
C6    C     C_R   0.059479 0.587124 0.472272 -0.014331
C7    C     C_R   0.029106 0.697119 0.456558 -0.163788
C8    C     C_R   0.969730 0.695187 0.457970 -0.167950
C9    C     C_R   0.119440 0.368293 0.506807 0.540960
C10   C     C_R   0.119171 0.587100 0.472501 0.537749
C11   C     C_R   0.237344 0.551573 0.598351 -0.204230
C12   C     C_R   0.391027 0.499693 0.499908 0.829944
C13   C     C_R   0.296934 0.563158 0.597581 0.428573
C14   C     C_R   0.328490 0.495947 0.498947 -0.130791
C15   C     C_R   0.299942 0.426285 0.396178 -0.299278
C16   C     C_R   0.240650 0.420350 0.393649 -0.101108
C17   C     C_R   0.209074 0.482402 0.495151 0.294150
C18   C     C_R   0.759607 0.435512 0.375459 -0.188978
C19   C     C_R   0.700068 0.434286 0.377591 0.444827
C20   C     C_R   0.671204 0.476282 0.498671 -0.167391
C21   C     C_R   0.702877 0.501578 0.620162 -0.315503
C22   C     C_R   0.762060 0.497691 0.618386 -0.124732
C23   C     C_R   0.501074 0.737714 0.499846 0.784365
C24   C     C_R   0.790529 0.467200 0.495303 0.298332
C25   C     C_R   0.508699 0.063777 0.624926 0.129654
C26   C     C_R   0.506730 0.129671 0.499516 -0.093630
C27   C     C_R   0.512846 0.065291 0.372800 -0.249942
C28   C     C_R   0.512435 0.936478 0.372762 -0.190139
C29   C     C_R   0.506108 0.871131 0.499387 -0.123067
C30   C     C_R   0.508025 0.936910 0.624850 0.120046
C31   C     C_3   0.471479 0.929681 0.752728 -0.423194
C32   C     C_3   0.472177 0.070073 0.752549 -0.492459
C33   C     C_R   0.524857 0.595169 0.073746 0.188503
C34   C     C_R   0.608919 0.493302 0.499749 0.775867
C35   C     C_R   0.470962 0.412099 0.074600 -0.088966
C36   C     C_R   0.471106 0.411849 0.925807 -0.059178
C37   C     C_R   0.523940 0.597091 0.926361 0.165610
C38   C     C_3   0.584407 0.643568 0.919930 0.165359
C39   C     C_3   0.585797 0.634180 0.080005 0.184723
C40   C     C_R   0.879825 0.579007 0.476878 0.538715
C41   C     C_R   0.879826 0.359537 0.505169 0.539167
C42   C     C_R   0.939573 0.359138 0.504434 -0.016732
C43   C     C_R   0.969513 0.472131 0.488900 -0.018897
C44   C     C_R   0.939501 0.583135 0.474319 -0.015460
Cu1   Cu    Cu3+1 0.500000 0.499980 0.640670 0.962419
Cu2   Cu    Cu3+1 0.500000 0.500020 0.359330 0.958938
H1    H     H_    0.947959 0.161076 0.531571 0.185995
H2    H     H_    0.682138 0.527356 0.716025 0.173199
H3    H     H_    0.785896 0.520587 0.712056 0.151644
H4    H     H_    0.515056 0.113624 0.273479 0.161557
H5    H     H_    0.514174 0.888874 0.273425 0.213469
H6    H     H_    0.428830 0.888440 0.732388 0.199742
H7    H     H_    0.494041 0.890038 0.844081 0.244162
H8    H     H_    0.429884 0.110815 0.731271 0.193248
H9    H     H_    0.495489 0.110479 0.843211 0.198803
H10   H     H_    0.448256 0.339632 0.130464 0.142170
H11   H     H_    0.051486 0.164914 0.532611 0.187335
H12   H     H_    0.448539 0.339216 0.870373 0.141486
H13   H     H_    0.613660 0.577469 0.869448 0.049766
H14   H     H_    0.613245 0.559527 0.121269 0.119685
H15   H     H_    0.051084 0.785128 0.443891 0.187931
H16   H     H_    0.947643 0.781712 0.446300 0.186348
H17   H     H_    0.212780 0.598409 0.677494 0.151916
H18   H     H_    0.323604 0.375864 0.318152 0.173423
H19   H     H_    0.219195 0.367545 0.312689 0.161911
H20   H     H_    0.781902 0.409086 0.281198 0.148985
N1    N     N_R   0.851435 0.468449 0.492057 -0.455545
N2    N     N_R   0.147913 0.478947 0.490958 -0.454305
N3    N     N_R   0.500360 0.500930 0.147930 -0.209274
N4    N     N_R   0.500360 0.500890 0.852020 -0.205719
O1    O     O_R   0.500000 0.319640 0.618810 -0.584149
O2    O     O_2   0.850308 0.252355 0.519747 -0.550905
O3    O     O_2   0.148835 0.263483 0.526078 -0.541558
O4    O     O_2   0.148319 0.694267 0.453567 -0.549464
O5    O     O_R   0.500010 0.319680 0.381230 -0.604069
O6    O     O_R   0.417880 0.499940 0.618820 -0.533128
O7    O     O_R   0.417880 0.499980 0.381240 -0.585104
O8    O     O_R   0.499990 0.680320 0.618770 -0.565200
O9    O     O_R   0.500000 0.680360 0.381190 -0.554398
O10   O     O_R   0.582120 0.500020 0.618760 -0.599220
O11   O     O_R   0.582120 0.500060 0.381180 -0.549680
O12   O     O_2   0.850327 0.684426 0.464192 -0.561755
O13   O     O_3   0.671594 0.394773 0.258608 -0.627564
C45   C     C_3   0.646650 0.276120 0.281124 0.106593
H21   H     H_    0.616307 0.259391 0.193760 0.134284
H22   H     H_    0.620314 0.271198 0.377826 0.135691
C46   C     C_3   0.690859 0.172469 0.278587 -0.404264
H23   H     H_    0.672634 0.091453 0.222025 0.184498
H24   H     H_    0.729635 0.203269 0.220868 0.239708
C47   C     C_3   0.706997 0.130297 0.426077 -0.807894
H25   H     H_    0.722488 0.208719 0.490699 0.278588
H26   H     H_    0.741528 0.061903 0.419971 0.267393
H27   H     H_    0.669523 0.086663 0.478467 0.226607
O14   O     O_3   0.587168 0.768429 0.874158 -0.582850
C48   C     C_3   0.623865 0.784500 0.757804 0.089413
H28   H     H_    0.612094 0.871710 0.704941 0.159854
H29   H     H_    0.618233 0.710571 0.678708 0.148670
C49   C     C_3   0.686276 0.797820 0.802896 -0.423903
H30   H     H_    0.690800 0.874610 0.878928 0.222625
H31   H     H_    0.700682 0.710966 0.852475 0.201044
C50   C     C_3   0.724676 0.826421 0.678376 -0.869770
H32   H     H_    0.720386 0.752193 0.599412 0.274531
H33   H     H_    0.769727 0.832117 0.713233 0.278947
H34   H     H_    0.713033 0.915967 0.630278 0.253574
O15   O     O_3   0.592362 0.748263 0.150466 -0.567697
C51   C     C_3   0.650189 0.787233 0.148477 0.138640
H35   H     H_    0.652174 0.881408 0.102351 0.153727
H36   H     H_    0.678276 0.727223 0.084759 0.119879
C52   C     C_3   0.674489 0.793908 0.296396 -0.409894
H37   H     H_    0.653199 0.868280 0.355816 0.221472
H38   H     H_    0.666617 0.704920 0.351344 0.229910
C53   C     C_3   0.738642 0.819831 0.290159 -0.854846
H39   H     H_    0.760782 0.739885 0.243433 0.274018
H40   H     H_    0.756010 0.835476 0.396277 0.287941
H41   H     H_    0.747866 0.903549 0.226085 0.246980
O16   O     O_3   0.324891 0.639422 0.692519 -0.600655
C54   C     C_3   0.311870 0.764920 0.666104 0.051261
H42   H     H_    0.329042 0.819874 0.754992 0.168958
H43   H     H_    0.265230 0.781353 0.664656 0.157490
C55   C     C_3   0.339568 0.812532 0.529906 -0.380048
H44   H     H_    0.385506 0.790741 0.530430 0.215109
H45   H     H_    0.319681 0.765833 0.438312 0.222938
C56   C     C_3   0.332615 0.951679 0.512865 -0.858663
H46   H     H_    0.286773 0.974551 0.505628 0.275427
H47   H     H_    0.354330 0.983182 0.415575 0.258166
H48   H     H_    0.351846 0.001656 0.602865 0.244832

loop_
_geom_bond_atom_site_label_1
_geom_bond_atom_site_label_2
_ccdc_geom_bond_type
C46   H23   S    
C50   H32   S    
Cu1   O1    S    
C10   O4    S    
C41   C42   A    
C48   H28   S    
C45   C46   S    
C31   H6    S    
C54   H43   S    
C53   H40   S    
C48   C49   S    
C7    C8    A    
C41   N1    A    
Cu1   Cu2   S    
C26   C27   A    
C1    O1    A    
C27   H4    S    
Cu1   O6    S    
C18   C24   A    
C23   C29   S    
C28   C29   A    
C37   C38   S    
C45   H22   S    
C36   H12   S    
C52   H38   S    
C30   C31   S    
C28   H5    S    
C56   H47   S    
C51   H35   S    
C15   C16   A    
O16   C54   S    
C18   C19   A    
C53   H39   S    
Cu2   N3    S    
C24   N1    S    
C34   O10   A    
C7    H15   S    
Cu2   O9    S    
C35   C36   A    
C36   N4    A    
C16   C17   A    
C40   N1    A    
C15   H18   S    
Cu1   O8    S    
C34   O11   A    
C32   H9    S    
C55   C56   S    
C33   N3    A    
C21   H2    S    
C20   C34   S    
C25   C32   S    
C5    C43   A    
C50   H33   S    
C21   C22   A    
C9    O3    S    
C19   O13   S    
C32   H8    S    
Cu2   O5    S    
C55   H45   S    
C38   C39   S    
O13   C45   S    
C1    O5    A    
C40   O12   S    
C56   H46   S    
C45   H21   S    
C52   C53   S    
C56   H48   S    
C25   C26   A    
C33   C37   A    
C43   C44   A    
C6    C10   A    
C29   C30   A    
Cu2   O11   S    
C47   H26   S    
C31   C32   S    
C12   O7    A    
C38   O14   S    
C33   C39   S    
C31   H7    S    
C22   H3    S    
C3    H11   S    
C12   C14   S    
C50   H34   S    
C49   H31   S    
C46   H24   S    
C1    C26   S    
C22   C24   A    
C54   C55   S    
C42   C43   A    
C3    C4    A    
C55   H44   S    
C47   H27   S    
C25   C30   A    
C39   O15   S    
C11   C17   A    
C17   N2    S    
Cu1   N4    S    
C8    C44   A    
C4    C5    A    
C35   H10   S    
Cu2   O7    S    
C48   H29   S    
C6    C7    A    
C10   N2    A    
C2    H1    S    
C18   H20   S    
C49   C50   S    
O15   C51   S    
C11   H17   S    
C37   N4    A    
C19   C20   A    
C12   O6    A    
C2    C3    A    
C9    N2    A    
C54   H42   S    
C11   C13   A    
C47   H25   S    
C5    C6    A    
C51   H36   S    
C2    C42   A    
C39   H14   S    
Cu1   O10   S    
C23   O8    A    
O14   C48   S    
C13   O16   S    
C38   H13   S    
C40   C44   A    
C20   C21   A    
C35   N3    A    
C49   H30   S    
C46   C47   S    
C52   H37   S    
C27   C28   A    
C14   C15   A    
C16   H19   S    
C23   O9    A    
C4    C9    A    
C13   C14   A    
C53   H41   S    
C41   O2    S    
C8    H16   S    
C51   C52   S    
