data_mof_unit_11665.cif
_audit_creation_date              2012-10-26T19:59:39-0400
_audit_creation_method            fapswitch 2.2
_symmetry_space_group_name_H-M    P1
_symmetry_Int_Tables_number       1
_space_group_crystal_system       triclinic
_cell_length_a                    10.738475
_cell_length_b                    8.678613
_cell_length_c                    7.503448
_cell_angle_alpha                 103.129369
_cell_angle_beta                  94.696586
_cell_angle_gamma                 93.019498
_cell_volume                      676.885684372

loop_
_atom_site_label
_atom_site_type_symbol
_atom_type_description
_atom_site_fract_x
_atom_site_fract_y
_atom_site_fract_z
_atom_type_partial_charge
C1    C     C_R   0.496040 0.199816 0.453156 0.539433
C2    C     C_R   0.503947 0.800179 0.546847 0.525320
C3    C     C_R   0.737333 0.506239 0.499470 0.534960
C4    C     C_R   0.154565 0.774890 0.729820 -0.087179
C5    C     C_R   0.100921 0.902662 0.836770 -0.113274
C6    C     C_R   0.971308 0.904315 0.833301 -0.115110
C7    C     C_R   0.894572 0.778246 0.722781 -0.103917
C8    C     C_R   0.946948 0.646253 0.615136 0.026865
C9    C     C_2   0.357827 0.368640 0.935079 0.483456
C10   C     C_R   0.078615 0.644524 0.618750 0.038737
C11   C     C_R   0.129880 0.514631 0.505642 0.022461
C12   C     C_R   0.053025 0.393630 0.386158 -0.128757
C13   C     C_R   0.924666 0.395263 0.382794 -0.144498
C14   C     C_R   0.871552 0.517953 0.498887 0.005482
C15   C     C_2   0.493928 0.031563 0.427234 -0.152154
C16   C     C_2   0.505895 0.968390 0.572821 -0.163354
C17   C     C_R   0.263089 0.504355 0.502145 0.533266
Cu1   Cu    Cu3+1 0.513920 0.517380 0.684380 0.954038
Cu2   Cu    Cu3+1 0.486080 0.482620 0.315620 0.987692
H1    H     H_    0.092849 0.295764 0.297344 0.135348
H2    H     H_    0.366209 0.261207 0.832344 0.073308
H3    H     H_    0.606539 0.611574 0.048192 0.227721
H4    H     H_    0.255467 0.781313 0.733059 0.140109
H5    H     H_    0.160171 0.001715 0.920940 0.121716
H6    H     H_    0.794430 0.787191 0.720049 0.131224
H7    H     H_    0.866413 0.298068 0.292727 0.125567
H8    H     H_    0.482567 0.959381 0.287225 0.136085
H9    H     H_    0.517360 0.040496 0.712832 0.120656
H10   H     H_    0.929994 0.004645 0.914814 0.118191
N1    N     N_2   0.465100 0.456430 0.038520 -0.161008
N2    N     N_2   0.534900 0.543570 0.961480 -0.265288
O1    O     O_R   0.509050 0.286130 0.619770 -0.525265
O2    O     O_R   0.485540 0.256780 0.308360 -0.511628
O3    O     O_R   0.331410 0.514680 0.655740 -0.499190
O4    O     O_R   0.307900 0.485330 0.344330 -0.460442
O5    O     O_R   0.514460 0.743220 0.691640 -0.518853
O6    O     O_R   0.490950 0.713870 0.380230 -0.503404
O7    O     O_R   0.692100 0.514670 0.655670 -0.503646
O8    O     O_R   0.668590 0.485320 0.344260 -0.516294
O9    O     O_2   0.253476 0.408570 0.969032 -0.508374

loop_
_geom_bond_atom_site_label_1
_geom_bond_atom_site_label_2
_ccdc_geom_bond_type
C16   H9    S    
C11   C12   A    
Cu1   O5    S    
C6    C7    A    
C1    C15   S    
C3    C14   S    
C2    C16   S    
C15   H8    S    
C7    H6    S    
C12   H1    S    
Cu1   O7    S    
C3    O8    A    
C7    C8    A    
Cu2   O4    S    
C13   C14   A    
Cu1   O3    S    
C2    O6    A    
C9    H2    S    
N1    N2    D    
C5    H5    S    
Cu2   O8    S    
C9    N1    S    
C17   O4    A    
C10   C11   A    
C9    O9    D    
Cu2   O2    S    
C5    C6    A    
C13   H7    S    
Cu1   O1    S    
H3    N2    S    
C1    O2    A    
C15   C16   D    
C6    H10   S    
C12   C13   A    
C8    C10   A    
Cu1   Cu2   S    
C17   O3    A    
C2    O5    A    
C4    H4    S    
C11   C17   S    
C8    C14   A    
Cu1   N2    S    
Cu2   O6    S    
Cu2   N1    S    
C4    C10   A    
C1    O1    A    
C3    O7    A    
C4    C5    A    
