data_mof_unit_21437.cif
_audit_creation_date              2012-12-10T17:11:04-0500
_audit_creation_method            fapswitch 2.2
_symmetry_space_group_name_H-M    P1
_symmetry_Int_Tables_number       1
_space_group_crystal_system       triclinic
_cell_length_a                    11.667985
_cell_length_b                    13.001521
_cell_length_c                    13.417651
_cell_angle_alpha                 92.467927
_cell_angle_beta                  76.155989
_cell_angle_gamma                 99.823259
_cell_volume                      1947.36826101

loop_
_atom_site_label
_atom_site_type_symbol
_atom_type_description
_atom_site_fract_x
_atom_site_fract_y
_atom_site_fract_z
_atom_type_partial_charge
C1    C     C_R   0.521439 0.700857 0.499801 0.859081
C2    C     C_R   0.449032 0.492715 0.974408 0.052961
C3    C     C_R   0.468967 0.535121 0.874464 0.034034
C4    C     C_R   0.535371 0.525228 0.033656 0.078174
C5    C     C_R   0.637655 0.600203 0.992884 0.096618
C6    C     C_R   0.647693 0.649163 0.900220 -0.247414
C7    C     C_R   0.560891 0.621913 0.844554 0.215326
C8    C     C_R   0.521986 0.488003 0.133306 -0.233618
C9    C     C_R   0.708484 0.596272 0.148607 -0.030364
C10   C     C_R   0.394974 0.490210 0.808678 -0.078355
C11   C     C_R   0.467191 0.185709 0.497357 -0.051407
C12   C     C_R   0.435931 0.498005 0.696279 0.853272
C13   C     C_R   0.534027 0.814286 0.498976 -0.034414
C14   C     C_R   0.655193 0.984766 0.501336 -0.204559
C15   C     C_R   0.644165 0.876657 0.501275 -0.140816
C16   C     C_R   0.435033 0.860712 0.496228 -0.251758
C17   C     C_R   0.445355 0.968740 0.496238 0.174083
C18   C     C_R   0.556246 0.031247 0.498986 0.170768
C19   C     C_R   0.566391 0.139286 0.499519 -0.256845
C20   C     C_R   0.357309 0.123313 0.494268 -0.195750
C21   C     C_R   0.346441 0.015204 0.493766 -0.203354
C22   C     C_R   0.944637 0.596863 0.596357 -0.337187
C23   C     C_R   0.479148 0.299135 0.498441 0.801668
C24   C     C_R   0.825971 0.587556 0.586983 0.102723
C25   C     C_R   0.857927 0.458150 0.458116 0.040674
C26   C     C_R   0.978196 0.464883 0.464772 0.071959
C27   C     C_R   0.021906 0.535201 0.534987 0.067242
C28   C     C_R   0.142078 0.541894 0.541775 0.025947
C29   C     C_R   0.174305 0.412620 0.412717 0.091374
C30   C     C_R   0.055585 0.403310 0.403299 -0.334983
C31   C     C_R   0.564472 0.507185 0.303928 0.787164
C32   C     C_R   0.724991 0.631838 0.048738 -0.208573
C33   C     C_R   0.603351 0.526890 0.192806 -0.099158
C34   C     C_R   0.289644 0.420691 0.848667 -0.191769
C35   C     C_R   0.262576 0.388337 0.949916 -0.137890
C36   C     C_R   0.342560 0.420807 0.011373 -0.155145
Cu1   Cu    Cu3+1 0.386470 0.492430 0.492410 0.946337
Cu2   Cu    Cu3+1 0.613530 0.507570 0.507590 0.970040
H1    H     H_    0.279706 0.157925 0.492507 0.157806
H2    H     H_    0.740715 0.031877 0.503373 0.136887
H3    H     H_    0.260965 0.968077 0.491599 0.139225
H4    H     H_    0.721665 0.842000 0.503283 0.169522
H5    H     H_    0.349668 0.813031 0.494462 0.153769
H6    H     H_    0.176833 0.595620 0.595515 0.126148
H7    H     H_    0.233423 0.364860 0.365136 0.118952
H8    H     H_    0.975566 0.651843 0.651062 0.143753
H9    H     H_    0.024704 0.348442 0.348492 0.136019
H10   H     H_    0.767301 0.635551 0.634323 0.164281
H11   H     H_    0.719393 0.713920 0.874181 0.170298
H12   H     H_    0.823144 0.404442 0.404382 0.115892
H13   H     H_    0.803450 0.688583 0.016303 0.139491
H14   H     H_    0.445787 0.431993 0.169288 0.138172
H15   H     H_    0.231056 0.386802 0.799993 0.152747
H16   H     H_    0.317238 0.388531 0.087520 0.120819
H17   H     H_    0.181668 0.333541 0.979616 0.140904
H18   H     H_    0.651645 0.186980 0.501632 0.151914
N1    N     N_R   0.215880 0.481050 0.481000 -0.181852
N2    N     N_R   0.784100 0.518950 0.519000 -0.181356
O1    O     O_R   0.419710 0.645650 0.494620 -0.591137
O2    O     O_R   0.611450 0.658430 0.507430 -0.567894
O3    O     O_R   0.357340 0.490460 0.641450 -0.585768
O4    O     O_R   0.549080 0.503250 0.654260 -0.563435
O5    O     O_R   0.388550 0.341570 0.492570 -0.595886
O6    O     O_R   0.580290 0.354350 0.505380 -0.591518
O7    O     O_R   0.450920 0.496750 0.345740 -0.583679
O8    O     O_R   0.642660 0.509540 0.358550 -0.577933
C37   C     C_1   0.796166 0.638642 0.205853 0.253440
N3    N     N_1   0.866415 0.672627 0.251696 -0.278139
Br1   Br    Br    0.555124 0.724131 0.747515 -0.577532

loop_
_geom_bond_atom_site_label_1
_geom_bond_atom_site_label_2
_ccdc_geom_bond_type
C19   H18   S    
C7    Br1   S    
C31   O8    A    
Cu1   O3    S    
C17   C21   A    
C31   C33   S    
C32   H13   S    
C29   C30   A    
C12   O4    A    
C14   C18   A    
C2    C4    A    
C35   C36   A    
C9    C32   A    
C13   C15   A    
C4    C8    A    
C5    C32   A    
C9    C37   S    
C17   C18   A    
Cu2   O2    S    
C10   C34   A    
C3    C10   A    
Cu2   N2    S    
C28   N1    A    
C9    C33   A    
C12   O3    A    
C16   H5    S    
C11   C19   A    
C26   C27   A    
Cu1   O1    S    
C10   C12   S    
C21   H3    S    
C11   C23   S    
C23   O6    A    
Cu1   O5    S    
Cu1   Cu2   S    
C29   N1    A    
C26   C30   A    
C6    C7    A    
Cu2   O6    S    
C8    C33   A    
C1    O1    A    
C6    H11   S    
C5    C6    A    
C23   O5    A    
C22   C24   A    
C11   C20   A    
C1    O2    A    
C1    C13   S    
C25   N2    A    
C14   H2    S    
C37   N3    T    
C24   H10   S    
C16   C17   A    
C30   H9    S    
C22   C27   A    
C36   H16   S    
C20   C21   A    
C34   H15   S    
C24   N2    A    
C34   C35   A    
C13   C16   A    
C2    C36   A    
C27   C28   A    
C31   O7    A    
C20   H1    S    
C8    H14   S    
C25   H12   S    
C18   C19   A    
C2    C3    A    
C3    C7    A    
C22   H8    S    
C25   C26   A    
C14   C15   A    
C35   H17   S    
C28   H6    S    
Cu1   N1    S    
Cu2   O8    S    
C15   H4    S    
C29   H7    S    
C4    C5    A    
Cu2   O4    S    
Cu1   O7    S    
