data_mof_unit_43221.cif
_audit_creation_date              2012-12-11T14:39:36-0500
_audit_creation_method            fapswitch 2.2
_symmetry_space_group_name_H-M    P1
_symmetry_Int_Tables_number       1
_space_group_crystal_system       triclinic
_cell_length_a                    7.219384
_cell_length_b                    14.097303
_cell_length_c                    16.299593
_cell_angle_alpha                 90.0
_cell_angle_beta                  97.376674
_cell_angle_gamma                 90.000051
_cell_volume                      1645.14259938

loop_
_atom_site_label
_atom_site_type_symbol
_atom_type_description
_atom_site_fract_x
_atom_site_fract_y
_atom_site_fract_z
_atom_type_partial_charge
O1    O     O_R   0.525340 0.338340 0.164530 -0.542408
O2    O     O_R   0.474660 0.661660 0.835470 -0.542408
O3    O     O_R   0.974660 0.838340 0.835470 -0.542408
O4    O     O_R   0.025340 0.161660 0.164530 -0.542408
O5    O     O_R   0.253520 0.352000 0.336710 -0.539426
O6    O     O_R   0.746480 0.648000 0.663290 -0.539426
O7    O     O_R   0.246480 0.852000 0.663290 -0.539426
O8    O     O_R   0.753520 0.148000 0.336710 -0.539426
O9    O     O_R   0.083330 0.168380 0.337300 -0.535464
O10   O     O_R   0.916670 0.831620 0.662700 -0.535464
O11   O     O_R   0.416670 0.668380 0.662700 -0.535464
O12   O     O_R   0.583330 0.331620 0.337300 -0.535464
C1    C     C_R   0.432317 0.368695 0.363670 0.689172
C2    C     C_R   0.567683 0.631305 0.636330 0.689172
C3    C     C_R   0.067683 0.868696 0.636330 0.689173
C4    C     C_R   0.932317 0.131304 0.363670 0.689172
O13   O     O_R   0.195840 0.349670 0.165140 -0.542236
O14   O     O_R   0.804160 0.650330 0.834860 -0.542236
O15   O     O_R   0.304160 0.849670 0.834860 -0.542236
O16   O     O_R   0.695840 0.150330 0.165140 -0.542236
C5    C     C_R   0.357192 0.371989 0.137695 0.738090
C6    C     C_R   0.642808 0.628011 0.862305 0.738090
C7    C     C_R   0.142808 0.871989 0.862305 0.738090
C8    C     C_R   0.857192 0.128011 0.137695 0.738090
O17   O     O_3   0.387830 0.193120 0.250910 -0.376186
O18   O     O_3   0.612170 0.806880 0.749090 -0.376186
O19   O     O_3   0.112170 0.693120 0.749090 -0.376186
O20   O     O_3   0.887830 0.306880 0.250910 -0.376186
V1    V     V_3+5 0.113010 0.264540 0.250910 1.402553
V2    V     V_3+5 0.886990 0.735460 0.749090 1.402552
V3    V     V_3+5 0.386990 0.764540 0.749090 1.402553
V4    V     V_3+5 0.613010 0.235460 0.250910 1.402552
H1    H     H_    0.157180 0.828489 0.265931 0.118238
H2    H     H_    0.842820 0.171510 0.734069 0.118238
H3    H     H_    0.342826 0.328489 0.734069 0.118238
H4    H     H_    0.657174 0.671511 0.265931 0.118238
C9    C     C_R   0.867830 0.185123 0.528063 -0.144785
C10   C     C_R   0.132169 0.814877 0.471937 -0.144785
C11   C     C_R   0.632166 0.685123 0.471936 -0.144785
C12   C     C_R   0.367834 0.314877 0.528064 -0.144785
C13   C     C_R   0.835495 0.212804 0.607040 -0.116372
C14   C     C_R   0.164505 0.787196 0.392960 -0.116372
C15   C     C_R   0.664500 0.712805 0.392959 -0.116373
C16   C     C_R   0.335500 0.287195 0.607041 -0.116373
C17   C     C_R   0.867442 0.149587 0.672745 -0.132503
C18   C     C_R   0.132557 0.850413 0.327255 -0.132503
C19   C     C_R   0.632552 0.649588 0.327255 -0.132503
C20   C     C_R   0.367447 0.350412 0.672745 -0.132503
C21   C     C_R   0.932162 0.058299 0.659935 -0.139730
C22   C     C_R   0.067838 0.941701 0.340065 -0.139730
C23   C     C_R   0.567834 0.558299 0.340065 -0.139730
C24   C     C_R   0.432166 0.441701 0.659935 -0.139730
C25   C     C_R   0.965276 0.028104 0.580254 0.062280
C26   C     C_R   0.034724 0.971896 0.419746 0.062280
C27   C     C_R   0.534722 0.528104 0.419746 0.062280
C28   C     C_R   0.465278 0.471896 0.580254 0.062280
C29   C     C_R   0.932465 0.092579 0.513112 0.056852
C30   C     C_R   0.067535 0.907420 0.486888 0.056852
C31   C     C_R   0.567533 0.592580 0.486888 0.056851
C32   C     C_R   0.432467 0.407420 0.513112 0.056851
C33   C     C_R   0.032790 0.935808 0.566909 -0.174431
C34   C     C_R   0.967210 0.064192 0.433091 -0.174431
C35   C     C_R   0.467210 0.435808 0.433091 -0.174430
C36   C     C_R   0.532790 0.564192 0.566909 -0.174430
H5    H     H_    0.842822 0.237319 0.479241 0.119103
H6    H     H_    0.157177 0.762681 0.520758 0.119103
H7    H     H_    0.657175 0.737320 0.520758 0.119103
H8    H     H_    0.342825 0.262680 0.479242 0.119103
H9    H     H_    0.956731 0.012046 0.713192 0.106394
H10   H     H_    0.043269 0.987954 0.286808 0.106394
H11   H     H_    0.543264 0.512047 0.286808 0.106394
H12   H     H_    0.456736 0.487953 0.713192 0.106394
C37   C     C_2   0.149943 0.942036 0.930592 -0.337465
C38   C     C_2   0.850057 0.057964 0.069408 -0.337465
C39   C     C_2   0.350057 0.442036 0.069408 -0.337465
C40   C     C_2   0.649943 0.557964 0.930592 -0.337465
C41   C     C_2   0.996125 0.965666 0.965477 -0.132587
C42   C     C_2   0.003875 0.034334 0.034522 -0.132587
C43   C     C_2   0.503875 0.465666 0.034522 -0.132587
C44   C     C_2   0.496125 0.534334 0.965477 -0.132587
H13   H     H_    0.786335 0.283839 0.617353 0.134875
H14   H     H_    0.213665 0.716161 0.382647 0.134875
H15   H     H_    0.713661 0.783840 0.382647 0.134874
H16   H     H_    0.286339 0.216160 0.617353 0.134874
H17   H     H_    0.138117 0.066175 0.056638 0.158380
H18   H     H_    0.861883 0.933825 0.943362 0.158380
H19   H     H_    0.361883 0.566175 0.943362 0.158380
H20   H     H_    0.638117 0.433825 0.056638 0.158380
H21   H     H_    0.716229 0.026150 0.046518 0.127657
H22   H     H_    0.283770 0.973849 0.953482 0.127657
H23   H     H_    0.783770 0.526150 0.953482 0.127657
H24   H     H_    0.216230 0.473850 0.046518 0.127657

loop_
_geom_bond_atom_site_label_1
_geom_bond_atom_site_label_2
_ccdc_geom_bond_type
O1    C5    A    
C12   C32   A    
C27   C31   A    
O13   V1    S    
O3    C7    A    
C14   H14   S    
C6    C40   S    
O15   V3    S    
C29   C34   A    
C41   C42   S    
C31   C36   A    
C22   C26   A    
C4    C34   S    
C32   C35   A    
C38   H21   S    
O20   V1    S    
O9    C4    A    
C37   H22   S    
C10   C14   A    
C44   H19   S    
O10   C3    A    
C26   C30   A    
O4    C8    A    
O11   C2    A    
C15   H15   S    
H4    C19   S    
C14   C18   A    
C10   C30   A    
C25   C33   A    
O16   C8    A    
C27   C35   A    
O2    C6    A    
C28   C36   A    
O14   V2    S    
C12   C16   A    
O5    C1    A    
O4    V1    S    
O9    V1    S    
C30   C33   A    
O7    C3    A    
C11   C31   A    
O18   V3    S    
O8    C4    A    
C21   H9    S    
O12   V4    S    
O19   V2    S    
H1    C18   S    
C23   H11   S    
C7    C37   S    
H3    C20   S    
C43   H20   S    
O5    V1    S    
O7    V3    S    
O8    V4    S    
C10   H6    S    
C25   C29   A    
C11   C15   A    
C26   C34   A    
O1    V4    S    
O13   C5    A    
C28   C32   A    
C9    H5    S    
O2    V3    S    
O3    V2    S    
O15   C7    A    
C24   H12   S    
O6    C2    A    
O10   V2    S    
C1    C35   S    
C17   C21   A    
C13   H13   S    
C3    C33   S    
H2    C17   S    
C39   H24   S    
C2    C36   S    
C42   H17   S    
O6    V2    S    
C41   H18   S    
C38   C42   D    
O16   V4    S    
C18   C22   A    
C37   C41   D    
O14   C6    A    
C11   H7    S    
C40   C44   D    
C16   H16   S    
C19   C23   A    
C5    C39   S    
C22   H10   S    
C8    C38   S    
C39   C43   D    
O17   V4    S    
C21   C25   A    
C23   C27   A    
C9    C13   A    
C40   H23   S    
O11   V3    S    
C43   C44   S    
C16   C20   A    
C20   C24   A    
O12   C1    A    
C12   H8    S    
C13   C17   A    
C15   C19   A    
C9    C29   A    
C24   C28   A    
