data_mof_unit_42548.cif
_audit_creation_date              2012-12-10T20:32:40-0500
_audit_creation_method            fapswitch 2.2
_symmetry_space_group_name_H-M    P1
_symmetry_Int_Tables_number       1
_space_group_crystal_system       triclinic
_cell_length_a                    11.536809
_cell_length_b                    10.680196
_cell_length_c                    9.911942
_cell_angle_alpha                 89.863616
_cell_angle_beta                  89.865637
_cell_angle_gamma                 90.599178
_cell_volume                      1221.23004192

loop_
_atom_site_label
_atom_site_type_symbol
_atom_type_description
_atom_site_fract_x
_atom_site_fract_y
_atom_site_fract_z
_atom_type_partial_charge
C1    C     C_R   0.496771 0.260154 0.500166 0.874899
C2    C     C_R   0.480198 0.128457 0.501401 -0.095994
C3    C     C_R   0.450631 0.064518 0.382654 -0.199718
C4    C     C_R   0.449518 0.934898 0.382878 -0.206191
C5    C     C_R   0.478479 0.871049 0.501643 -0.092761
C6    C     C_R   0.485540 0.935760 0.623175 0.109261
C7    C     C_3   0.570924 0.927366 0.736199 -0.491314
C8    C     C_3   0.574088 0.069820 0.735928 -0.210125
C9    C     C_R   0.459279 0.398537 0.070777 0.117165
C10   C     C_R   0.551150 0.595292 0.069531 0.024320
C11   C     C_R   0.549152 0.595168 0.926277 -0.132485
C12   C     C_R   0.282032 0.500004 0.500156 0.894008
C13   C     C_R   0.461681 0.397616 0.928875 0.203838
C14   C     C_3   0.345578 0.336683 0.918324 -0.538022
C15   C     C_3   0.340305 0.339713 0.071997 -0.281128
C16   C     C_R   0.496386 0.739819 0.500050 0.887074
C17   C     C_R   0.717968 0.499978 0.499876 0.927271
C18   C     C_1   0.161555 0.500097 0.500469 -0.133606
C19   C     C_1   0.059349 0.500068 0.500280 0.041679
C20   C     C_1   0.940666 0.499983 0.499854 0.029382
C21   C     C_1   0.838456 0.499953 0.499669 -0.141149
C22   C     C_R   0.488036 0.063309 0.622801 0.071021
H1    H     H_    0.435621 0.113566 0.288722 0.169014
H2    H     H_    0.351431 0.240240 0.877165 0.191081
H3    H     H_    0.339697 0.244444 0.117503 0.143939
H4    H     H_    0.433109 0.885741 0.289362 0.203273
H5    H     H_    0.530312 0.887985 0.828944 0.234819
H6    H     H_    0.653121 0.881700 0.705281 0.202261
H7    H     H_    0.538107 0.112319 0.829094 0.159954
H8    H     H_    0.588572 0.671481 0.870140 0.156600
H9    H     H_    0.281518 0.396893 0.866075 0.235619
N1    N     N_R   0.499240 0.499140 0.142800 -0.136776
N2    N     N_R   0.499240 0.499180 0.857150 -0.101575
O1    O     O_R   0.500010 0.316790 0.614690 -0.621677
O2    O     O_R   0.500000 0.316760 0.385350 -0.632042
O3    O     O_R   0.334450 0.500030 0.614670 -0.615935
O4    O     O_R   0.334440 0.500000 0.385330 -0.601132
O5    O     O_R   0.500000 0.683240 0.614650 -0.623099
O6    O     O_R   0.499990 0.683210 0.385310 -0.609213
O7    O     O_R   0.665560 0.500000 0.614670 -0.620870
O8    O     O_R   0.665550 0.499970 0.385330 -0.563305
Zn1   Zn    Zn3+2 0.500010 0.500020 0.653130 0.963693
Zn2   Zn    Zn3+2 0.499990 0.499980 0.346870 1.003503
C23   C     C_2   0.245346 0.422735 0.123643 1.027593
O9    O     O_2   0.169551 0.378177 0.196114 -0.633644
O10   O     O_R   0.242780 0.549350 0.087369 -0.795626
H10   H     H_    0.174774 0.594673 0.129024 0.341669
C24   C     C_1   0.687688 0.122161 0.695421 0.244153
N3    N     N_1   0.776783 0.163468 0.663550 -0.201071
C25   C     C_2   0.610625 0.702010 0.133986 0.929666
O11   O     O_2   0.687776 0.684444 0.215611 -0.597205
O12   O     O_R   0.584508 0.823810 0.093049 -0.854825
H11   H     H_    0.632784 0.889501 0.141534 0.343734

loop_
_geom_bond_atom_site_label_1
_geom_bond_atom_site_label_2
_ccdc_geom_bond_type
C2    C22   A    
C8    C22   S    
C8    C24   S    
C13   N2    A    
C6    C7    S    
C12   O3    A    
O2    Zn2   S    
O3    Zn1   S    
C19   C20   S    
O1    Zn1   S    
C14   H9    S    
O7    Zn1   S    
C25   O11   D    
C9    C15   S    
C7    C8    S    
C13   C14   S    
C20   C21   T    
O8    Zn2   S    
C5    C6    A    
C8    H7    S    
C24   N3    T    
N1    Zn2   S    
C23   O10   S    
C1    O1    A    
O5    Zn1   S    
C2    C3    A    
C15   C23   S    
C17   O8    A    
C4    H4    S    
C15   H3    S    
C10   C11   A    
N2    Zn1   S    
C16   O6    A    
C12   C18   S    
C3    C4    A    
C10   C25   S    
C10   N1    A    
C11   N2    A    
C7    H5    S    
C23   O9    D    
C1    O2    A    
C1    C2    S    
C12   O4    A    
C14   H2    S    
C25   O12   S    
C9    C13   A    
C14   C15   S    
C18   C19   T    
C5    C16   S    
O6    Zn2   S    
C9    N1    A    
C16   O5    A    
O10   H10   S    
C3    H1    S    
O4    Zn2   S    
C17   C21   S    
C7    H6    S    
C11   H8    S    
O12   H11   S    
C4    C5    A    
C17   O7    A    
C6    C22   A    
