data_mof_unit_15665.cif
_audit_creation_date              2012-12-11T15:54:41-0500
_audit_creation_method            fapswitch 2.2
_symmetry_space_group_name_H-M    P1
_symmetry_Int_Tables_number       1
_space_group_crystal_system       triclinic
_cell_length_a                    6.928533
_cell_length_b                    14.514475
_cell_length_c                    16.127844
_cell_angle_alpha                 90.031918
_cell_angle_beta                  89.946299
_cell_angle_gamma                 89.893286
_cell_volume                      1621.87703197

loop_
_atom_site_label
_atom_site_type_symbol
_atom_type_description
_atom_site_fract_x
_atom_site_fract_y
_atom_site_fract_z
_atom_type_partial_charge
O1    O     O_R   0.638180 0.333920 0.163320 -0.543525
O2    O     O_R   0.361820 0.666080 0.836680 -0.543523
O3    O     O_R   0.308470 0.344960 0.336080 -0.544661
O4    O     O_R   0.691530 0.655040 0.663920 -0.544657
O5    O     O_R   0.138140 0.166110 0.336680 -0.551262
O6    O     O_R   0.861860 0.833890 0.663320 -0.551256
C1    C     C_R   0.477392 0.367104 0.365142 0.679537
C2    C     C_R   0.522608 0.632896 0.634858 0.679553
O7    O     O_R   0.308460 0.344950 0.163930 -0.505489
O8    O     O_R   0.691540 0.655050 0.836070 -0.505509
O9    O     O_R   0.138140 0.166100 0.163310 -0.558805
O10   O     O_R   0.861860 0.833900 0.836690 -0.558788
C3    C     C_R   0.477186 0.367360 0.135095 0.770866
C4    C     C_R   0.522814 0.632641 0.864905 0.770862
O11   O     O_R   0.638180 0.333930 0.336700 -0.549121
O12   O     O_R   0.361820 0.666070 0.663300 -0.549117
O13   O     O_3   0.471670 0.191340 0.250000 -0.378180
O14   O     O_3   0.528330 0.808660 0.750000 -0.378179
V1    V     V_3+5 0.196830 0.260900 0.250000 1.481577
V2    V     V_3+5 0.803170 0.739100 0.750000 1.481536
O15   O     O_R   0.808420 0.155070 0.163920 -0.530938
O16   O     O_R   0.191580 0.844930 0.836080 -0.530957
C5    C     C_R   0.977602 0.133449 0.134852 0.746702
C6    C     C_R   0.022400 0.866543 0.865154 0.746591
O17   O     O_R   0.808420 0.155080 0.336070 -0.527663
O18   O     O_R   0.191580 0.844920 0.663930 -0.527674
C7    C     C_R   0.977588 0.132862 0.364513 0.725956
C8    C     C_R   0.022411 0.867138 0.635487 0.725966
V3    V     V_3+5 0.696830 0.239130 0.250000 1.473413
V4    V     V_3+5 0.303170 0.760870 0.750000 1.473366
O19   O     O_3   0.971850 0.308690 0.250010 -0.360269
O20   O     O_3   0.028150 0.691310 0.749990 -0.360269
H1    H     H_    0.365165 0.864309 0.280053 0.130952
H2    H     H_    0.634800 0.135684 0.719940 0.130951
C9    C     C_R   0.792655 0.166835 0.523003 -0.150764
C10   C     C_R   0.207336 0.833164 0.476995 -0.150769
C11   C     C_R   0.699197 0.184883 0.597730 -0.114121
C12   C     C_R   0.300784 0.815114 0.402267 -0.114114
C13   C     C_R   0.706552 0.121103 0.661708 -0.082037
C14   C     C_R   0.293422 0.878892 0.338286 -0.082024
C15   C     C_R   0.808512 0.039095 0.651621 -0.074022
C16   C     C_R   0.191465 0.960901 0.348374 -0.074043
C17   C     C_R   0.903754 0.018085 0.576082 0.070068
C18   C     C_R   0.096237 0.981913 0.423916 0.070074
C19   C     C_R   0.893833 0.083056 0.509961 0.057948
C20   C     C_R   0.106162 0.916943 0.490037 0.057950
C21   C     C_R   0.011276 0.935219 0.566441 -0.174260
C22   C     C_R   0.988722 0.064781 0.433559 -0.174247
H3    H     H_    0.786178 0.220169 0.476387 0.108853
H4    H     H_    0.213817 0.779830 0.523612 0.108855
H5    H     H_    0.622089 0.249162 0.606234 0.129885
H6    H     H_    0.377890 0.750834 0.393762 0.129887
H7    H     H_    0.812901 0.993385 0.704382 0.140566
H8    H     H_    0.187065 0.006609 0.295612 0.140539
C23   C     C_R   0.095532 0.023763 0.925103 -0.017616
C24   C     C_R   0.904477 0.976218 0.074913 -0.017576
C25   C     C_R   0.082811 0.088613 0.990892 -0.100787
C26   C     C_R   0.917252 0.911355 0.009132 -0.100806
C27   C     C_R   0.990098 0.064548 0.066376 -0.163551
C28   C     C_R   0.009913 0.935434 0.933638 -0.163552
C29   C     C_R   0.321180 0.478283 0.464938 -0.144416
C30   C     C_R   0.678820 0.521717 0.535062 -0.144415
H9    H     H_    0.180975 0.462775 0.438869 0.120740
H10   H     H_    0.819025 0.537225 0.561130 0.120741
C31   C     C_R   0.332484 0.542086 0.529935 -0.151893
C32   C     C_R   0.667516 0.457914 0.470065 -0.151892
H11   H     H_    0.200405 0.573941 0.551751 0.117491
H12   H     H_    0.799595 0.426059 0.448249 0.117490
C33   C     C_R   0.511444 0.564633 0.565988 -0.045146
C34   C     C_R   0.488555 0.435367 0.434012 -0.045143
C35   C     C_R   0.324412 0.487079 0.041458 0.674567
C36   C     C_R   0.675587 0.512921 0.958542 0.674513
C37   C     C_R   0.337519 0.550337 0.976207 -0.245904
C38   C     C_R   0.662481 0.449664 0.023793 -0.245885
H13   H     H_    0.209806 0.589196 0.959477 0.221612
H14   H     H_    0.790194 0.410805 0.040524 0.221643
C39   C     C_R   0.512575 0.564309 0.933760 -0.293787
C40   C     C_R   0.487425 0.435692 0.066240 -0.293774
C41   C     C_2   0.205409 0.048883 0.848808 0.421674
H15   H     H_    0.332940 0.091852 0.853556 0.061727
O21   O     O_2   0.152178 0.024697 0.780103 -0.549604
C42   C     C_2   0.794564 0.951105 0.151202 0.421646
H16   H     H_    0.667090 0.908098 0.146452 0.061849
O22   O     O_2   0.847703 0.975337 0.219906 -0.549609
C43   C     C_2   0.153580 0.184754 0.978657 0.323030
H17   H     H_    0.230759 0.220420 0.027269 0.070051
O23   O     O_2   0.121318 0.226153 0.914251 -0.510162
C44   C     C_2   0.846649 0.815183 0.021390 0.322915
H18   H     H_    0.769791 0.779404 0.972731 0.070137
O24   O     O_2   0.878752 0.773867 0.085863 -0.510179
F1    F     F_    0.152276 0.477607 0.080733 -0.659166
F2    F     F_    0.847724 0.522394 0.919268 -0.659176

loop_
_geom_bond_atom_site_label_1
_geom_bond_atom_site_label_2
_ccdc_geom_bond_type
C7    C22   S    
C29   C34   A    
C32   H12   S    
C8    C21   S    
O13   V3    S    
O4    C2    A    
V1    O19   S    
C1    C34   S    
C13   C15   A    
C43   H17   S    
C5    C27   S    
O9    V1    S    
C2    C33   S    
C38   H14   S    
C9    C11   A    
O3    C1    A    
C11   H5    S    
C25   C27   A    
C12   H6    S    
O12   V4    S    
C4    C39   S    
C29   H9    S    
O7    C3    A    
C30   H10   S    
C3    C40   S    
O7    V1    S    
C36   F2    S    
O6    C8    A    
O8    V2    S    
C31   H11   S    
C9    H3    S    
O3    V1    S    
O14   V4    S    
C24   C26   A    
V4    O20   S    
C14   C16   A    
C2    O12   A    
O5    C7    A    
C23   C28   A    
C15   C17   A    
C16   C18   A    
C18   C20   A    
O11   V3    S    
C43   O23   D    
O17   V3    S    
H1    C14   S    
C30   C32   A    
H2    C13   S    
C36   C38   A    
O8    C4    A    
C41   O21   D    
C1    O11   A    
O15   V3    S    
C30   C33   A    
C36   C39   A    
C23   C41   S    
C6    C28   S    
O10   V2    S    
O1    V3    S    
C10   C20   A    
C17   C19   A    
C15   H7    S    
C44   O24   D    
O18   V4    S    
C42   O22   D    
C23   C25   A    
O16   C6    A    
O1    C3    A    
C37   H13   S    
C10   C12   A    
C9    C19   A    
C10   H4    S    
C35   C37   A    
V2    O20   S    
C19   C22   A    
C20   C21   A    
O16   V4    S    
C26   C44   S    
C24   C42   S    
O5    V1    S    
O17   C7    A    
O6    V2    S    
O10   C6    A    
O18   C8    A    
C24   C27   A    
O2    V4    S    
O15   C5    A    
C11   C13   A    
C16   H8    S    
C12   C14   A    
C32   C34   A    
C17   C21   A    
C31   C33   A    
O9    C5    A    
O13   V1    S    
C25   C43   S    
O14   V2    S    
O2    C4    A    
C41   H15   S    
O4    V2    S    
C29   C31   A    
C35   F1    S    
C44   H18   S    
V3    O19   S    
C42   H16   S    
C38   C40   A    
C37   C39   A    
C26   C28   A    
C35   C40   A    
C18   C22   A    
