data_mof_unit_26799.cif
_audit_creation_date              2012-12-10T16:48:44-0500
_audit_creation_method            fapswitch 2.2
_symmetry_space_group_name_H-M    P1
_symmetry_Int_Tables_number       1
_space_group_crystal_system       triclinic
_cell_length_a                    17.085478
_cell_length_b                    8.716477
_cell_length_c                    7.50029
_cell_angle_alpha                 102.916984
_cell_angle_beta                  90.380962
_cell_angle_gamma                 94.065511
_cell_volume                      1085.68637036

loop_
_atom_site_label
_atom_site_type_symbol
_atom_type_description
_atom_site_fract_x
_atom_site_fract_y
_atom_site_fract_z
_atom_type_partial_charge
C1    C     C_R   0.496661 0.200356 0.455000 0.862457
C2    C     C_R   0.503317 0.799640 0.545004 0.819295
C3    C     C_2   0.483621 0.034239 0.437991 0.035581
C4    C     C_2   0.516365 0.965743 0.562009 0.043436
C5    C     C_R   0.351081 0.500630 0.525670 0.866081
C6    C     C_R   0.649084 0.500930 0.474502 0.942361
C7    C     C_R   0.265952 0.488660 0.542466 -0.286053
C8    C     C_R   0.734411 0.511379 0.457198 -0.206867
C9    C     C_R   0.223172 0.355889 0.434829 0.292167
C10   C     C_R   0.780079 0.628493 0.582112 0.248536
C11   C     C_R   0.140584 0.342663 0.444452 0.341410
C12   C     C_R   0.862351 0.639522 0.565636 0.334297
C13   C     C_R   0.103127 0.454822 0.572851 -0.164932
C14   C     C_R   0.897644 0.525062 0.435663 -0.106297
C15   C     C_R   0.146801 0.581681 0.691160 0.414626
C16   C     C_R   0.851867 0.408425 0.307748 0.316727
C17   C     C_R   0.227832 0.601604 0.671701 0.359428
C18   C     C_R   0.769405 0.403862 0.317646 0.342135
C19   C     C_2   0.017512 0.451603 0.561289 0.261964
C20   C     C_2   0.983151 0.524404 0.444201 0.253544
Cu1   Cu    Cu3+1 0.508700 0.517250 0.683000 1.154313
Cu2   Cu    Cu3+1 0.491300 0.482750 0.317000 1.170917
N1    N     N_2   0.478180 0.456750 0.041980 0.067889
N2    N     N_2   0.521820 0.543250 0.958020 0.068410
O1    O     O_R   0.505650 0.286040 0.618880 -0.567808
O2    O     O_R   0.494350 0.713960 0.381120 -0.566770
O3    O     O_R   0.490960 0.256910 0.309800 -0.523482
O4    O     O_R   0.509040 0.743090 0.690200 -0.537345
O5    O     O_R   0.394600 0.516230 0.672450 -0.580148
O6    O     O_R   0.605400 0.483770 0.327550 -0.547741
O7    O     O_R   0.379910 0.487100 0.363380 -0.515896
O8    O     O_R   0.620090 0.512900 0.636620 -0.532067
O9    O     O_3   0.263860 0.240334 0.324962 -0.655902
H1    H     H_    0.232940 0.137523 0.309210 0.370943
O10   O     O_3   0.742700 0.729785 0.717888 -0.659087
H2    H     H_    0.778255 0.762526 0.826657 0.364714
O11   O     O_3   0.721225 0.291536 0.198602 -0.657301
H3    H     H_    0.752806 0.226655 0.104516 0.404261
O12   O     O_3   0.267052 0.734573 0.780033 -0.597644
H4    H     H_    0.318366 0.756041 0.726765 0.328142
Br1   Br    Br    0.042317 0.636075 0.288784 -0.363238
Br2   Br    Br    0.958310 0.338778 0.715338 -0.372267
O13   O     O_3   0.112270 0.694552 0.820033 -0.586336
H5    H     H_    0.056697 0.660242 0.834293 0.373083
O14   O     O_3   0.885006 0.295707 0.175614 -0.661264
H6    H     H_    0.942640 0.316331 0.176304 0.384003
O15   O     O_3   0.910084 0.759007 0.675055 -0.662637
H7    H     H_    0.880336 0.854252 0.709975 0.370903
O16   O     O_3   0.094574 0.225993 0.326258 -0.656479
H8    H     H_    0.122698 0.193342 0.210458 0.366666
Br3   Br    Br    0.405047 0.930971 0.253990 -0.339323
Br4   Br    Br    0.595066 0.068873 0.745764 -0.332690
Br5   Br    Br    0.399222 0.307915 0.920570 -0.231367
Br6   Br    Br    0.600741 0.692116 0.079493 -0.247350

loop_
_geom_bond_atom_site_label_1
_geom_bond_atom_site_label_2
_ccdc_geom_bond_type
C16   O14   S    
C1    C3    S    
C6    O8    A    
N1    N2    D    
C10   O10   S    
C11   O16   S    
C14   C20   S    
C9    C11   A    
C2    C4    S    
C19   C20   D    
C19   Br2   S    
O13   H5    S    
C1    O3    A    
O9    H1    S    
C15   O13   S    
C2    O2    A    
O14   H6    S    
C1    O1    A    
C11   C13   A    
O11   H3    S    
C10   C12   A    
C9    O9    S    
C12   O15   S    
C6    C8    S    
C16   C18   A    
C6    O6    A    
C18   O11   S    
C4    Br4   S    
N1    Br5   S    
C5    O5    A    
Cu2   O3    S    
C13   C15   A    
C17   O12   S    
Cu1   O8    S    
C14   C16   A    
Cu2   O7    S    
C13   C19   S    
N2    Br6   S    
C3    C4    D    
C7    C9    A    
C20   Br1   S    
C15   C17   A    
O16   H8    S    
Cu2   O2    S    
Cu1   N2    S    
O12   H4    S    
C5    C7    S    
C3    Br3   S    
Cu1   O1    S    
Cu2   N1    S    
C2    O4    A    
Cu2   O6    S    
C7    C17   A    
Cu1   Cu2   S    
Cu1   O5    S    
Cu1   O4    S    
C8    C10   A    
C8    C18   A    
O15   H7    S    
C12   C14   A    
C5    O7    A    
O10   H2    S    
