data_mof_unit_28824.cif
_audit_creation_date              2012-12-10T17:13:24-0500
_audit_creation_method            fapswitch 2.2
_symmetry_space_group_name_H-M    P1
_symmetry_Int_Tables_number       1
_space_group_crystal_system       triclinic
_cell_length_a                    18.184057
_cell_length_b                    18.243206
_cell_length_c                    18.200837
_cell_angle_alpha                 120.303979
_cell_angle_beta                  90.146493
_cell_angle_gamma                 119.1776
_cell_volume                      4296.87564881

loop_
_atom_site_label
_atom_site_type_symbol
_atom_type_description
_atom_site_fract_x
_atom_site_fract_y
_atom_site_fract_z
_atom_type_partial_charge
C1    C     C_R   0.639370 0.780251 0.640905 0.583583
C2    C     C_R   0.233982 0.909629 0.344076 -0.010271
C3    C     C_R   0.243621 0.949935 0.292245 -0.040788
C4    C     C_R   0.362491 0.219973 0.359515 0.500749
C5    C     C_R   0.314440 0.052830 0.333045 0.002103
C6    C     C_R   0.308816 0.107699 0.302602 0.005635
C7    C     C_R   0.243341 0.055818 0.222211 -0.097457
C8    C     C_R   0.182758 0.949099 0.170526 -0.006260
C9    C     C_R   0.185337 0.894084 0.203118 -0.017951
C10   C     C_R   0.753103 0.692346 0.365043 0.021016
C11   C     C_R   0.819398 0.783662 0.377275 -0.138385
C12   C     C_3   0.836541 0.572196 0.770141 -0.182498
C13   C     C_R   0.870946 0.782900 0.321598 -0.073903
C14   C     C_R   0.858695 0.690757 0.252593 0.042606
C15   C     C_R   0.804845 0.600012 0.250683 -0.022616
C16   C     C_R   0.360779 0.501231 0.640717 0.467030
C17   C     C_R   0.749639 0.599932 0.306763 -0.018859
C18   C     C_R   0.693854 0.507684 0.301917 0.077487
C19   C     C_R   0.689673 0.417803 0.241505 0.222650
C20   C     C_R   0.744500 0.419629 0.188885 -0.122505
C21   C     C_R   0.803106 0.509047 0.194914 -0.002596
C22   C     C_R   0.807285 0.903163 0.789041 0.270655
C23   C     C_3   0.763371 0.593393 0.793106 -0.198509
C24   C     C_R   0.898670 0.951286 0.827576 -0.117095
C25   C     C_R   0.961691 0.037328 0.830862 -0.077001
C26   C     C_R   0.934854 0.084569 0.806594 0.044120
C27   C     C_R   0.843132 0.048333 0.785986 -0.061190
C28   C     C_R   0.639595 0.501334 0.359674 0.610777
C29   C     C_R   0.780421 0.946779 0.758031 0.031693
C30   C     C_R   0.694107 0.892920 0.698680 0.032369
C31   C     C_R   0.665625 0.948740 0.689372 -0.042373
C32   C     C_R   0.720613 0.055647 0.744267 -0.161111
C33   C     C_R   0.809347 0.106847 0.792858 -0.009036
C34   C     C_3   0.729612 0.522652 0.825813 -0.010397
C35   C     C_R   0.226974 0.553115 0.433912 -0.075895
C36   C     C_R   0.180728 0.597694 0.470561 -0.109489
C37   C     C_R   0.127158 0.598253 0.416886 -0.101131
C38   C     C_R   0.119399 0.553947 0.326280 -0.080234
C39   C     C_R   0.169811 0.513296 0.288273 0.007196
C40   C     C_R   0.349517 0.490876 0.358866 0.548051
C41   C     C_R   0.224805 0.513130 0.343191 0.016472
C42   C     C_R   0.270827 0.466512 0.303575 0.010562
C43   C     C_R   0.237394 0.391839 0.208873 -0.039313
C44   C     C_R   0.182137 0.391160 0.154613 -0.036458
C45   C     C_3   0.665539 0.429274 0.730248 0.222704
C46   C     C_R   0.162431 0.466147 0.195674 0.011268
C47   C     C_R   0.422365 0.687509 0.815974 -0.084613
C48   C     C_R   0.454825 0.776765 0.901572 -0.120295
C49   C     C_R   0.408701 0.775250 0.961770 -0.116396
C50   C     C_R   0.328819 0.684393 0.937193 0.039075
C51   C     C_R   0.289319 0.594172 0.845842 -0.010627
C52   C     C_R   0.641336 0.499263 0.640779 0.560020
C53   C     C_R   0.339063 0.595377 0.786081 -0.007802
C54   C     C_R   0.306005 0.503772 0.698780 -0.032086
C55   C     C_R   0.222535 0.412258 0.668315 -0.013149
C56   C     C_3   0.698398 0.498418 0.696993 0.057989
C57   C     C_R   0.168884 0.414318 0.723557 0.237102
C58   C     C_R   0.202325 0.503673 0.810959 0.058013
C59   C     C_R   0.860193 0.501358 0.140134 0.472009
C60   C     C_R   0.141008 0.500579 0.861353 0.594701
C61   C     C_R   0.136557 0.780622 0.141606 0.503789
C62   C     C_R   0.861169 0.219504 0.856491 0.509948
C63   C     C_R   0.131637 0.490435 0.141180 0.538539
C64   C     C_3   0.770659 0.477485 0.674067 -0.022404
C65   C     C_R   0.858644 0.500604 0.859135 0.577840
C66   C     C_3   0.737189 0.408562 0.707607 0.201068
C67   C     C_R   0.389403 0.097700 0.402361 -0.121582
C68   C     C_3   0.801733 0.501567 0.802923 0.064414
C69   C     C_2   0.305270 0.900448 0.455318 0.353215
C70   C     C_2   0.143003 0.850907 0.347925 0.288391
C71   C     C_2   0.112270 0.898397 0.087309 0.277435
C72   C     C_2   0.685614 0.698807 0.408271 0.248397
C73   C     C_2   0.893134 0.690881 0.178472 0.256879
C74   C     C_2   0.581371 0.901128 0.622776 0.270518
C75   C     C_2   0.795497 0.450765 0.590123 0.232718
C76   C     C_2   0.998143 0.152894 0.783005 0.316647
C77   C     C_2   0.252218 0.308048 0.165986 0.274608
C78   C     C_R   0.390929 0.044478 0.436231 0.015689
C79   C     C_2   0.138212 0.305177 0.056870 0.280617
C80   C     C_2   0.191602 0.315202 0.578526 0.257290
C81   C     C_2   0.296553 0.687666 0.012687 0.231885
C82   C     C_2   0.703059 0.547740 0.908681 0.254256
C83   C     C_2   0.477188 0.091079 0.499186 0.288796
C84   C     C_R   0.310819 0.951470 0.410755 0.041736
H1    H     H_    0.825355 0.854988 0.424397 0.122311
H2    H     H_    0.068552 0.546061 0.286548 0.165861
H3    H     H_    0.907620 0.631439 0.787166 0.154192
H4    H     H_    0.463893 0.692492 0.774089 0.147166
H5    H     H_    0.518032 0.846777 0.922547 0.132547
H6    H     H_    0.438136 0.844488 0.029863 0.115248
H7    H     H_    0.773736 0.669801 0.828152 0.125205
H8    H     H_    0.238325 0.099360 0.200750 0.215182
H9    H     H_    0.449436 0.171868 0.426366 0.128952
H10   H     H_    0.688547 0.272831 0.601369 0.334197
H11   H     H_    0.268251 0.817088 0.415632 0.141065
H12   H     H_    0.914762 0.853732 0.327373 0.173921
H13   H     H_    0.089418 0.848810 0.318731 0.168463
H14   H     H_    0.051061 0.823483 0.059077 0.153920
H15   H     H_    0.638652 0.273579 0.191993 0.327453
H16   H     H_    0.706909 0.762770 0.477744 0.113875
H17   H     H_    0.861083 0.621443 0.110597 0.158695
H18   H     H_    0.545078 0.937058 0.640922 0.136569
H19   H     H_    0.849262 0.439842 0.584304 0.120558
H20   H     H_    0.774294 0.799097 0.811340 0.316173
H21   H     H_    0.973454 0.168922 0.742354 0.138385
H22   H     H_    0.273475 0.290136 0.107112 0.103586
H23   H     H_    0.743272 0.350902 0.144134 0.115978
H24   H     H_    0.176545 0.282786 0.016189 0.113385
H25   H     H_    0.210519 0.317938 0.523010 0.099586
H26   H     H_    0.294665 0.752925 0.061335 0.101739
H27   H     H_    0.055774 0.294935 0.628042 0.346496
H28   H     H_    0.650407 0.560540 0.914571 0.133713
H29   H     H_    0.577013 0.320532 0.736997 0.354928
H30   H     H_    0.527712 0.173049 0.535554 0.126855
H31   H     H_    0.921117 0.918743 0.850279 0.123507
H32   H     H_    0.031315 0.065350 0.850267 0.175218
H33   H     H_    0.696011 0.099180 0.744261 0.156182
H34   H     H_    0.258512 0.544554 0.476479 0.146882
H35   H     H_    0.183329 0.627764 0.539919 0.128654
H36   H     H_    0.088116 0.628817 0.444484 0.150967
O1    O     O_3   0.500000 0.500000 0.500000 -0.475305
O2    O     O_R   0.945270 0.268330 0.884560 -0.536016
O3    O     O_R   0.117250 0.560610 0.177960 -0.557622
O4    O     O_R   0.676930 0.731590 0.616180 -0.519446
O5    O     O_R   0.821970 0.439270 0.882700 -0.486301
O6    O     O_R   0.117250 0.439170 0.056520 -0.474840
O7    O     O_R   0.943420 0.560710 0.882700 -0.560427
O8    O     O_R   0.115410 0.731560 0.054670 -0.557430
O9    O     O_R   0.823040 0.268350 0.883790 -0.534812
O10   O     O_R   0.945270 0.560650 0.176870 -0.537996
O11   O     O_R   0.116170 0.439210 0.884560 -0.455512
O12   O     O_R   0.384570 0.439270 0.616180 -0.520117
O13   O     O_R   0.384570 0.268390 0.445310 -0.537550
O14   O     O_R   0.383800 0.560730 0.615410 -0.575999
O15   O     O_R   0.554710 0.439290 0.323100 -0.472675
O16   O     O_R   0.382720 0.560770 0.443450 -0.533740
O17   O     O_R   0.678010 0.560670 0.617270 -0.507517
O18   O     O_R   0.382720 0.439330 0.322010 -0.488663
O19   O     O_R   0.556550 0.439230 0.617270 -0.503974
O20   O     O_3   0.724145 0.312407 0.665097 -0.676845
O21   O     O_2   0.338891 0.950464 0.536778 -0.433861
O22   O     O_2   0.126290 0.805033 0.382915 -0.513972
O23   O     O_R   0.676930 0.560710 0.445310 -0.541597
O24   O     O_2   0.121006 0.940771 0.050064 -0.489625
O25   O     O_3   0.633475 0.329702 0.237677 -0.674224
O26   O     O_2   0.606168 0.638086 0.364671 -0.484451
O27   O     O_2   0.955157 0.770313 0.191231 -0.560934
O28   O     O_2   0.555329 0.826593 0.545478 -0.448293
O29   O     O_2   0.755721 0.440808 0.528187 -0.482306
O30   O     O_3   0.743920 0.818542 0.786672 -0.695647
O31   O     O_2   0.078063 0.191244 0.807870 -0.459289
O32   O     O_2   0.237030 0.255745 0.194283 -0.473959
O33   O     O_2   0.057666 0.256021 0.022197 -0.476953
O34   O     O_R   0.554710 0.731610 0.615410 -0.506521
O35   O     O_2   0.147320 0.231535 0.566598 -0.454074
O36   O     O_2   0.278713 0.622017 0.025262 -0.491904
O37   O     O_3   0.081987 0.331214 0.693559 -0.667850
O38   O     O_2   0.739917 0.553861 0.969515 -0.507795
O39   O     O_3   0.576059 0.354023 0.708180 -0.668300
O40   O     O_2   0.494777 0.038694 0.507833 -0.447034
O41   O     O_R   0.383800 0.268410 0.323100 -0.521321
O42   O     O_3   0.999970 0.499940 0.999970 -0.470447
O43   O     O_R   0.823040 0.439240 0.054670 -0.534393
O44   O     O_R   0.115410 0.560680 0.883790 -0.561668
O45   O     O_R   0.116170 0.731530 0.176870 -0.529945
Zn1   Zn    Zn3+2 0.457160 0.413230 0.543930 0.983454
Zn2   Zn    Zn3+2 0.456070 0.586770 0.542830 0.973366
Zn3   Zn    Zn3+2 0.456070 0.413260 0.369320 1.046191
Zn4   Zn    Zn3+2 0.630700 0.586740 0.543930 1.011333
Zn5   Zn    Zn3+2 0.042810 0.586720 0.956040 0.960419
Zn6   Zn    Zn3+2 0.043900 0.586680 0.130650 0.973619
Zn7   Zn    Zn3+2 0.043900 0.413170 0.957150 1.055282
Zn8   Zn    Zn3+2 0.869280 0.413210 0.956040 0.987840

loop_
_geom_bond_atom_site_label_1
_geom_bond_atom_site_label_2
_ccdc_geom_bond_type
O45   Zn6   S    
O1    Zn4   S    
C22   O30   S    
C59   O10   A    
O8    Zn5   S    
C76   H21   S    
C22   C29   A    
C27   C29   A    
C28   O15   A    
H10   O20   S    
C41   C42   A    
C66   C68   S    
C35   C36   A    
C83   H30   S    
C32   H33   S    
C5    C67   A    
C16   O14   A    
C81   H26   S    
C23   C56   S    
C39   C41   A    
O42   Zn8   S    
C53   C54   A    
C27   C33   A    
O7    Zn5   S    
O1    Zn1   S    
C12   C68   S    
C12   C23   S    
C26   C27   A    
C37   C38   A    
C81   O36   D    
C73   O27   D    
C9    C61   S    
C65   O7    A    
C74   O28   D    
C36   C37   A    
C61   O45   A    
O12   Zn1   S    
C21   C59   S    
C5    C6    A    
C12   C64   S    
C72   O26   D    
C10   C17   A    
C69   O21   D    
C52   O19   A    
C77   O32   D    
O18   Zn3   S    
C18   C19   A    
H20   O30   S    
C36   H35   S    
O44   Zn5   S    
C78   C83   S    
O42   Zn6   S    
C31   C32   A    
C45   C56   S    
C8    C9    A    
C40   O18   A    
C80   H25   S    
C26   C76   S    
O15   Zn3   S    
C56   C64   S    
C52   O17   A    
C49   H6    S    
O17   Zn4   S    
C70   H13   S    
C47   C53   A    
C20   H23   S    
C23   C34   S    
C40   C42   S    
H15   O25   S    
O5    Zn8   S    
C13   C14   A    
C75   H19   S    
C62   O9    A    
O9    Zn8   S    
C67   C78   A    
C35   C41   A    
C60   O11   A    
C44   C46   A    
C50   C51   A    
O1    Zn2   S    
C71   H14   S    
O11   Zn7   S    
C70   O22   D    
C83   O40   D    
C13   H12   S    
C63   O6    A    
C14   C73   S    
C7    C8    A    
C18   C28   S    
C24   C25   A    
O23   Zn4   S    
C4    C6    S    
C25   H32   S    
C34   C68   S    
C51   C58   A    
C33   C62   S    
C31   C74   S    
C76   O31   D    
C3    C5    A    
C25   C26   A    
C51   C53   A    
C65   O5    A    
O19   Zn1   S    
C43   C44   A    
C29   C30   A    
C3    C9    A    
C79   O33   D    
C40   O16   A    
C47   C48   A    
O42   Zn5   S    
O10   Zn6   S    
C65   C68   S    
C17   C18   A    
C28   O23   A    
C34   C45   S    
C19   O25   S    
H29   O39   S    
C39   C46   A    
O4    Zn4   S    
C48   C49   A    
C38   H2    S    
O2    Zn7   S    
C48   H5    S    
C55   C57   A    
C23   H7    S    
O34   Zn2   S    
O42   Zn7   S    
C42   C43   A    
O43   Zn8   S    
C62   O2    A    
C80   O35   D    
C72   H16   S    
C15   C17   A    
O1    Zn3   S    
C57   O37   S    
C54   C55   A    
C77   H22   S    
C8    C71   S    
C12   H3    S    
O14   Zn2   S    
C44   C79   S    
C69   H11   S    
C2    C84   A    
C63   O3    A    
C6    C7    A    
O16   Zn2   S    
C43   C77   S    
C82   H28   S    
C75   O29   D    
C74   H18   S    
C46   C63   S    
C47   H4    S    
C19   C20   A    
C2    C3    A    
H27   O37   S    
C1    O4    A    
C69   C84   S    
O13   Zn1   S    
C32   C33   A    
C55   C80   S    
C11   C13   A    
C30   C31   A    
C57   C58   A    
C38   C39   A    
C37   H36   S    
C11   H1    S    
C82   O38   D    
C7    H8    S    
C73   H17   S    
C1    C30   S    
C60   O44   A    
C64   C75   S    
C79   H24   S    
C61   O8    A    
C22   C24   A    
C4    O41   A    
C45   O39   S    
C1    O34   A    
C16   O12   A    
C16   C54   S    
O41   Zn3   S    
O6    Zn7   S    
C10   C11   A    
C78   C84   A    
C15   C21   A    
C66   O20   S    
C20   C21   A    
C24   H31   S    
C49   C50   A    
C45   C66   S    
C67   H9    S    
C59   O43   A    
C14   C15   A    
C71   O24   D    
C35   H34   S    
C34   C82   S    
C2    C70   S    
C58   C60   S    
O3    Zn6   S    
C52   C56   S    
C50   C81   S    
C64   C66   S    
C4    O13   A    
C10   C72   S    
