data_mof_unit_54424.cif
_audit_creation_date              2012-12-10T16:50:13-0500
_audit_creation_method            fapswitch 2.2
_symmetry_space_group_name_H-M    P1
_symmetry_Int_Tables_number       1
_space_group_crystal_system       triclinic
_cell_length_a                    23.530357
_cell_length_b                    8.681212
_cell_length_c                    7.477785
_cell_angle_alpha                 103.483462
_cell_angle_beta                  94.081146
_cell_angle_gamma                 93.382585
_cell_volume                      1477.12673294

loop_
_atom_site_label
_atom_site_type_symbol
_atom_type_description
_atom_site_fract_x
_atom_site_fract_y
_atom_site_fract_z
_atom_type_partial_charge
C1    C     C_R   0.497867 0.199540 0.452878 0.834762
C2    C     C_R   0.502132 0.800460 0.547122 0.834719
C3    C     C_R   0.243597 0.539535 0.679751 -0.182247
C4    C     C_R   0.756412 0.460641 0.320278 -0.182391
C5    C     C_R   0.303124 0.540844 0.679096 0.401552
C6    C     C_R   0.696883 0.459296 0.320921 0.401469
C7    C     C_R   0.328203 0.505080 0.508582 -0.297904
C8    C     C_R   0.671800 0.494978 0.491430 -0.297785
C9    C     C_R   0.292372 0.475243 0.342315 0.527251
C10   C     C_R   0.707628 0.524779 0.657700 0.527075
C11   C     C_R   0.233449 0.478596 0.346048 -0.181888
C12   C     C_R   0.766551 0.521455 0.653977 -0.181918
C13   C     C_R   0.208973 0.509774 0.513977 0.197814
C14   C     C_R   0.791033 0.490351 0.486056 0.197917
C15   C     C_2   0.495583 0.031035 0.427232 -0.364198
C16   C     C_2   0.504415 0.968965 0.572768 -0.364249
C17   C     C_R   0.390923 0.500866 0.502682 0.835609
C18   C     C_R   0.609077 0.499147 0.497320 0.835651
C19   C     C_R   0.881679 0.617656 0.445916 0.560456
C20   C     C_R   0.118328 0.382482 0.554135 0.560472
C21   C     C_R   0.878753 0.367197 0.527914 0.554868
C22   C     C_R   0.121254 0.632937 0.472130 0.554898
C23   C     C_R   0.938451 0.368075 0.534685 -0.021051
C24   C     C_R   0.061555 0.632063 0.465366 -0.021064
C25   C     C_R   0.969941 0.498010 0.496391 -0.013573
C26   C     C_R   0.030066 0.502129 0.503662 -0.013574
C27   C     C_R   0.941450 0.623929 0.451068 -0.024827
C28   C     C_R   0.058556 0.376210 0.548985 -0.024830
C29   C     C_R   0.967269 0.243025 0.579405 -0.164368
C30   C     C_R   0.032738 0.757113 0.420646 -0.164363
C31   C     C_R   0.026736 0.247059 0.586505 -0.172708
C32   C     C_R   0.973271 0.753081 0.413549 -0.172708
Cu1   Cu    Cu3+1 0.506340 0.517380 0.684380 1.050285
Cu2   Cu    Cu3+1 0.493660 0.482620 0.315620 1.050346
H1    H     H_    0.944010 0.141831 0.609280 0.192747
H2    H     H_    0.055996 0.858307 0.390770 0.192747
H3    H     H_    0.047635 0.148747 0.621375 0.187627
H4    H     H_    0.952372 0.851392 0.378680 0.187626
H5    H     H_    0.224256 0.562214 0.809648 0.180188
H6    H     H_    0.775759 0.438046 0.190392 0.180118
H7    H     H_    0.206481 0.454913 0.217585 0.181118
H8    H     H_    0.793517 0.545101 0.782445 0.181100
H9    H     H_    0.486013 0.957828 0.288022 0.158618
H10   H     H_    0.513986 0.042171 0.711979 0.158625
N1    N     N_R   0.851813 0.490981 0.484713 -0.444806
N2    N     N_R   0.148194 0.509153 0.515331 -0.444809
N3    N     N_2   0.484110 0.456420 0.038520 0.141553
N4    N     N_2   0.515890 0.543580 0.961480 0.141535
O1    O     O_R   0.504120 0.286130 0.619770 -0.566113
O2    O     O_R   0.495880 0.713870 0.380230 -0.566091
O3    O     O_R   0.493410 0.256770 0.308360 -0.641810
O4    O     O_R   0.506590 0.743230 0.691640 -0.641844
O5    O     O_R   0.423230 0.514630 0.655730 -0.509286
O6    O     O_R   0.576770 0.485370 0.344270 -0.509240
O7    O     O_R   0.412530 0.485280 0.344320 -0.535445
O8    O     O_R   0.587470 0.514720 0.655680 -0.535490
O9    O     O_2   0.853601 0.737722 0.404506 -0.511078
O10   O     O_2   0.146406 0.262416 0.595548 -0.511065
O11   O     O_2   0.847783 0.243831 0.564005 -0.518516
O12   O     O_2   0.152224 0.756298 0.436031 -0.518473
O13   O     O_3   0.336096 0.567000 0.845407 -0.471215
C33   C     C_3   0.343520 0.731972 0.923466 -0.159227
H11   H     H_    0.364025 0.796311 0.829235 0.104153
H12   H     H_    0.372375 0.752975 0.052204 0.188718
H13   H     H_    0.302227 0.781265 0.961028 0.144934
O14   O     O_3   0.663903 0.433224 0.154627 -0.471264
C34   C     C_3   0.656634 0.268310 0.076143 -0.158783
H14   H     H_    0.627689 0.247341 0.947605 0.188736
H15   H     H_    0.636306 0.203524 0.170266 0.103939
H16   H     H_    0.697961 0.219484 0.038139 0.145078
F1    F     F_    0.313783 0.440791 0.175011 -0.618472
F2    F     F_    0.686213 0.559166 0.824998 -0.618548
O15   O     O_3   0.436117 0.390080 0.933429 -0.426075
C35   C     C_3   0.424588 0.237809 0.962824 -0.003267
H17   H     H_    0.403292 0.243844 0.091309 0.185564
H18   H     H_    0.463671 0.171710 0.962959 0.080828
H19   H     H_    0.394449 0.168757 0.847204 0.119378
O16   O     O_3   0.563882 0.609926 0.066574 -0.426082
C36   C     C_3   0.575410 0.762195 0.037172 -0.003190
H20   H     H_    0.536328 0.828291 0.037026 0.080823
H21   H     H_    0.596709 0.756155 0.908690 0.185553
H22   H     H_    0.605548 0.831255 0.152793 0.119387

loop_
_geom_bond_atom_site_label_1
_geom_bond_atom_site_label_2
_ccdc_geom_bond_type
O15   C35   S    
C19   O9    S    
Cu1   O4    S    
Cu2   O3    S    
C35   H18   S    
C23   C29   A    
C24   C26   A    
C21   O11   S    
C22   O12   S    
C13   N2    S    
Cu1   O1    S    
C15   C16   D    
N4    O16   S    
C12   H8    S    
C2    O2    A    
C4    H6    S    
C7    C17   S    
C35   H19   S    
C33   H12   S    
C1    C15   S    
C32   H4    S    
C2    C16   S    
C17   O7    A    
C3    C13   A    
C18   O8    A    
Cu1   O8    S    
O14   C34   S    
C3    H5    S    
Cu2   O7    S    
C10   C12   A    
C14   N1    S    
C21   N1    A    
Cu1   O5    S    
Cu2   O2    S    
C35   H17   S    
C34   H14   S    
N3    O15   S    
C4    C6    A    
C5    C7    A    
O16   C36   S    
C6    C8    A    
C20   C28   A    
C25   C26   A    
C8    C18   S    
C31   H3    S    
C34   H15   S    
C33   H11   S    
C9    C11   A    
N3    N4    D    
Cu1   Cu2   S    
C5    O13   S    
C1    O3    A    
C2    O4    A    
C22   N2    A    
C12   C14   A    
Cu2   O6    S    
C21   C23   A    
C22   C24   A    
C20   O10   S    
C17   O5    A    
C19   C27   A    
C36   H21   S    
C7    C9    A    
C16   H10   S    
C33   H13   S    
C27   C32   A    
C28   C31   A    
C9    F1    S    
C3    C5    A    
C36   H22   S    
C19   N1    A    
C25   C27   A    
C29   H1    S    
C26   C28   A    
C30   H2    S    
C34   H16   S    
C15   H9    S    
C29   C31   A    
C30   C32   A    
C11   C13   A    
C11   H7    S    
C23   C25   A    
C4    C14   A    
O13   C33   S    
C24   C30   A    
C18   O6    A    
C36   H20   S    
C6    O14   S    
C8    C10   A    
Cu1   N4    S    
Cu2   N3    S    
C1    O1    A    
C20   N2    A    
C10   F2    S    
