data_mof_unit_19982.cif
_audit_creation_date              2012-12-11T15:38:58-0500
_audit_creation_method            fapswitch 2.2
_symmetry_space_group_name_H-M    P1
_symmetry_Int_Tables_number       1
_space_group_crystal_system       triclinic
_cell_length_a                    14.291223
_cell_length_b                    14.829679
_cell_length_c                    33.100782
_cell_angle_alpha                 97.819092
_cell_angle_beta                  89.554617
_cell_angle_gamma                 118.654608
_cell_volume                      6085.44066385

loop_
_atom_site_label
_atom_site_type_symbol
_atom_type_description
_atom_site_fract_x
_atom_site_fract_y
_atom_site_fract_z
_atom_type_partial_charge
C1    C     C_R   0.617761 0.911194 0.436907 0.556390
C2    C     C_R   0.745394 0.435750 0.190946 0.020169
C3    C     C_R   0.770097 0.900208 0.639794 0.025733
C4    C     C_R   0.689390 0.815914 0.656974 0.065484
C5    C     C_R   0.642783 0.861307 0.582965 0.007302
C6    C     C_R   0.053492 0.781664 0.063217 0.545251
C7    C     C_R   0.743275 0.486134 0.066457 0.531802
C8    C     C_R   0.740968 0.788847 0.066100 0.532748
C9    C     C_R   0.020263 0.730277 0.946748 0.567793
C10   C     C_R   0.712979 0.437597 0.949330 0.532783
C11   C     C_R   0.712053 0.739214 0.949797 0.531514
C12   C     C_R   0.816541 0.421665 0.164850 -0.124165
C13   C     C_R   0.810444 0.425077 0.122816 -0.012270
C14   C     C_R   0.744156 0.339900 0.246470 -0.150001
C15   C     C_R   0.742941 0.326603 0.287840 0.298269
C16   C     C_R   0.749799 0.406651 0.317764 0.074219
C17   C     C_R   0.768924 0.501772 0.306894 -0.161676
C18   C     C_R   0.777888 0.517822 0.265875 -0.003566
C19   C     C_R   0.757679 0.432878 0.235142 -0.012746
C20   C     C_R   0.611635 0.342502 0.366554 -0.165753
C21   C     C_R   0.594503 0.206679 0.456733 0.572930
C22   C     C_R   0.571704 0.295028 0.401069 0.216787
C23   C     C_R   0.752862 0.337030 0.423432 0.223302
C24   C     C_R   0.792116 0.386582 0.388568 0.311086
C25   C     C_R   0.719456 0.383332 0.359225 -0.014991
C26   C     C_R   0.640704 0.281996 0.427327 -0.008360
C27   C     C_R   0.256360 0.884167 0.391467 0.006164
C28   C     C_R   0.262530 0.973008 0.377967 -0.153661
C29   C     C_R   0.248810 0.976461 0.336366 0.005772
C30   C     C_R   0.225693 0.887745 0.307721 -0.004234
C31   C     C_R   0.210293 0.796398 0.321124 -0.123256
C32   C     C_R   0.298329 0.894137 0.433808 0.547032
C33   C     C_R   0.228712 0.794450 0.362577 0.254323
C34   C     C_R   0.225067 0.822516 0.157320 0.287734
C35   C     C_R   0.187862 0.798621 0.115922 -0.124558
C36   C     C_R   0.094432 0.898058 0.129738 -0.150287
C37   C     C_R   0.129574 0.920799 0.170888 -0.178030
C38   C     C_R   0.191689 0.880414 0.184951 0.053849
C39   C     C_1   0.209057 0.887318 0.228212 -0.002530
C40   C     C_1   0.217900 0.888304 0.264420 -0.042527
C41   C     C_R   0.117579 0.831487 0.102467 -0.022061
C42   C     C_R   0.643592 0.878444 0.396065 0.025919
C43   C     C_R   0.615051 0.904120 0.550542 0.541023
C44   C     C_R   0.581047 0.775680 0.376291 -0.190959
C45   C     C_R   0.591560 0.748863 0.335026 -0.144809
C46   C     C_R   0.665391 0.824421 0.313475 -0.008174
C47   C     C_R   0.732810 0.924567 0.333387 -0.102431
C48   C     C_R   0.723765 0.952550 0.374655 0.260505
C49   C     C_R   0.786826 0.865494 0.178262 -0.138748
C50   C     C_R   0.801299 0.871628 0.137014 -0.141979
C51   C     C_R   0.609615 0.760641 0.121140 -0.002085
C52   C     C_R   0.596396 0.756938 0.163112 -0.099284
C53   C     C_R   0.685028 0.805769 0.191159 0.020530
C54   C     C_R   0.589495 0.200205 0.570842 0.543262
C55   C     C_1   0.671986 0.801419 0.233772 -0.041424
C56   C     C_1   0.666144 0.805898 0.270055 -0.048343
C57   C     C_R   0.714985 0.814331 0.107804 0.030266
C58   C     C_R   0.624404 0.256248 0.613228 0.011244
C59   C     C_R   0.558847 0.286696 0.636870 0.247500
C60   C     C_R   0.580790 0.314575 0.679163 -0.120672
C61   C     C_R   0.669782 0.318198 0.698194 0.010100
C62   C     C_R   0.744348 0.301081 0.674144 0.002367
C63   C     C_R   0.718770 0.268762 0.631877 -0.183082
C64   C     C_R   0.773872 0.372504 0.843461 -0.148287
C65   C     C_R   0.288708 0.886843 0.548679 0.542173
C66   C     C_R   0.781464 0.389282 0.885905 -0.177880
C67   C     C_R   0.590979 0.333204 0.886459 0.261947
C68   C     C_R   0.585260 0.319969 0.843599 -0.096924
C69   C     C_R   0.676979 0.342045 0.822270 -0.013038
C70   C     C_1   0.673237 0.334592 0.778633 -0.050702
C71   C     C_1   0.673007 0.328477 0.742013 -0.042097
C72   C     C_R   0.692713 0.378491 0.907744 0.005834
C73   C     C_R   0.060499 0.741840 0.905656 0.022699
C74   C     C_R   0.102936 0.836295 0.889892 0.238622
C75   C     C_R   0.133358 0.839166 0.848990 0.007958
C76   C     C_R   0.735636 0.450656 0.106984 0.006972
C77   C     C_R   0.104185 0.743476 0.823016 0.001056
C78   C     C_R   0.062208 0.651052 0.839194 -0.156140
C79   C     C_R   0.044960 0.651032 0.880242 -0.177680
C80   C     C_R   0.161592 0.709070 0.752223 -0.007681
C81   C     C_R   0.162895 0.725278 0.711411 -0.162449
C82   C     C_R   0.106969 0.772732 0.697400 0.018236
C83   C     C_R   0.041701 0.796807 0.723636 0.275966
C84   C     C_R   0.029884 0.768117 0.762434 -0.109198
C85   C     C_R   0.097908 0.736901 0.778385 -0.005529
C86   C     C_R   0.180754 0.907311 0.651430 -0.095558
C87   C     C_R   0.658458 0.455354 0.132667 -0.129687
C88   C     C_R   0.226628 0.935732 0.614638 -0.136909
C89   C     C_R   0.154468 0.753639 0.586482 -0.135954
C90   C     C_R   0.108285 0.725481 0.623024 -0.131614
C91   C     C_R   0.125488 0.802063 0.656289 0.065267
C92   C     C_R   0.218572 0.858954 0.582755 0.017067
C93   C     C_R   0.672431 0.740691 0.909246 0.018909
C94   C     C_R   0.633765 0.651677 0.879467 -0.126829
C95   C     C_R   0.631284 0.660669 0.837975 -0.123218
C96   C     C_R   0.667177 0.758699 0.825866 0.024695
C97   C     C_R   0.699008 0.846188 0.856022 -0.132652
C98   C     C_R   0.659961 0.444628 0.174084 -0.000040
C99   C     C_R   0.700480 0.836989 0.897214 -0.135899
C100  C     C_R   0.647117 0.842728 0.768850 -0.120417
C101  C     C_R   0.660536 0.863631 0.728553 0.270064
C102  C     C_R   0.694592 0.807179 0.700476 0.023889
C103  C     C_R   0.719436 0.734344 0.713224 -0.146734
C104  C     C_R   0.710686 0.717812 0.754036 -0.135750
C105  C     C_R   0.673930 0.771819 0.782177 -0.028336
C106  C     C_R   0.590162 0.751000 0.635234 -0.114240
C107  C     C_R   0.566084 0.774432 0.598705 -0.135886
C108  C     C_R   0.745992 0.917241 0.601622 -0.106638
Cr1   Cr    Cr6+3 0.424820 0.846020 0.489780 1.006369
Cr2   Cr    Cr6+3 0.657880 0.078580 0.505700 1.026619
Cr3   Cr    Cr6+3 0.417280 0.075360 0.504550 1.022542
Cr4   Cr    Cr6+3 0.903360 0.812540 0.006510 1.010006
Cr5   Cr    Cr6+3 0.914630 0.587050 0.006280 0.985139
Cr6   Cr    Cr6+3 0.673560 0.582680 0.008540 1.009950
H1    H     H_    0.597369 0.469728 0.120616 0.129407
H2    H     H_    0.876955 0.406931 0.177382 0.104074
H3    H     H_    0.210891 0.751834 0.094567 0.112263
H4    H     H_    0.186908 0.726893 0.299145 0.103232
H5    H     H_    0.284346 0.042775 0.399618 0.172357
H6    H     H_    0.104100 0.965920 0.192097 0.104756
H7    H     H_    0.042923 0.926436 0.119854 0.128453
H8    H     H_    0.881574 0.914974 0.127751 0.118879
H9    H     H_    0.855461 0.906612 0.200104 0.101112
H10   H     H_    0.788338 0.983250 0.316206 0.097949
H11   H     H_    0.521053 0.717272 0.392291 0.108468
H12   H     H_    0.517364 0.714883 0.174015 0.101741
H13   H     H_    0.539315 0.670879 0.319597 0.111837
H14   H     H_    0.859255 0.419350 0.901440 0.130976
H15   H     H_    0.844839 0.387650 0.827211 0.109657
H16   H     H_    0.771611 0.249209 0.613582 0.126341
H17   H     H_    0.509978 0.295393 0.827016 0.118002
H18   H     H_    0.524443 0.328437 0.697512 0.111677
H19   H     H_    0.011008 0.577049 0.891301 0.136189
H20   H     H_    0.066119 0.644053 0.626483 0.103293
H21   H     H_    0.212970 0.706785 0.690963 0.117608
H22   H     H_    0.974397 0.779240 0.781975 0.110032
H23   H     H_    0.196580 0.967507 0.677069 0.106606
H24   H     H_    0.275844 0.017440 0.612467 0.150247
H25   H     H_    0.036614 0.577441 0.819661 0.112163
H26   H     H_    0.145947 0.693011 0.562095 0.121947
H27   H     H_    0.613604 0.576754 0.887993 0.146692
H28   H     H_    0.729239 0.276151 0.222630 0.106487
H29   H     H_    0.730752 0.906510 0.919674 0.108821
H30   H     H_    0.614031 0.880717 0.789753 0.113183
H31   H     H_    0.604551 0.591698 0.815391 0.109488
H32   H     H_    0.744764 0.690046 0.691549 0.135629
H33   H     H_    0.732991 0.663333 0.763588 0.121111
H34   H     H_    0.527774 0.687826 0.648595 0.104165
H35   H     H_    0.485945 0.728888 0.584344 0.126989
H36   H     H_    0.728266 0.922982 0.847803 0.094270
H37   H     H_    0.805109 0.979296 0.587079 0.123640
H38   H     H_    0.773222 0.562532 0.330271 0.097336
H39   H     H_    0.556506 0.340241 0.343600 0.119318
O1    O     O_R   0.318160 0.824460 0.443680 -0.478089
O2    O     O_R   0.645130 0.163230 0.552140 -0.522775
O3    O     O_R   0.498360 0.178430 0.555780 -0.467709
O4    O     O_R   0.328690 0.978040 0.538950 -0.496806
O5    O     O_3   0.499990 0.999990 0.500010 -0.245116
O6    O     O_R   0.828710 0.851830 0.052170 -0.523258
O7    O     O_R   0.005980 0.823990 0.047210 -0.493716
O8    O     O_R   0.031900 0.688850 0.050170 -0.528957
O9    O     O_R   0.830940 0.518420 0.048680 -0.499177
O10   O     O_R   0.668160 0.499860 0.053480 -0.525763
O11   O     O_R   0.689170 0.693840 0.050110 -0.501544
O12   O     O_R   0.525040 0.857250 0.449830 -0.517275
O13   O     O_R   0.803860 0.812940 0.962540 -0.536734
O14   O     O_R   0.982950 0.787950 0.964120 -0.473069
O15   O     O_R   0.007050 0.649970 0.960540 -0.533265
O16   O     O_R   0.807910 0.482370 0.965590 -0.516903
O17   O     O_R   0.643310 0.460980 0.963840 -0.478251
O18   O     O_R   0.666140 0.657800 0.967020 -0.495826
O19   O     O_3   0.830520 0.660760 0.007110 -0.235431
O20   O     O_R   0.684760 0.998800 0.456360 -0.464405
O21   O     O_R   0.647540 0.166310 0.470260 -0.458110
O22   O     O_R   0.500960 0.181750 0.467450 -0.488309
O23   O     O_R   0.331100 0.981120 0.457080 -0.511589
O24   O     O_R   0.315560 0.821140 0.532010 -0.519372
O25   O     O_R   0.522630 0.854180 0.531710 -0.500796
O26   O     O_R   0.682160 0.995480 0.544690 -0.530375
O27   O     O_3   0.462380 0.246012 0.405351 -0.559412
C109  C     C_3   0.425698 0.319813 0.412918 0.001738
H40   H     H_    0.338006 0.277838 0.405547 0.142148
H41   H     H_    0.459782 0.381344 0.392934 0.106502
C110  C     C_3   0.446595 0.368709 0.458074 -0.252715
H42   H     H_    0.407387 0.306552 0.477452 0.179975
H43   H     H_    0.533905 0.410805 0.466471 0.145490
C111  C     C_3   0.403044 0.444910 0.466572 -0.496093
H44   H     H_    0.441681 0.508353 0.447745 0.142229
H45   H     H_    0.420142 0.479745 0.499303 0.145369
H46   H     H_    0.315207 0.404092 0.459554 0.142374
O28   O     O_3   0.823934 0.333718 0.450703 -0.558380
C112  C     C_3   0.827555 0.390571 0.489336 -0.002362
H47   H     H_    0.754228 0.348110 0.505463 0.141565
H48   H     H_    0.835714 0.468062 0.486524 0.090153
C113  C     C_3   0.922836 0.406110 0.515740 -0.252315
H49   H     H_    0.915132 0.329061 0.518655 0.162479
H50   H     H_    0.997935 0.451112 0.500820 0.153631
C114  C     C_3   0.928996 0.463828 0.558318 -0.492879
H51   H     H_    0.938436 0.541844 0.556212 0.147019
H52   H     H_    0.998804 0.473565 0.576671 0.134517
H53   H     H_    0.855464 0.419160 0.574090 0.146558
O29   O     O_3   0.301639 0.798926 0.170452 -0.571840
C115  C     C_3   0.260119 0.690357 0.168146 0.003486
H54   H     H_    0.328075 0.674374 0.163701 0.144301
H55   H     H_    0.201648 0.644134 0.141714 0.106824
C116  C     C_3   0.210931 0.654306 0.208113 -0.264533
H56   H     H_    0.266587 0.707637 0.234389 0.181249
H57   H     H_    0.134455 0.656643 0.210362 0.148924
C117  C     C_3   0.190008 0.544163 0.210558 -0.495131
H58   H     H_    0.139219 0.489212 0.183658 0.139739
H59   H     H_    0.148106 0.518112 0.238499 0.144370
H60   H     H_    0.266717 0.542339 0.211942 0.142021
O30   O     O_3   0.213662 0.703530 0.375456 -0.582140
C118  C     C_3   0.284084 0.669990 0.357354 0.017826
H61   H     H_    0.336239 0.671100 0.382295 0.160807
H62   H     H_    0.338206 0.720281 0.335755 0.127688
C119  C     C_3   0.219253 0.558201 0.335566 -0.267360
H63   H     H_    0.173715 0.506692 0.358116 0.171961
H64   H     H_    0.161130 0.554215 0.312390 0.166018
C120  C     C_3   0.291265 0.518964 0.314659 -0.500602
H65   H     H_    0.336064 0.567928 0.291303 0.147083
H66   H     H_    0.241737 0.437687 0.299283 0.146761
H67   H     H_    0.348739 0.520567 0.337530 0.134719
C121  C     C_3   0.881728 0.396729 0.096165 -0.244256
C122  C     C_3   0.997408 0.484928 0.101561 -0.283040
C123  C     C_3   0.066709 0.464102 0.070451 -0.445313
H68   H     H_    0.066281 0.390400 0.073817 0.140956
H69   H     H_    0.036616 0.458919 0.038912 0.158036
H70   H     H_    0.150216 0.528586 0.075440 0.123024
H71   H     H_    0.000384 0.559609 0.098228 0.209321
H72   H     H_    0.030330 0.492617 0.132796 0.136926
H73   H     H_    0.878777 0.325554 0.104831 0.121794
H74   H     H_    0.851932 0.375533 0.063572 0.155369
C124  C     C_3   0.264132 0.077007 0.323629 -0.241056
C125  C     C_3   0.173176 0.099187 0.336946 -0.310808
C126  C     C_3   0.184699 0.196181 0.321418 -0.470182
H75   H     H_    0.261360 0.265223 0.333817 0.144177
H76   H     H_    0.182191 0.185565 0.287497 0.147656
H77   H     H_    0.117814 0.210242 0.331328 0.138544
H78   H     H_    0.095065 0.032058 0.324661 0.156898
H79   H     H_    0.173360 0.110702 0.370827 0.152388
H80   H     H_    0.341753 0.141990 0.337526 0.187153
H81   H     H_    0.268689 0.075294 0.290076 0.145900
O31   O     O_3   0.780584 0.056186 0.391791 -0.527733
C127  C     C_3   0.888687 0.083537 0.399588 0.009019
H82   H     H_    0.928154 0.084120 0.370407 0.110257
H83   H     H_    0.895465 0.028333 0.417618 0.121956
C128  C     C_3   0.946132 0.192557 0.424372 -0.214834
H84   H     H_    0.941448 0.248770 0.406528 0.223291
H85   H     H_    0.905767 0.193239 0.453169 0.203763
C129  C     C_3   0.063295 0.226907 0.434963 -0.515668
H86   H     H_    0.070167 0.171716 0.452719 0.141052
H87   H     H_    0.101227 0.305189 0.453734 0.143176
H88   H     H_    0.106613 0.231218 0.406724 0.143628
C130  C     C_3   0.510593 0.707168 0.091893 -0.251719
C131  C     C_3   0.496514 0.785993 0.070680 -0.292902
C132  C     C_3   0.396764 0.732172 0.041389 -0.447377
H89   H     H_    0.404250 0.677674 0.016706 0.152874
H90   H     H_    0.324704 0.688357 0.058021 0.144685
H91   H     H_    0.386890 0.791211 0.027340 0.146989
H92   H     H_    0.489154 0.843224 0.094085 0.181665
H93   H     H_    0.567121 0.828652 0.053126 0.156304
H94   H     H_    0.513185 0.646668 0.069015 0.167022
H95   H     H_    0.438107 0.665263 0.108669 0.116888
O32   O     O_3   0.898603 0.426069 0.379847 -0.553806
C133  C     C_3   0.963655 0.520927 0.405743 0.015666
H96   H     H_    0.048106 0.540717 0.401653 0.185277
H97   H     H_    0.952780 0.513768 0.438384 0.146543
C134  C     C_3   0.948593 0.611263 0.395325 -0.272586
H98   H     H_    0.979504 0.630067 0.364942 0.184104
H99   H     H_    0.862773 0.589709 0.394236 0.134978
C135  C     C_3   0.006686 0.707311 0.427655 -0.467068
H100  H     H_    0.965976 0.693696 0.456688 0.130770
H101  H     H_    0.006308 0.775013 0.417024 0.138624
H102  H     H_    0.090442 0.725272 0.433657 0.194073
C136  C     C_3   0.850088 0.311166 0.689438 -0.248869
C137  C     C_3   0.889314 0.357040 0.734296 -0.293500
C138  C     C_3   0.003294 0.377672 0.742612 -0.471799
H103  H     H_    0.007579 0.304502 0.735290 0.147082
H104  H     H_    0.059147 0.435669 0.724010 0.150810
H105  H     H_    0.028379 0.408580 0.775445 0.128693
H106  H     H_    0.888054 0.431755 0.742101 0.177800
H107  H     H_    0.837721 0.300478 0.754199 0.161789
H108  H     H_    0.844756 0.233206 0.683385 0.130961
H109  H     H_    0.912752 0.361450 0.670287 0.139575
O33   O     O_3   0.465742 0.276447 0.619630 -0.555297
C139  C     C_3   0.478644 0.376304 0.617715 0.010953
H110  H     H_    0.553558 0.424641 0.603037 0.121263
H111  H     H_    0.480726 0.416378 0.648968 0.121704
C140  C     C_3   0.384015 0.364861 0.592090 -0.245087
H112  H     H_    0.383421 0.328055 0.560428 0.167514
H113  H     H_    0.308202 0.313743 0.605341 0.166543
C141  C     C_3   0.390208 0.470014 0.590713 -0.500859
H114  H     H_    0.385584 0.505707 0.621887 0.140636
H115  H     H_    0.322207 0.459313 0.570911 0.140743
H116  H     H_    0.466041 0.523088 0.578057 0.144420
O34   O     O_3   0.498993 0.315271 0.906271 -0.566373
C142  C     C_3   0.477133 0.243806 0.934173 0.022655
H117  H     H_    0.432164 0.260728 0.958863 0.157234
H118  H     H_    0.549550 0.250112 0.949466 0.113576
C143  C     C_3   0.407973 0.132754 0.912844 -0.282363
H119  H     H_    0.332909 0.126266 0.900532 0.178284
H120  H     H_    0.450989 0.115881 0.887387 0.155078
C144  C     C_3   0.381481 0.053904 0.942115 -0.455175
H121  H     H_    0.455949 0.060727 0.955596 0.129415
H122  H     H_    0.333476 0.974091 0.925181 0.181462
H123  H     H_    0.334475 0.066561 0.966977 0.168694
O35   O     O_3   0.119255 0.925906 0.915039 -0.590937
C145  C     C_3   0.037737 0.949882 0.905872 0.009327
H124  H     H_    0.961063 0.894322 0.917096 0.191713
H125  H     H_    0.024020 0.946391 0.872476 0.105093
C146  C     C_3   0.070032 0.059910 0.926890 -0.253506
H126  H     H_    0.087530 0.066112 0.960127 0.173203
H127  H     H_    0.143751 0.116045 0.913934 0.154728
C147  C     C_3   0.982006 0.088178 0.921123 -0.487152
H128  H     H_    0.959417 0.078099 0.888145 0.141008
H129  H     H_    0.010733 0.170560 0.934550 0.141225
H130  H     H_    0.910784 0.038400 0.936913 0.153550
O36   O     O_3   0.720502 0.232223 0.299978 -0.548412
C148  C     C_3   0.775122 0.185088 0.278004 0.023623
H131  H     H_    0.807989 0.155931 0.300200 0.161115
H132  H     H_    0.846233 0.240745 0.263306 0.112776
C149  C     C_3   0.696591 0.091906 0.247177 -0.265948
H133  H     H_    0.657810 0.021494 0.262430 0.171248
H134  H     H_    0.632256 0.105778 0.235892 0.182892
C150  C     C_3   0.753071 0.071742 0.210653 -0.480442
H135  H     H_    0.788892 0.139960 0.194133 0.136169
H136  H     H_    0.694378 0.003520 0.189203 0.176241
H137  H     H_    0.817088 0.056518 0.221106 0.144667
C151  C     C_3   0.227629 0.662452 0.766274 -0.242981
C152  C     C_3   0.327164 0.742303 0.793472 -0.301064
C153  C     C_3   0.391043 0.692411 0.807017 -0.446283
H138  H     H_    0.340575 0.626990 0.823678 0.154507
H139  H     H_    0.421239 0.663187 0.780140 0.161013
H140  H     H_    0.460048 0.751083 0.827892 0.154716
H141  H     H_    0.378924 0.806237 0.776343 0.159816
H142  H     H_    0.304073 0.775581 0.821291 0.171875
H143  H     H_    0.177593 0.596491 0.782569 0.138002
H144  H     H_    0.254067 0.629090 0.739315 0.132381
C154  C     C_3   0.188357 0.942834 0.832878 -0.246733
C155  C     C_3   0.295890 0.966836 0.815081 -0.312448
C156  C     C_3   0.349047 0.073644 0.801347 -0.469751
H145  H     H_    0.302542 0.073683 0.774673 0.144118
H146  H     H_    0.354503 0.134030 0.826422 0.157571
H147  H     H_    0.430754 0.093422 0.792294 0.144943
H148  H     H_    0.349575 0.964184 0.838410 0.153691
H149  H     H_    0.284808 0.909301 0.788027 0.179518
H150  H     H_    0.134147 0.944403 0.810023 0.125675
H151  H     H_    0.203198 0.007756 0.857177 0.172362
O37   O     O_3   0.991772 0.850350 0.712019 -0.586854
C157  C     C_3   0.039090 0.951841 0.735137 -0.011194
H152  H     H_    0.053844 0.007218 0.713801 0.143915
H153  H     H_    0.120022 0.978525 0.749383 0.109406
C158  C     C_3   0.964574 0.962955 0.766858 -0.264100
H154  H     H_    0.887066 0.942318 0.751462 0.173554
H155  H     H_    0.947920 0.910252 0.789714 0.151681
C159  C     C_3   0.012855 0.073467 0.789883 -0.498555
H156  H     H_    0.088698 0.094482 0.807105 0.146364
H157  H     H_    0.955935 0.078695 0.811857 0.137368
H158  H     H_    0.028583 0.129696 0.768441 0.138379
C160  C     C_3   0.878345 0.973359 0.662487 -0.255739
C161  C     C_3   0.948962 0.072475 0.643412 -0.315536
C162  C     C_3   0.052556 0.147193 0.668894 -0.462443
H159  H     H_    0.036337 0.162875 0.701126 0.138633
H160  H     H_    0.108716 0.115123 0.666980 0.149006
H161  H     H_    0.091541 0.222053 0.656630 0.140572
H162  H     H_    0.971328 0.050869 0.612811 0.157538
H163  H     H_    0.903556 0.114823 0.640194 0.159592
H164  H     H_    0.864706 0.998929 0.693965 0.148272
H165  H     H_    0.921372 0.928367 0.663390 0.193677
O38   O     O_3   0.632452 0.932630 0.715009 -0.563628
C163  C     C_3   0.687917 0.032168 0.739055 0.010023
H166  H     H_    0.718492 0.090690 0.717892 0.148386
H167  H     H_    0.760876 0.045093 0.756683 0.107949
C164  C     C_3   0.611391 0.053024 0.766782 -0.262486
H168  H     H_    0.587292 0.103805 0.753102 0.153369
H169  H     H_    0.537207 0.979453 0.769232 0.174531
C165  C     C_3   0.662988 0.105137 0.809689 -0.476704
H170  H     H_    0.680476 0.052590 0.825176 0.131968
H171  H     H_    0.607812 0.124026 0.828166 0.151802
H172  H     H_    0.738882 0.177503 0.808041 0.153369
C166  C     C_3   0.569118 0.441773 0.199016 -0.252207
C167  C     C_3   0.493181 0.331451 0.207637 -0.285720
C168  C     C_3   0.405192 0.329701 0.234527 -0.460522
H173  H     H_    0.440459 0.379297 0.264532 0.147437
H174  H     H_    0.357525 0.358187 0.219346 0.146253
H175  H     H_    0.351160 0.248876 0.239930 0.140902
H176  H     H_    0.455990 0.279189 0.178269 0.163427
H177  H     H_    0.537657 0.300773 0.223414 0.176291
H178  H     H_    0.600306 0.495929 0.228081 0.146831
H179  H     H_    0.522149 0.468708 0.182344 0.127801
C169  C     C_3   0.804030 0.624207 0.256216 -0.252659
C170  C     C_3   0.917000 0.707199 0.272991 -0.287289
C171  C     C_3   0.941277 0.813525 0.263078 -0.456166
H180  H     H_    0.940269 0.812571 0.229479 0.155775
H181  H     H_    0.881822 0.835469 0.275960 0.154748
H182  H     H_    0.021298 0.873150 0.276762 0.148089
H183  H     H_    0.924867 0.712233 0.306710 0.158322
H184  H     H_    0.976583 0.686314 0.259227 0.166130
H185  H     H_    0.798324 0.624336 0.222830 0.161408
H186  H     H_    0.744850 0.645637 0.269993 0.139923

loop_
_geom_bond_atom_site_label_1
_geom_bond_atom_site_label_2
_ccdc_geom_bond_type
C21   C26   S    
C11   O18   A    
C159  H156  S    
C131  H93   S    
C24   O32   S    
C140  C141  S    
C55   C56   T    
C60   H18   S    
C161  H163  S    
C143  H119  S    
C44   C45   A    
C115  H55   S    
C166  C167  S    
C99   H29   S    
C54   O3    A    
C90   H20   S    
C86   C88   A    
C106  C107  A    
O31   C127  S    
C34   C35   A    
C144  H123  S    
C66   C72   A    
C135  H100  S    
C4    C102  S    
C97   H36   S    
C139  H111  S    
C150  H135  S    
C51   C57   A    
C87   H1    S    
C169  H186  S    
C113  C114  S    
C61   C71   S    
Cr2   O21   S    
C5    C43   S    
C59   C60   A    
C127  H82   S    
C104  H33   S    
C42   C44   A    
C104  C105  A    
C59   O33   S    
C128  H85   S    
C136  H109  S    
C109  H41   S    
O29   C115  S    
C149  H133  S    
C148  C149  S    
C160  H165  S    
C154  C155  S    
C100  H30   S    
C33   O30   S    
C156  H145  S    
O30   C118  S    
C7    O10   A    
C82   C91   S    
C64   C66   A    
C68   H17   S    
C121  H74   S    
C37   C38   A    
C8    C57   S    
C108  H37   S    
C150  H137  S    
C62   C136  S    
Cr1   O1    S    
C88   H24   S    
C32   O1    A    
C130  H94   S    
C166  H179  S    
C159  H158  S    
C134  H99   S    
C142  H117  S    
C13   C121  S    
C90   C91   A    
C167  C168  S    
C5    C107  A    
C143  C144  S    
C16   C25   S    
Cr4   O7    S    
C2    C19   S    
C78   C79   A    
C50   C57   A    
C14   C19   A    
C152  H142  S    
C167  H177  S    
C156  H147  S    
C168  H174  S    
C6    O7    A    
C164  H168  S    
C170  C171  S    
C122  H71   S    
C163  C164  S    
C135  H102  S    
C49   C53   A    
C66   H14   S    
C156  H146  S    
C69   C70   S    
C171  H180  S    
Cr5   O8    S    
C113  H49   S    
C127  C128  S    
C114  H52   S    
C165  H170  S    
C83   O37   S    
C126  H77   S    
C112  H48   S    
C137  H106  S    
C14   H28   S    
C43   O25   A    
C125  H78   S    
C53   C55   S    
C157  H152  S    
C151  H144  S    
C78   H25   S    
Cr5   O15   S    
C155  H149  S    
C157  C158  S    
C27   C33   A    
C10   O16   A    
C1    O20   A    
C29   C30   A    
C36   C37   A    
Cr3   O5    S    
C140  H112  S    
C38   C39   S    
C118  H62   S    
C161  C162  S    
C110  H42   S    
C132  H89   S    
C63   H16   S    
C167  H176  S    
C125  H79   S    
Cr2   O2    S    
Cr1   O25   S    
C126  H76   S    
C21   O22   A    
C23   C24   A    
C152  H141  S    
C170  H183  S    
C144  H122  S    
C77   C85   S    
C137  C138  S    
C131  C132  S    
O37   C157  S    
C120  H65   S    
C117  H58   S    
Cr5   O19   S    
C145  H125  S    
Cr6   O18   S    
C44   H11   S    
C20   H39   S    
Cr3   O23   S    
C98   C166  S    
C153  H138  S    
C8    O11   A    
C39   C40   T    
C52   H12   S    
C16   C17   A    
C129  H88   S    
C136  H108  S    
C119  H63   S    
Cr4   O14   S    
C4    C106  A    
C80   C151  S    
C149  H134  S    
C148  H132  S    
C31   H4    S    
C141  H114  S    
Cr6   O11   S    
C83   C84   A    
C6    O8    A    
C162  H159  S    
C89   H26   S    
C17   C18   A    
C73   C79   A    
C42   C48   A    
C64   C69   A    
C3    C160  S    
C75   C77   A    
C76   C87   A    
C133  H97   S    
C124  H80   S    
C82   C83   A    
C162  H161  S    
C3    C4    A    
C74   O35   S    
C52   C53   A    
C164  C165  S    
O28   C112  S    
C147  H130  S    
C9    O15   A    
C133  C134  S    
C7    C76   S    
C3    C108  A    
C123  H69   S    
C146  C147  S    
C132  H91   S    
C36   H7    S    
C8    O6    A    
C11   C93   S    
C65   O24   A    
Cr2   O26   S    
C34   O29   S    
C100  C101  A    
C163  H167  S    
C170  H184  S    
C61   C62   A    
C35   C41   A    
C107  H35   S    
C12   C13   A    
C135  H101  S    
C158  H154  S    
C46   C56   S    
C138  H103  S    
C150  H136  S    
C131  H92   S    
C120  H67   S    
C113  H50   S    
C10   C72   S    
C96   C105  S    
C101  C102  A    
C73   C74   A    
C50   H8    S    
C153  H140  S    
C48   O31   S    
C51   C130  S    
C121  C122  S    
C129  H86   S    
C109  H40   S    
O35   C145  S    
C119  C120  S    
C43   O26   A    
C160  H164  S    
C28   C29   A    
C141  H116  S    
C86   C91   A    
C54   C58   S    
C30   C31   A    
C101  O38   S    
C116  H57   S    
C145  C146  S    
C20   C25   A    
O38   C163  S    
C49   H9    S    
C117  H60   S    
C18   C19   A    
C23   C26   A    
C111  H46   S    
C86   H23   S    
C68   C69   A    
C138  H105  S    
C125  C126  S    
C70   C71   T    
C93   C99   A    
Cr2   O5    S    
C87   C98   A    
C147  H128  S    
C159  H157  S    
C34   C38   A    
C134  H98   S    
C67   O34   S    
C36   C41   A    
C142  H118  S    
C120  H66   S    
C81   H21   S    
C161  H162  S    
C143  H120  S    
C115  C116  S    
C67   C68   A    
C84   C85   A    
C22   O27   S    
C151  C152  S    
C54   O2    A    
C15   O36   S    
Cr5   O16   S    
C58   C59   A    
C155  C156  S    
C118  C119  S    
C51   C52   A    
C60   C61   A    
C142  C143  S    
C152  C153  S    
C112  C113  S    
C62   C63   A    
C139  H110  S    
Cr4   O13   S    
C146  H126  S    
C139  C140  S    
C122  H72   S    
Cr1   O12   S    
C110  C111  S    
C65   O4    A    
C20   C22   A    
C127  H83   S    
C75   C154  S    
C17   H38   S    
C124  C125  S    
C165  H171  S    
C158  C159  S    
C128  H84   S    
C109  C110  S    
C46   C47   A    
C84   H22   S    
C27   C32   S    
C116  H56   S    
C169  C170  S    
C171  H182  S    
C155  H148  S    
C157  H153  S    
C18   C169  S    
C10   O17   A    
C163  H166  S    
C165  H172  S    
Cr3   O4    S    
C111  H44   S    
C148  H131  S    
C47   H10   S    
Cr4   O19   S    
C110  H43   S    
C154  H151  S    
C94   C95   A    
C29   C124  S    
O36   C148  S    
Cr1   O24   S    
C1    C42   S    
C130  H95   S    
C166  H178  S    
C169  H185  S    
C21   O21   A    
C22   C26   A    
C134  C135  S    
C103  C104  A    
C89   C90   A    
O27   C109  S    
C5    C108  A    
C65   C92   S    
C115  H54   S    
C93   C94   A    
Cr4   O6    S    
O34   C142  S    
C95   C96   A    
C2    C12   A    
C168  H173  S    
C23   O28   S    
C81   C82   A    
C145  H124  S    
C126  H75   S    
Cr6   O19   S    
C32   O23   A    
C100  C105  A    
C80   C85   A    
Cr3   O22   S    
C153  H139  S    
C67   C72   A    
C121  H73   S    
O33   C139  S    
C129  H87   S    
C15   C16   A    
C106  H34   S    
Cr5   O9    S    
C88   C92   A    
C6    C41   S    
C11   O13   A    
C31   C33   A    
C114  H51   S    
O32   C133  S    
C146  H127  S    
C128  C129  S    
C77   C78   A    
C124  H81   S    
C137  H107  S    
C162  H160  S    
C102  C103  A    
C9    C73   S    
C151  H143  S    
Cr1   O5    S    
C97   C99   A    
C164  H169  S    
C79   H19   S    
C7    O9    A    
C147  H129  S    
C74   C75   A    
C9    O14   A    
C24   C25   A    
C118  H61   S    
C132  H90   S    
C47   C48   A    
C13   C76   A    
C1    O12   A    
C96   C97   A    
C114  H53   S    
C122  C123  S    
C30   C40   S    
C123  H68   S    
C136  C137  S    
C89   C92   A    
C171  H181  S    
C144  H121  S    
C49   C50   A    
C158  H155  S    
C138  H104  S    
C35   H3    S    
C130  C131  S    
C168  H175  S    
C95   H31   S    
Cr3   O3    S    
Cr2   O20   S    
C58   C63   A    
Cr6   O17   S    
C14   C15   A    
C94   H27   S    
C80   C81   A    
C28   H5    S    
C119  H64   S    
C123  H70   S    
C160  C161  S    
C149  C150  S    
C112  H47   S    
C141  H115  S    
C116  C117  S    
Cr6   O10   S    
C37   H6    S    
C45   H13   S    
C117  H59   S    
C140  H113  S    
C111  H45   S    
C133  H96   S    
C45   C46   A    
C64   H15   S    
C2    C98   A    
C27   C28   A    
C154  H150  S    
C12   H2    S    
C103  H32   S    
