data_mof_unit_27238.cif
_audit_creation_date              2012-12-11T14:57:57-0500
_audit_creation_method            fapswitch 2.2
_symmetry_space_group_name_H-M    P1
_symmetry_Int_Tables_number       1
_space_group_crystal_system       triclinic
_cell_length_a                    6.960885
_cell_length_b                    16.785581
_cell_length_c                    17.114955
_cell_angle_alpha                 100.350774
_cell_angle_beta                  90.323806
_cell_angle_gamma                 90.920993
_cell_volume                      1966.88224346

loop_
_atom_site_label
_atom_site_type_symbol
_atom_type_description
_atom_site_fract_x
_atom_site_fract_y
_atom_site_fract_z
_atom_type_partial_charge
O1    O     O_R   0.506180 0.438940 0.579430 -0.556187
O2    O     O_R   0.170520 0.406230 0.413590 -0.559051
O3    O     O_R   0.005180 0.561060 0.420570 -0.532483
C1    C     C_R   0.340187 0.382552 0.385932 0.913170
O4    O     O_R   0.176140 0.429310 0.578370 -0.548482
O5    O     O_R   0.010830 0.584300 0.586530 -0.516918
C2    C     C_R   0.343991 0.413899 0.605248 0.916271
O6    O     O_R   0.500520 0.415700 0.413470 -0.516366
O7    O     O_3   0.340830 0.550820 0.502480 -0.355176
V1    V     V_3+5 0.064040 0.490570 0.499540 1.577861
O8    O     O_R   0.681400 0.593770 0.586410 -0.537821
C3    C     C_R   0.852024 0.614422 0.616655 0.857423
O9    O     O_R   0.675790 0.570690 0.421630 -0.491236
C4    C     C_R   0.845179 0.585410 0.394271 0.866679
V2    V     V_3+5 0.564650 0.509430 0.500460 1.665790
O10   O     O_3   0.837730 0.449180 0.497520 -0.405572
C5    C     C_R   0.902325 0.863510 0.168687 -0.360769
C6    C     C_R   0.863329 0.635276 0.330835 -0.220188
C7    C     C_R   0.039376 0.662349 0.215371 0.039624
C8    C     C_R   0.996688 0.612508 0.270220 -0.221822
C9    C     C_R   0.764645 0.708242 0.333391 0.802649
C10   C     C_R   0.810644 0.760458 0.279108 -0.301580
C11   C     C_R   0.951568 0.737753 0.220105 -0.140242
C12   C     C_R   0.003088 0.790859 0.167071 0.455171
C13   C     C_R   0.768492 0.886242 0.229434 0.441315
C14   C     C_R   0.723293 0.835935 0.283851 0.668015
H1    H     H_    0.144087 0.642120 0.169946 0.237417
H2    H     H_    0.068928 0.555559 0.265594 0.227881
C15   C     C_R   0.919663 0.910993 0.718086 0.328581
C16   C     C_R   0.897719 0.924438 0.639243 0.245496
C17   C     C_R   0.860589 0.859310 0.578006 0.557292
C18   C     C_R   0.845782 0.781191 0.593046 0.464144
C19   C     C_R   0.866705 0.764465 0.671116 -0.206335
C20   C     C_R   0.895474 0.830913 0.735486 -0.153313
C21   C     C_R   0.871638 0.683133 0.685009 -0.009030
C22   C     C_R   0.906727 0.668192 0.763571 -0.162663
C23   C     C_R   0.896606 0.734091 0.828670 -0.180985
C24   C     C_R   0.899769 0.815582 0.815104 -0.007407
C25   C     C_R   0.950151 0.589352 0.779879 0.318830
C26   C     C_R   0.973527 0.576657 0.858692 0.219688
C27   C     C_R   0.939032 0.640750 0.921658 0.440494
C28   C     C_R   0.887720 0.716310 0.906697 0.293505
C29   C     C_R   0.438227 0.218016 0.406408 0.401588
C30   C     C_R   0.447059 0.138582 0.419212 0.469082
C31   C     C_R   0.414052 0.074500 0.357049 0.532165
C32   C     C_R   0.394382 0.088580 0.279679 0.472806
C33   C     C_R   0.402157 0.168663 0.263779 -0.223287
C34   C     C_R   0.399649 0.234626 0.329504 -0.235329
C35   C     C_R   0.406037 0.184101 0.184883 0.018343
C36   C     C_R   0.366970 0.263508 0.172256 -0.099871
C37   C     C_R   0.351338 0.329249 0.237716 -0.124681
C38   C     C_R   0.359940 0.314372 0.316901 -0.020158
C39   C     C_R   0.335118 0.278236 0.094674 -0.363278
C40   C     C_R   0.298211 0.355730 0.081144 0.577753
C41   C     C_R   0.303057 0.421042 0.143592 0.502223
C42   C     C_R   0.331144 0.408737 0.221212 0.360842
H3    H     H_    0.332945 0.229553 0.043910 0.180659
C43   C     C_R   0.411183 0.138493 0.833333 -0.421497
C44   C     C_R   0.350935 0.365596 0.670548 -0.334032
C45   C     C_R   0.420739 0.357403 0.808895 0.622599
C46   C     C_R   0.392058 0.405156 0.748843 0.257147
C47   C     C_R   0.312886 0.281271 0.654782 0.481782
C48   C     C_R   0.349963 0.233444 0.713709 -0.357846
C49   C     C_R   0.408748 0.271617 0.791027 -0.260683
C50   C     C_R   0.448586 0.222925 0.849681 0.438183
C51   C     C_R   0.359464 0.101833 0.756060 0.433603
C52   C     C_R   0.330377 0.148014 0.696954 0.638584
O11   O     O_R   0.265840 0.084300 0.086750 -0.534085
O12   O     O_R   0.589750 0.070740 0.921690 -0.572430
O13   O     O_R   0.755020 0.915730 0.913400 -0.549459
C53   C     C_R   0.421178 0.087876 0.896417 0.837716
O14   O     O_R   0.595830 0.093740 0.086480 -0.537382
O15   O     O_R   0.761150 0.938890 0.079360 -0.524767
C54   C     C_R   0.426324 0.116239 0.115375 0.812573
O16   O     O_R   0.259710 0.061140 0.920790 -0.529757
O17   O     O_3   0.425260 0.949200 0.997610 -0.380267
V3    V     V_3+5 0.702060 0.009430 0.000450 1.492939
O18   O     O_R   0.090530 0.929220 0.078150 -0.516161
C55   C     C_R   0.921134 0.913897 0.105263 0.939979
O19   O     O_R   0.084440 0.906220 0.913360 -0.526859
C56   C     C_R   0.914233 0.884119 0.884292 0.857965
V4    V     V_3+5 0.201450 0.990520 0.999290 1.574892
O20   O     O_3   0.928380 0.050800 0.002390 -0.403571
O21   O     O_3   0.148019 0.770539 0.112610 -0.518105
C57   C     C_3   0.326775 0.791305 0.151289 -0.155262
H4    H     H_    0.329578 0.785553 0.215225 0.164679
H5    H     H_    0.369485 0.854100 0.145986 0.202622
H6    H     H_    0.436649 0.749377 0.122047 0.127579
F1    F     F_    0.852415 0.870878 0.501559 -0.552843
F2    F     F_    0.817864 0.722343 0.528657 -0.635761
O22   O     O_3   0.998702 0.526816 0.719224 -0.515710
C58   C     C_3   0.850533 0.467480 0.708215 -0.168335
H7    H     H_    0.709589 0.495033 0.701206 0.114874
H8    H     H_    0.848682 0.431293 0.756427 0.141296
H9    H     H_    0.874782 0.424550 0.652478 0.146896
O23   O     O_3   0.043046 0.501871 0.869353 -0.536375
C59   C     C_3   0.963747 0.473625 0.935167 0.027355
H10   H     H_    0.810743 0.490030 0.945770 0.127773
H11   H     H_    0.052757 0.495068 0.989043 0.257718
H12   H     H_    0.969781 0.406750 0.923321 0.152910
O24   O     O_3   0.821141 0.771588 0.969704 -0.543370
C60   C     C_3   0.620067 0.760467 0.972671 -0.161570
H13   H     H_    0.582238 0.700621 0.988304 0.153930
H14   H     H_    0.548446 0.766966 0.915809 0.116320
H15   H     H_    0.562639 0.808075 0.019277 0.162081
F3    F     F_    0.280192 0.497007 0.128802 -0.651903
F4    F     F_    0.478131 0.277738 0.469033 -0.660545
F5    F     F_    0.484977 0.123678 0.492874 -0.570960
F6    F     F_    0.402854 0.997970 0.371816 -0.493270
F7    F     F_    0.355669 0.023668 0.221795 -0.618824
F8    F     F_    0.684441 0.959286 0.237283 -0.609093
F9    F     F_    0.258250 0.367456 0.006754 -0.612206
F10   F     F_    0.345411 0.475452 0.278966 -0.692300
O25   O     O_3   0.518021 0.257698 0.923929 -0.501611
C61   C     C_3   0.720182 0.262728 0.920566 -0.086053
H16   H     H_    0.769695 0.294268 0.872184 0.104067
H17   H     H_    0.784165 0.201762 0.912936 0.083322
H18   H     H_    0.774610 0.297940 0.977719 0.160743
F11   F     F_    0.343102 0.019976 0.736921 -0.625182
F12   F     F_    0.453605 0.393692 0.885169 -0.621323
F13   F     F_    0.281869 0.107923 0.623291 -0.538371
O26   O     O_3   0.380737 0.489826 0.762723 -0.531803
C62   C     C_3   0.480322 0.530585 0.830621 -0.051713
H19   H     H_    0.619934 0.502962 0.839007 0.097792
H20   H     H_    0.391663 0.534070 0.884617 0.239849
H21   H     H_    0.510301 0.593736 0.822677 0.080572
O27   O     O_3   0.246167 0.245340 0.580360 -0.475785
C63   C     C_3   0.043637 0.240004 0.581888 0.016463
H22   H     H_    0.979576 0.299869 0.581299 0.076977
H23   H     H_    0.989402 0.215130 0.633874 0.084297
H24   H     H_    0.993306 0.198544 0.527445 0.171940
F14   F     F_    0.592690 0.861358 0.341010 -0.492493
F15   F     F_    0.630210 0.729384 0.390226 -0.551254
F16   F     F_    0.956497 0.632015 0.998684 -0.650671
O28   O     O_3   0.996394 0.972299 0.775643 -0.508477
C64   C     C_3   0.880055 0.041371 0.787758 -0.094436
H25   H     H_    0.724677 0.026482 0.777399 0.109694
H26   H     H_    0.929342 0.085654 0.751015 0.147678
H27   H     H_    0.900064 0.072154 0.850033 0.138650
O29   O     O_3   0.934946 0.000425 0.621425 -0.501721
C65   C     C_3   0.764524 0.031652 0.594256 0.061159
H28   H     H_    0.633620 0.015540 0.625690 0.141935
H29   H     H_    0.746664 0.011508 0.529204 0.252192
H30   H     H_    0.776364 0.098628 0.605595 0.122262

loop_
_geom_bond_atom_site_label_1
_geom_bond_atom_site_label_2
_ccdc_geom_bond_type
C41   C42   A    
C28   O24   S    
O24   C60   S    
C6    C9    A    
C50   O25   S    
C4    C6    S    
O12   V3    S    
C21   C22   A    
C1    O6    A    
C63   H22   S    
C59   H10   S    
O28   C64   S    
C33   C35   A    
C57   H4    S    
C23   C24   A    
C1    C38   S    
C22   C23   A    
C65   H29   S    
O5    C3    A    
C16   C17   A    
C31   F6    S    
C43   C53   S    
C62   H20   S    
V3    O20   S    
O11   C54   A    
V2    O10   S    
C5    C55   S    
C60   H15   S    
C37   C42   A    
C27   C28   A    
C9    F15   S    
C23   C28   A    
O12   C53   A    
O13   C56   A    
O14   V3    S    
C32   C33   A    
O8    V2    S    
C43   C51   A    
C18   F2    S    
C7    C8    A    
C17   F1    S    
C11   C12   A    
O1    V2    S    
C7    H1    S    
C29   C34   A    
C57   H5    S    
C51   C52   A    
O1    C2    A    
O9    C4    A    
O13   V3    S    
C26   O23   S    
C64   H27   S    
C52   F13   S    
C2    C44   S    
C27   F16   S    
C59   H11   S    
C36   C37   A    
C30   F5    S    
O29   C65   S    
C48   C52   A    
C44   C46   A    
C5    C12   A    
C16   O29   S    
C41   F3    S    
C37   C38   A    
C36   C39   A    
C62   H19   S    
O17   V3    S    
O19   V4    S    
C65   H30   S    
O17   V4    S    
O22   C58   S    
O4    C2    A    
C39   H3    S    
O18   C55   A    
C64   H25   S    
C62   H21   S    
C8    H2    S    
C61   H17   S    
C13   C14   A    
C31   C32   A    
C15   C20   A    
C22   C25   A    
C58   H9    S    
C45   C46   A    
O2    C1    A    
C29   C30   A    
C15   C16   A    
O18   V4    S    
C43   C50   A    
C33   C34   A    
C42   F10   S    
C61   H18   S    
O23   C59   S    
C47   C48   A    
C58   H8    S    
C19   C20   A    
O15   C55   A    
C40   F9    S    
C29   F4    S    
O21   C57   S    
C3    C21   S    
C60   H14   S    
O3    C4    A    
O14   C54   A    
C26   C27   A    
C15   O28   S    
C35   C36   A    
O6    V2    S    
C51   F11   S    
C32   F7    S    
C24   C56   S    
O27   C63   S    
O2    V1    S    
C63   H24   S    
C25   C26   A    
C59   H12   S    
C14   F14   S    
C30   C31   A    
C7    C11   A    
C64   H26   S    
O7    V1    S    
C57   H6    S    
C40   C41   A    
C44   C47   A    
C20   C24   A    
C25   O22   S    
C17   C18   A    
O19   C56   A    
C63   H23   S    
O5    V1    S    
O8    C3    A    
O16   V4    S    
C39   C40   A    
C45   C49   A    
O11   V4    S    
C49   C50   A    
O9    V2    S    
C12   O21   S    
C5    C13   A    
O4    V1    S    
O3    V1    S    
V1    O10   S    
C65   H28   S    
C18   C19   A    
C53   O16   A    
C10   C11   A    
C47   O27   S    
C58   H7    S    
C19   C21   A    
C45   F12   S    
C6    C8    A    
O25   C61   S    
O7    V2    S    
C60   H13   S    
C13   F8    S    
C48   C49   A    
C34   C38   A    
V4    O20   S    
C10   C14   A    
O15   V3    S    
C35   C54   S    
C46   O26   S    
O26   C62   S    
C9    C10   A    
C61   H16   S    
