data_mof_unit_64789.cif
_audit_creation_date              2012-10-26T17:59:26-0400
_audit_creation_method            fapswitch 2.2
_symmetry_space_group_name_H-M    P1
_symmetry_Int_Tables_number       1
_space_group_crystal_system       triclinic
_cell_length_a                    30.421595
_cell_length_b                    30.421558
_cell_length_c                    32.210463
_cell_angle_alpha                 90.0
_cell_angle_beta                  89.999966
_cell_angle_gamma                 90.000013
_cell_volume                      29809.891816

loop_
_atom_site_label
_atom_site_type_symbol
_atom_type_description
_atom_site_fract_x
_atom_site_fract_y
_atom_site_fract_z
_atom_type_partial_charge
C1    C     C_R   0.584923 0.000000 0.500000 0.510082
C2    C     C_R   0.000000 0.725460 0.500000 -0.064735
C3    C     C_R   1.000000 0.500000 0.206383 0.041320
C4    C     C_R   1.000000 0.500000 0.293618 0.041114
C5    C     C_R   0.500000 1.000000 0.293618 0.041266
C6    C     C_R   1.000000 0.500000 0.706382 0.041202
C7    C     C_R   0.500000 0.000000 0.706383 0.041362
C8    C     C_1   0.500000 0.000000 0.838425 -0.019015
C9    C     C_1   1.000000 0.500000 0.838424 -0.019022
C10   C     C_1   0.500000 1.000000 0.161575 -0.019008
C11   C     C_1   0.000000 0.500000 0.161576 -0.019038
C12   C     C_1   0.000000 0.500000 0.338425 -0.019003
C13   C     C_R   0.274540 0.000000 0.499999 -0.064781
C14   C     C_1   0.500000 1.000000 0.338425 -0.018995
C15   C     C_1   1.000000 0.500000 0.661575 -0.018989
C16   C     C_1   0.500000 0.000000 0.661576 -0.019001
C17   C     C_1   0.500000 0.000000 0.624075 0.012558
C18   C     C_1   1.000000 0.500000 0.624074 0.012622
C19   C     C_1   0.500000 0.000000 0.375926 0.012594
C20   C     C_1   1.000000 0.500000 0.375926 0.012636
C21   C     C_1   0.000000 0.500000 0.124075 0.012529
C22   C     C_1   0.500000 0.000000 0.124075 0.012548
C23   C     C_1   1.000000 0.500000 0.875925 0.012536
C24   C     C_R   1.000000 0.274540 0.500000 -0.064735
C25   C     C_1   0.500000 1.000000 0.875926 0.012586
C26   C     C_R   0.702385 0.977364 0.469014 0.402944
C27   C     C_R   0.022623 0.702385 0.469007 0.402884
C28   C     C_R   0.297615 0.022639 0.469017 0.402943
C29   C     C_R   0.977381 0.297615 0.469004 0.402885
C30   C     C_R   0.702385 0.022636 0.530983 0.403041
C31   C     C_R   0.022618 0.297615 0.530995 0.402917
C32   C     C_R   0.297615 0.977360 0.530980 0.403038
C33   C     C_R   0.977377 0.702385 0.530992 0.402916
C34   C     C_R   0.202385 0.477357 0.969020 0.403058
C35   C     C_R   0.225460 0.500000 1.000000 -0.064813
C36   C     C_R   0.522647 0.202385 0.969022 0.402922
C37   C     C_R   0.797615 0.522638 0.969017 0.403059
C38   C     C_R   0.477359 0.797615 0.969018 0.402923
C39   C     C_R   0.202385 0.522643 0.030980 0.403083
C40   C     C_R   0.522641 0.797615 0.030979 0.403026
C41   C     C_R   0.797615 0.477361 0.030982 0.403083
C42   C     C_R   0.477353 0.202385 0.030975 0.403023
C43   C     C_R   0.656541 0.977766 0.468138 0.233565
C44   C     C_R   0.022222 0.656541 0.468131 0.233546
C45   C     C_R   0.343459 0.022238 0.468140 0.233565
C46   C     C_R   0.500000 0.225460 0.999999 -0.064775
C47   C     C_R   0.977782 0.343459 0.468128 0.233548
C48   C     C_R   0.656542 0.022235 0.531860 0.233675
C49   C     C_R   0.022218 0.343459 0.531871 0.233566
C50   C     C_R   0.343458 0.977761 0.531857 0.233673
C51   C     C_R   0.977778 0.656541 0.531868 0.233565
C52   C     C_R   0.156542 0.477758 0.968143 0.233664
C53   C     C_R   0.522245 0.156541 0.968145 0.233544
C54   C     C_R   0.843458 0.522238 0.968141 0.233666
C55   C     C_R   0.477761 0.843459 0.968141 0.233545
C56   C     C_R   0.156542 0.522242 0.031856 0.233692
C57   C     C_R   0.774540 0.500000 1.000000 -0.064813
C58   C     C_R   0.522240 0.843458 0.031857 0.233650
C59   C     C_R   0.843458 0.477762 0.031859 0.233694
C60   C     C_R   0.477754 0.156542 0.031853 0.233648
C61   C     C_R   0.633094 0.000000 0.499999 -0.115367
C62   C     C_R   1.000000 0.633093 0.500000 -0.115294
C63   C     C_R   0.366906 1.000000 0.499999 -0.115369
C64   C     C_R   0.000000 0.366907 0.500000 -0.115291
C65   C     C_R   0.133094 0.500000 1.000000 -0.115407
C66   C     C_R   0.500000 0.133094 0.999999 -0.115366
C67   C     C_R   0.866906 0.500000 1.000000 -0.115403
C68   C     C_R   0.500000 0.774540 0.999999 -0.064777
C69   C     C_R   0.500000 0.866906 0.999999 -0.115364
C70   C     C_R   0.796940 0.986578 0.535384 -0.018760
C71   C     C_R   0.013433 0.796940 0.535381 -0.018830
C72   C     C_R   0.203060 0.013418 0.535386 -0.018761
C73   C     C_R   0.000000 0.584923 0.500000 0.509952
C74   C     C_R   0.986560 0.203060 0.535379 -0.018831
C75   C     C_R   0.796940 0.013421 0.464614 -0.018846
C76   C     C_R   0.013439 0.203060 0.464620 -0.018854
C77   C     C_R   0.203060 0.986583 0.464612 -0.018847
C78   C     C_R   0.986567 0.796940 0.464618 -0.018854
C79   C     C_R   0.296940 0.486583 0.035387 -0.018744
C80   C     C_R   0.513407 0.296939 0.035389 -0.018759
C81   C     C_R   0.703060 0.513421 0.035385 -0.018744
C82   C     C_R   0.486585 0.703061 0.035386 -0.018758
C83   C     C_R   0.296940 0.513416 0.964613 -0.018776
C84   C     C_R   0.415077 1.000000 0.500000 0.510084
C85   C     C_R   0.513415 0.703060 0.964611 -0.018838
C86   C     C_R   0.703060 0.486579 0.964614 -0.018775
C87   C     C_R   0.486594 0.296940 0.964609 -0.018840
C88   C     C_R   0.842740 0.986583 0.535546 0.347662
C89   C     C_R   0.013428 0.842740 0.535543 0.347634
C90   C     C_R   0.157260 0.013413 0.535548 0.347662
C91   C     C_R   0.986565 0.157260 0.535541 0.347632
C92   C     C_R   0.842740 0.013417 0.464453 0.347625
C93   C     C_R   0.013434 0.157259 0.464459 0.347609
C94   C     C_R   0.157260 0.986588 0.464451 0.347627
C95   C     C_R   0.000000 0.415077 0.500000 0.509950
C96   C     C_R   0.986572 0.842740 0.464457 0.347609
C97   C     C_R   0.342740 0.486588 0.035548 0.347696
C98   C     C_R   0.513402 0.342739 0.035551 0.347686
C99   C     C_R   0.657260 0.513416 0.035547 0.347693
C100  C     C_R   0.486590 0.657260 0.035548 0.347686
C101  C     C_R   0.342740 0.513412 0.964451 0.347670
C102  C     C_R   0.513410 0.657260 0.964450 0.347650
C103  C     C_R   0.657260 0.486584 0.964453 0.347671
C104  C     C_R   0.486598 0.342740 0.964448 0.347651
C105  C     C_R   0.866189 1.000000 0.500000 0.022921
C106  C     C_R   0.084923 0.500000 1.000000 0.510212
C107  C     C_R   0.000000 0.866189 0.500000 0.022941
C108  C     C_R   0.133811 0.000000 0.500000 0.022919
C109  C     C_R   1.000000 0.133811 0.500000 0.022945
C110  C     C_R   0.366189 0.500000 1.000000 0.022879
C111  C     C_R   0.500000 0.366189 1.000000 0.022904
C112  C     C_R   0.633811 0.500000 1.000000 0.022881
C113  C     C_R   0.500000 0.633811 1.000000 0.022906
C114  C     C_R   0.773820 0.999999 0.499999 -0.027911
C115  C     C_R   0.000000 0.773820 0.500000 -0.027864
C116  C     C_R   0.226180 0.000000 0.499999 -0.027911
C117  C     C_R   0.500000 0.084923 1.000000 0.510076
C118  C     C_R   1.000000 0.226180 0.500000 -0.027862
C119  C     C_R   0.273820 0.500000 1.000000 -0.027961
C120  C     C_R   0.500001 0.273820 0.999999 -0.027917
C121  C     C_R   0.726180 0.500000 1.000000 -0.027962
C122  C     C_R   0.500000 0.726180 0.999999 -0.027915
C123  C     C_R   0.000000 0.914637 0.500000 0.576414
C124  C     C_R   0.085363 0.000000 0.500000 0.576407
C125  C     C_R   1.000000 0.085363 0.500000 0.576421
C126  C     C_R   0.914637 0.000000 0.500000 0.576412
C127  C     C_R   0.500000 0.414637 1.000000 0.576360
C128  C     C_R   0.915077 0.500000 1.000000 0.510212
C129  C     C_R   0.585363 0.500000 1.000000 0.576364
C130  C     C_R   0.500000 0.585363 1.000000 0.576368
C131  C     C_R   0.414637 0.500000 0.000000 0.576360
C132  C     C_R   0.500000 0.000000 0.579422 0.530307
C133  C     C_R   1.000000 0.500000 0.579422 0.530056
C134  C     C_R   0.500000 0.000000 0.420578 0.530156
C135  C     C_R   1.000000 0.500000 0.420578 0.530028
C136  C     C_R   0.000000 0.500000 0.079422 0.530418
C137  C     C_R   0.500000 0.000000 0.079422 0.530281
C138  C     C_R   1.000000 0.500000 0.920578 0.530381
C139  C     C_R   0.500000 0.915077 1.000000 0.510073
C140  C     C_R   0.500000 0.000000 0.920578 0.530135
C141  C     C_R   0.524968 0.968956 0.771738 -0.080238
C142  C     C_R   0.024571 0.531357 0.771737 -0.080248
C143  C     C_R   0.475032 0.031043 0.771738 -0.080239
C144  C     C_R   0.975429 0.468643 0.771737 -0.080247
C145  C     C_R   0.530299 0.025866 0.228263 -0.080232
C146  C     C_R   0.023199 0.467620 0.228263 -0.080270
C147  C     C_R   0.469701 0.974134 0.228263 -0.080231
C148  C     C_R   0.976801 0.532380 0.228263 -0.080270
C149  C     C_R   0.023197 0.467618 0.271738 -0.080261
C150  C     C_R   0.725460 1.000000 0.499999 -0.064783
C151  C     C_R   0.530300 0.025864 0.271738 -0.080224
C152  C     C_R   0.976803 0.532382 0.271738 -0.080262
C153  C     C_R   0.469700 0.974135 0.271738 -0.080224
C154  C     C_R   0.024570 0.531358 0.728262 -0.080237
C155  C     C_R   0.524970 0.968958 0.728263 -0.080238
C156  C     C_R   0.975430 0.468642 0.728262 -0.080236
C157  C     C_R   0.475030 0.031042 0.728263 -0.080240
C158  C     C_R   0.500000 0.000000 0.793618 0.041223
C159  C     C_R   1.000000 0.500000 0.793617 0.041353
C160  C     C_R   0.500000 1.000000 0.206382 0.041364
Cu1   Cu    Cu3+1 0.500000 0.044010 0.500000 1.058945
Cu2   Cu    Cu3+1 1.000000 0.000000 0.459020 1.279707
Cu3   Cu    Cu3+1 0.500000 0.500000 0.040980 1.280139
Cu4   Cu    Cu3+1 0.500000 0.500000 0.959020 1.279957
Cu5   Cu    Cu3+1 0.955990 0.500000 0.500000 1.059452
Cu6   Cu    Cu3+1 0.500000 0.955990 0.500000 1.058946
Cu7   Cu    Cu3+1 0.044010 0.500000 0.500000 1.059451
Cu8   Cu    Cu3+1 0.000000 0.544010 0.000000 1.058433
Cu9   Cu    Cu3+1 0.455990 0.000000 0.000000 1.058944
Cu10  Cu    Cu3+1 0.000000 0.455990 0.000000 1.058434
Cu11  Cu    Cu3+1 0.544010 0.000000 0.000000 1.058945
Cu12  Cu    Cu3+1 1.000000 0.000000 0.540980 1.279890
F1    F     F_    0.724520 0.954801 0.439202 -0.546295
F2    F     F_    0.545222 0.224520 0.939218 -0.546319
F3    F     F_    0.775479 0.545205 0.939207 -0.546096
F4    F     F_    0.454790 0.775480 0.939209 -0.546318
F5    F     F_    0.224521 0.545213 0.060787 -0.546052
F6    F     F_    0.545211 0.775479 0.060787 -0.546118
F7    F     F_    0.775479 0.454795 0.060792 -0.546053
F8    F     F_    0.454777 0.224521 0.060779 -0.546120
F9    F     F_    0.863904 0.972624 0.570232 -0.561596
F10   F     F_    0.027398 0.863905 0.570225 -0.561670
F11   F     F_    0.136096 0.027366 0.570235 -0.561597
F12   F     F_    0.045175 0.724520 0.439187 -0.546408
F13   F     F_    0.972590 0.136094 0.570220 -0.561674
F14   F     F_    0.863905 0.027375 0.429767 -0.561711
F15   F     F_    0.027410 0.136094 0.429780 -0.561735
F16   F     F_    0.136095 0.972634 0.429764 -0.561707
F17   F     F_    0.972602 0.863906 0.429775 -0.561734
F18   F     F_    0.363904 0.472634 0.070236 -0.561500
F19   F     F_    0.527344 0.363903 0.070243 -0.561531
F20   F     F_    0.636095 0.527374 0.070233 -0.561504
F21   F     F_    0.472638 0.636096 0.070237 -0.561532
F22   F     F_    0.363905 0.527365 0.929764 -0.561570
F23   F     F_    0.275480 0.045206 0.439207 -0.546296
F24   F     F_    0.527362 0.636095 0.929762 -0.561641
F25   F     F_    0.636095 0.472626 0.929767 -0.561568
F26   F     F_    0.472656 0.363904 0.929757 -0.561637
F27   F     F_    0.954834 0.275480 0.439181 -0.546407
F28   F     F_    0.724521 0.045200 0.560795 -0.546114
F29   F     F_    0.045166 0.275480 0.560818 -0.546334
F30   F     F_    0.275479 0.954793 0.560790 -0.546114
F31   F     F_    0.954824 0.724520 0.560812 -0.546334
F32   F     F_    0.224521 0.454787 0.939212 -0.546097
H1    H     H_    0.544412 0.944790 0.711733 0.139940
H2    H     H_    0.553888 0.046007 0.211733 0.139927
H3    H     H_    0.958737 0.557591 0.211734 0.139970
H4    H     H_    0.446112 0.953993 0.211733 0.139928
H5    H     H_    0.043703 0.555770 0.788267 0.139937
H6    H     H_    0.544407 0.944786 0.788268 0.140159
H7    H     H_    0.956297 0.444230 0.788267 0.139938
H8    H     H_    0.455593 0.055214 0.788268 0.140157
H9    H     H_    0.779430 0.975643 0.562792 0.202775
H10   H     H_    0.024377 0.779431 0.562786 0.202636
H11   H     H_    0.220570 0.024349 0.562795 0.202776
H12   H     H_    0.043698 0.555774 0.711732 0.140203
H13   H     H_    0.975611 0.220569 0.562782 0.202634
H14   H     H_    0.779431 0.024356 0.437205 0.202640
H15   H     H_    0.024388 0.220569 0.437217 0.202600
H16   H     H_    0.220569 0.975652 0.437203 0.202641
H17   H     H_    0.975623 0.779431 0.437213 0.202602
H18   H     H_    0.279430 0.475652 0.062797 0.202823
H19   H     H_    0.524330 0.279430 0.062801 0.202774
H20   H     H_    0.720569 0.524355 0.062794 0.202824
H21   H     H_    0.475655 0.720570 0.062796 0.202771
H22   H     H_    0.279431 0.524347 0.937203 0.202780
H23   H     H_    0.455588 0.055210 0.711733 0.139939
H24   H     H_    0.524345 0.720569 0.937201 0.202642
H25   H     H_    0.720569 0.475645 0.937206 0.202782
H26   H     H_    0.475671 0.279431 0.937196 0.202646
H27   H     H_    0.605604 0.966569 0.432624 0.329572
H28   H     H_    0.033413 0.605601 0.432618 0.329497
H29   H     H_    0.394396 0.033436 0.432626 0.329573
H30   H     H_    0.966594 0.394400 0.432615 0.329495
H31   H     H_    0.605605 0.033434 0.567373 0.329706
H32   H     H_    0.033407 0.394400 0.567384 0.329532
H33   H     H_    0.394394 0.966561 0.567372 0.329707
H34   H     H_    0.956301 0.444226 0.711732 0.140205
H35   H     H_    0.966587 0.605601 0.567381 0.329533
H36   H     H_    0.105606 0.466556 0.932629 0.329713
H37   H     H_    0.533447 0.105606 0.932630 0.329553
H38   H     H_    0.894395 0.533438 0.932627 0.329712
H39   H     H_    0.466561 0.894395 0.932627 0.329550
H40   H     H_    0.105606 0.533444 0.067370 0.329737
H41   H     H_    0.533441 0.894394 0.067371 0.329690
H42   H     H_    0.894395 0.466562 0.067372 0.329736
H43   H     H_    0.466550 0.105607 0.067368 0.329692
H44   H     H_    0.553893 0.046002 0.288268 0.140097
H45   H     H_    0.041258 0.442405 0.288268 0.140332
H46   H     H_    0.446107 0.953998 0.288268 0.140096
H47   H     H_    0.958742 0.557594 0.288268 0.140330
H48   H     H_    0.041262 0.442409 0.211733 0.139970
O1    O     O_R   0.564280 0.037160 0.499960 -0.490909
O2    O     O_R   0.462840 0.064280 0.999960 -0.490903
O3    O     O_R   0.935720 0.462840 0.999960 -0.490885
O4    O     O_R   0.537160 0.935720 0.999960 -0.490905
O5    O     O_R   0.064280 0.462840 0.000040 -0.490849
O6    O     O_R   0.462840 0.935720 0.000040 -0.490828
O7    O     O_R   0.935720 0.537160 0.000040 -0.490850
O8    O     O_R   0.537160 0.064280 0.000040 -0.490825
O9    O     O_R   0.500000 0.037160 0.559810 -0.497696
O10   O     O_R   0.962840 0.500000 0.559810 -0.497451
O11   O     O_R   0.500000 0.962840 0.559810 -0.497696
O12   O     O_R   0.962840 0.564280 0.499960 -0.490864
O13   O     O_R   0.037160 0.500000 0.559810 -0.497451
O14   O     O_R   0.500000 0.962840 0.440190 -0.497473
O15   O     O_R   0.962840 0.500000 0.440190 -0.497398
O16   O     O_R   0.500000 0.037160 0.440190 -0.497475
O17   O     O_R   0.037160 0.500000 0.440190 -0.497399
O18   O     O_R   0.000000 0.537160 0.059810 -0.497748
O19   O     O_R   0.462840 0.000000 0.059810 -0.497674
O20   O     O_R   0.000000 0.462840 0.059810 -0.497747
O21   O     O_R   0.537160 0.000000 0.059810 -0.497673
O22   O     O_R   0.000000 0.462840 0.940190 -0.497697
O23   O     O_R   0.435720 0.962840 0.499960 -0.490907
O24   O     O_R   0.462840 0.000000 0.940190 -0.497451
O25   O     O_R   0.000000 0.537160 0.940190 -0.497697
O26   O     O_R   0.537160 0.000000 0.940190 -0.497451
O27   O     O_R   0.000080 0.935710 0.534590 -0.457217
O28   O     O_R   0.064290 0.000080 0.534590 -0.457206
O29   O     O_R   0.999920 0.064290 0.534590 -0.457224
O30   O     O_R   0.935710 0.999920 0.534590 -0.457204
O31   O     O_R   0.000080 0.064290 0.465410 -0.457247
O32   O     O_R   0.064290 0.999920 0.465410 -0.457226
O33   O     O_R   0.999920 0.935710 0.465410 -0.457247
O34   O     O_R   0.037160 0.435720 0.499960 -0.490866
O35   O     O_R   0.935710 0.000080 0.465410 -0.457234
O36   O     O_R   0.500080 0.435710 0.034590 -0.457191
O37   O     O_R   0.564290 0.500080 0.034590 -0.457203
O38   O     O_R   0.499920 0.564290 0.034590 -0.457193
O39   O     O_R   0.435710 0.499920 0.034590 -0.457194
O40   O     O_R   0.500080 0.564290 0.965410 -0.457223
O41   O     O_R   0.564290 0.499920 0.965410 -0.457221
O42   O     O_R   0.499920 0.435710 0.965410 -0.457214
O43   O     O_R   0.435710 0.500080 0.965410 -0.457224
O44   O     O_3   0.636361 0.956495 0.435331 -0.586886
O45   O     O_R   0.564280 0.962840 0.500040 -0.490815
O46   O     O_3   0.043481 0.636361 0.435317 -0.587085
O47   O     O_3   0.363639 0.043512 0.435335 -0.586884
O48   O     O_3   0.956528 0.363639 0.435312 -0.587089
O49   O     O_3   0.636362 0.043507 0.564666 -0.586568
O50   O     O_3   0.043473 0.363639 0.564687 -0.586979
O51   O     O_3   0.363638 0.956486 0.564662 -0.586565
O52   O     O_3   0.956518 0.636361 0.564682 -0.586976
O53   O     O_3   0.136362 0.456480 0.935341 -0.586566
O54   O     O_3   0.543526 0.136361 0.935345 -0.586956
O55   O     O_3   0.863638 0.543512 0.935336 -0.586569
O56   O     O_R   0.962840 0.435720 0.500040 -0.490861
O57   O     O_3   0.456485 0.863639 0.935338 -0.586959
O58   O     O_3   0.136362 0.543520 0.064658 -0.586518
O59   O     O_3   0.543517 0.863638 0.064660 -0.586610
O60   O     O_3   0.863638 0.456487 0.064663 -0.586521
O61   O     O_3   0.456472 0.136362 0.064653 -0.586606
O62   O     O_R   0.435720 0.037160 0.500040 -0.490814
O63   O     O_R   0.037160 0.564280 0.500040 -0.490860
O64   O     O_R   0.064280 0.537160 0.999960 -0.490883

loop_
_geom_bond_atom_site_label_1
_geom_bond_atom_site_label_2
_ccdc_geom_bond_type
C69   C139  S    
C78   C115  A    
C51   C62   A    
C138  O22   A    
Cu11  O8    S    
C73   O63   A    
C123  O27   A    
Cu1   O16   S    
C28   F23   S    
C18   C133  S    
C34   C35   A    
C103  F25   S    
C83   C119  A    
C36   C53   A    
C38   C55   A    
C78   C96   A    
C29   F27   S    
C112  C129  S    
C4    C12   S    
C84   O62   A    
C73   O12   A    
H30   O48   S    
C108  C124  S    
C4    C152  A    
Cu4   O41   S    
C40   C58   A    
C140  O26   A    
C25   C140  S    
C151  H44   S    
C81   C99   A    
C26   F1    S    
C101  C110  A    
C33   F31   S    
C76   C118  A    
C81   C121  A    
C103  C112  A    
C37   F3    S    
C38   F4    S    
C39   C56   A    
C129  O41   A    
C12   C20   T    
C86   C121  A    
Cu6   O14   S    
C110  C131  S    
C136  O20   A    
C85   H24   S    
C132  O11   A    
C44   O46   S    
C114  C150  S    
C71   H10   S    
C10   C160  S    
C101  F22   S    
C43   C61   A    
Cu6   O45   S    
Cu5   O56   S    
Cu3   O36   S    
C49   O50   S    
H29   O47   S    
C86   H25   S    
C104  F26   S    
C14   C19   T    
C79   C97   A    
C155  H1    S    
H40   O58   S    
H41   O59   S    
C133  O13   A    
C7    C157  A    
H42   O60   S    
C95   O34   A    
C5    C151  A    
C131  O39   A    
C63   C84   S    
C139  O4    A    
C80   H19   S    
C137  O19   A    
C47   O48   S    
C147  C153  A    
C3    C11   S    
Cu1   O9    S    
C72   H11   S    
C90   F11   S    
C82   C122  A    
Cu4   O43   S    
C37   C57   A    
C52   C65   A    
Cu3   O37   S    
C15   C18   T    
C30   F28   S    
H43   O61   S    
C13   C32   A    
C128  O3    A    
C124  O28   A    
Cu2   O31   S    
C19   C134  S    
C22   C137  S    
Cu10  O3    S    
C29   C47   A    
C30   C48   A    
Cu8   O7    S    
C94   F16   S    
Cu7   O34   S    
C99   F20   S    
C92   F14   S    
C79   H18   S    
C76   H15   S    
C139  O6    A    
C77   C94   A    
C135  O17   A    
C148  H3    S    
C59   C67   A    
C27   C44   A    
C34   F32   S    
Cu11  O4    S    
C62   C73   S    
C36   C46   A    
Cu8   O64   S    
Cu5   Cu7   S    
C49   C64   A    
C50   C63   A    
Cu9   Cu11  S    
Cu9   O24   S    
C147  C160  A    
C124  O32   A    
C74   C118  A    
C113  C130  S    
C131  O43   A    
C54   O55   S    
C154  H12   S    
C48   O49   S    
C42   F8    S    
Cu4   O40   S    
C9    C23   T    
C11   C21   T    
C144  C156  A    
Cu11  O21   S    
C72   C90   A    
C141  C158  A    
C46   C120  S    
C55   C69   A    
C142  C154  A    
C2    C27   A    
C56   O58   S    
Cu12  O29   S    
C125  O29   A    
Cu9   O6    S    
C143  C158  A    
H28   O46   S    
C81   H20   S    
C83   C101  A    
C41   F7    S    
C148  C152  A    
C98   F19   S    
H32   O50   S    
H33   O51   S    
C143  H8    S    
C153  H46   S    
C90   C108  A    
H27   O44   S    
C67   C128  S    
Cu10  O20   S    
C88   C105  A    
C144  H7    S    
C32   F30   S    
C147  H4    S    
Cu12  O27   S    
Cu2   Cu12  S    
C52   O53   S    
C142  H5    S    
C6    C156  A    
C85   C102  A    
C93   C109  A    
C83   H22   S    
C36   F2    S    
C23   C138  S    
C107  C123  S    
C142  C159  A    
C8    C158  S    
Cu4   O42   S    
C100  F21   S    
C10   C22   T    
C1    O45   A    
C59   O60   S    
C30   C150  A    
C42   C46   A    
C24   C29   A    
C125  O31   A    
C16   C17   T    
C66   C117  S    
C79   C119  A    
C106  O5    A    
C13   C28   A    
Cu1   O62   S    
Cu2   O35   S    
Cu8   Cu10  S    
H37   O54   S    
C91   F13   S    
C60   C66   A    
C43   O44   S    
C17   C132  S    
C149  H45   S    
C8    C25   T    
C31   C49   A    
C39   F5    S    
C1    O1    A    
Cu8   O25   S    
C134  O16   A    
C128  O7    A    
C26   C150  A    
C68   C122  S    
C117  O8    A    
C141  C155  A    
C156  H34   S    
C146  H48   S    
C74   C91   A    
C35   C39   A    
Cu7   O13   S    
Cu8   O18   S    
C76   C93   A    
C146  C149  A    
C2    C115  S    
C89   C107  A    
Cu5   O12   S    
C85   C122  A    
Cu6   O11   S    
C144  C159  A    
C5    C14   S    
C6    C154  A    
Cu11  O26   S    
C2    C33   A    
C7    C16   S    
C96   C107  A    
C38   C68   A    
C95   O56   A    
C47   C64   A    
C80   C98   A    
C70   H9    S    
C127  O36   A    
C58   O59   S    
Cu12  O28   S    
C1    C61   S    
C58   C69   A    
C60   O61   S    
Cu2   O32   S    
C33   C51   A    
C87   H26   S    
C72   C116  A    
C34   C52   A    
Cu7   O63   S    
C89   F10   S    
C55   O57   S    
C24   C31   A    
C41   C57   A    
C102  C113  A    
C91   C109  A    
C88   F9    S    
C126  O30   A    
H39   O57   S    
Cu10  O5    S    
Cu6   O23   S    
C13   C116  S    
C157  H23   S    
C87   C104  A    
Cu2   O33   S    
C92   C105  A    
C7    C155  A    
H38   O55   S    
C40   C68   A    
C84   O23   A    
C130  O40   A    
H31   O49   S    
C141  H6    S    
Cu3   O39   S    
H36   O53   S    
C134  O14   A    
C80   C120  A    
C35   C119  S    
Cu3   Cu4   S    
C70   C88   A    
Cu1   O1    S    
C106  O64   A    
C70   C114  A    
C4    C149  A    
C94   C108  A    
C105  C126  S    
C45   O47   S    
C51   O52   S    
C9    C159  S    
C56   C65   A    
C27   F12   S    
C123  O33   A    
C6    C15   S    
C77   C116  A    
C21   C136  S    
Cu1   Cu6   S    
Cu12  O30   S    
C129  O37   A    
C3    C148  A    
C126  O35   A    
C135  O15   A    
C86   C103  A    
C145  H2    S    
C26   C43   A    
C143  C157  A    
C133  O10   A    
C82   H21   S    
C28   C45   A    
Cu3   O38   S    
C41   C59   A    
C42   C60   A    
C145  C160  A    
C54   C67   A    
C75   H14   S    
C44   C62   A    
C45   C63   A    
C96   F17   S    
C117  O2    A    
C71   C89   A    
C130  O38   A    
C71   C115  A    
C75   C114  A    
C53   C66   A    
C32   C50   A    
C145  C151  A    
C75   C92   A    
C127  O42   A    
C40   F6    S    
C37   C54   A    
C93   F15   S    
C109  C125  S    
C97   F18   S    
Cu9   O19   S    
C138  O25   A    
C111  C127  S    
Cu10  O22   S    
C65   C106  S    
C98   C111  A    
Cu5   O10   S    
C82   C100  A    
Cu9   O2    S    
C100  C113  A    
Cu7   O17   S    
C64   C95   S    
C50   O51   S    
C102  F24   S    
C104  C111  A    
C77   H16   S    
C24   C118  S    
C53   O54   S    
C140  O24   A    
C87   C120  A    
C97   C110  A    
C48   C61   A    
C5    C153  A    
C99   C112  A    
C74   H13   S    
C137  O21   A    
C20   C135  S    
C31   F29   S    
C78   H17   S    
C57   C121  S    
H35   O52   S    
C3    C146  A    
Cu5   O15   S    
C136  O18   A    
C152  H47   S    
C132  O9    A    
