data_mof_unit_64218.cif
_audit_creation_date              2012-12-10T16:59:46-0500
_audit_creation_method            fapswitch 2.2
_symmetry_space_group_name_H-M    P1
_symmetry_Int_Tables_number       1
_space_group_crystal_system       triclinic
_cell_length_a                    21.712448
_cell_length_b                    21.716857
_cell_length_c                    47.275003
_cell_angle_alpha                 90.000195
_cell_angle_beta                  90.000181
_cell_angle_gamma                 89.998916
_cell_volume                      22291.3991274

loop_
_atom_site_label
_atom_site_type_symbol
_atom_type_description
_atom_site_fract_x
_atom_site_fract_y
_atom_site_fract_z
_atom_type_partial_charge
C1    C     C_R   0.618798 0.498966 0.000074 0.765536
C2    C     C_R   0.500837 0.618789 0.000076 0.765644
C3    C     C_R   0.381202 0.501034 0.000074 0.765537
C4    C     C_R   0.499163 0.381211 0.000076 0.765644
C5    C     C_R   0.118798 0.998969 0.500074 0.766558
C6    C     C_R   0.001028 0.118799 0.500073 0.765757
C7    C     C_R   0.881201 0.001031 0.500074 0.766558
C8    C     C_R   0.998972 0.881201 0.500073 0.765757
C9    C     C_R   0.546993 0.780436 0.980563 0.008579
C10   C     C_R   0.219456 0.546290 0.980193 0.007590
C11   C     C_R   0.453006 0.219563 0.980564 0.008579
C12   C     C_R   0.780543 0.453710 0.980192 0.007589
C13   C     C_R   0.046284 0.280539 0.480189 0.007737
C14   C     C_R   0.719454 0.046228 0.480169 0.005642
C15   C     C_R   0.953715 0.719461 0.480189 0.007737
C16   C     C_R   0.280545 0.953773 0.480169 0.005641
C17   C     C_R   0.551980 0.716224 0.985513 0.102182
C18   C     C_R   0.283672 0.551552 0.985090 0.101850
C19   C     C_R   0.448020 0.283776 0.985513 0.102182
C20   C     C_R   0.716328 0.448448 0.985089 0.101851
C21   C     C_R   0.051544 0.216328 0.485080 0.101741
C22   C     C_R   0.783670 0.051506 0.485060 0.101777
C23   C     C_R   0.948456 0.783672 0.485080 0.101742
C24   C     C_R   0.216329 0.948494 0.485060 0.101778
C25   C     C_R   0.504226 0.685436 0.999936 -0.078513
C26   C     C_R   0.314529 0.504429 0.999927 -0.079414
C27   C     C_R   0.495774 0.314564 0.999935 -0.078513
C28   C     C_R   0.685471 0.495570 0.999927 -0.079416
C29   C     C_R   0.004427 0.185472 0.499926 -0.079171
C30   C     C_R   0.814527 0.004434 0.499931 -0.081305
C31   C     C_R   0.995573 0.814528 0.499926 -0.079170
C32   C     C_R   0.185473 0.995565 0.499931 -0.081307
C33   C     C_R   0.456208 0.718186 0.012353 -0.206383
C34   C     C_R   0.281803 0.456938 0.012782 -0.206017
C35   C     C_R   0.543793 0.281814 0.012353 -0.206382
C36   C     C_R   0.718197 0.543060 0.012783 -0.206016
C37   C     C_R   0.956952 0.218204 0.512798 -0.205855
C38   C     C_R   0.781796 0.957008 0.512836 -0.207138
C39   C     C_R   0.043049 0.781796 0.512798 -0.205856
C40   C     C_R   0.218204 0.042990 0.512838 -0.207136
C41   C     C_R   0.454938 0.781730 0.010659 -0.151526
C42   C     C_R   0.218250 0.455552 0.011103 -0.151415
C43   C     C_R   0.545062 0.218270 0.010658 -0.151526
C44   C     C_R   0.781750 0.544447 0.011104 -0.151416
C45   C     C_R   0.955571 0.281750 0.511123 -0.151543
C46   C     C_R   0.718241 0.955625 0.511164 -0.141830
C47   C     C_R   0.044430 0.718250 0.511123 -0.151542
C48   C     C_R   0.281759 0.044373 0.511166 -0.141831
C49   C     C_R   0.500118 0.813686 0.995393 -0.102798
C50   C     C_R   0.186276 0.500038 0.995435 -0.100605
C51   C     C_R   0.499882 0.186314 0.995393 -0.102798
C52   C     C_R   0.813724 0.499962 0.995435 -0.100603
C53   C     C_R   0.000044 0.313721 0.495444 -0.100241
C54   C     C_R   0.686273 0.000037 0.495450 -0.108385
C55   C     C_R   0.999955 0.686279 0.495444 -0.100241
C56   C     C_R   0.313727 0.999963 0.495450 -0.108382
C57   C     C_R   0.500000 0.000000 0.086058 -0.315228
C58   C     C_R   1.000000 0.500000 0.086051 -0.314869
C59   C     C_R   0.000000 0.500000 0.586052 -0.314981
C60   C     C_R   0.500000 0.000000 0.585729 -0.301934
C61   C     C_R   0.500000 0.000000 0.054642 0.881256
C62   C     C_R   1.000000 0.500000 0.054639 0.880714
C63   C     C_R   1.000000 0.500000 0.554640 0.880933
C64   C     C_R   0.500000 0.000000 0.554528 0.903875
C65   C     C_R   0.500026 0.881028 0.998154 0.737869
C66   C     C_R   0.118958 0.500009 0.998179 0.739042
C67   C     C_R   0.499974 0.118971 0.998154 0.737870
C68   C     C_R   0.881042 0.499991 0.998179 0.739042
C69   C     C_R   0.000011 0.381038 0.498184 0.739164
C70   C     C_R   0.618957 0.000009 0.498186 0.745865
C71   C     C_R   0.999989 0.618962 0.498184 0.739164
C72   C     C_R   0.381043 0.999991 0.498186 0.745864
C73   C     C_R   0.978593 0.551668 0.898966 0.564338
C74   C     C_R   0.554557 0.012290 0.898776 0.570316
C75   C     C_R   0.021407 0.448331 0.898966 0.564341
C76   C     C_R   0.445442 0.987710 0.898776 0.570315
C77   C     C_R   0.478270 0.051532 0.398976 0.564062
C78   C     C_R   0.051663 0.521436 0.398967 0.564276
C79   C     C_R   0.521729 0.948466 0.398976 0.564065
C80   C     C_R   0.948336 0.478564 0.398967 0.564275
C81   C     C_R   0.553729 0.984408 0.101292 0.536175
C82   C     C_R   0.016019 0.553592 0.101283 0.535985
C83   C     C_R   0.446271 0.015593 0.101292 0.536175
C84   C     C_R   0.983980 0.446408 0.101283 0.535985
C85   C     C_R   0.053575 0.483888 0.601282 0.535888
C86   C     C_R   0.467402 0.045420 0.600792 0.527041
C87   C     C_R   0.946426 0.516112 0.601282 0.535887
C88   C     C_R   0.532597 0.954581 0.600792 0.527042
C89   C     C_R   0.500000 1.000000 0.945450 0.824127
C90   C     C_R   1.000000 0.500000 0.945494 0.830256
C91   C     C_R   1.000000 0.500000 0.445493 0.830549
C92   C     C_R   0.500000 1.000000 0.445496 0.830794
C93   C     C_R   1.000000 0.500000 0.914140 -0.291795
C94   C     C_R   0.500000 0.000000 0.914018 -0.317106
C95   C     C_R   0.500000 1.000000 0.414147 -0.290580
C96   C     C_R   1.000000 0.500000 0.414140 -0.291796
C97   C     C_R   0.037171 0.540553 0.809752 0.565350
C98   C     C_R   0.518231 0.051899 0.809404 0.566359
C99   C     C_R   0.962828 0.459446 0.809752 0.565351
C100  C     C_R   0.481767 0.948102 0.809404 0.566360
C101  C     C_R   0.536743 0.040940 0.309758 0.565341
C102  C     C_R   0.959356 0.537077 0.309751 0.565371
C103  C     C_R   0.463255 0.959058 0.309757 0.565342
C104  C     C_R   0.040642 0.462924 0.309751 0.565371
C105  C     C_R   0.962215 0.458491 0.780017 -0.031416
C106  C     C_R   0.480651 0.947340 0.779677 -0.028729
C107  C     C_R   0.037785 0.541508 0.780017 -0.031416
C108  C     C_R   0.519347 0.052661 0.779677 -0.028729
C109  C     C_R   0.462658 0.958092 0.280023 -0.031367
C110  C     C_R   0.041601 0.462314 0.280016 -0.031377
C111  C     C_R   0.537340 0.041907 0.280023 -0.031366
C112  C     C_R   0.958398 0.537686 0.280016 -0.031377
C113  C     C_R   0.000000 0.500000 0.765094 -0.011168
C114  C     C_R   0.499999 0.000000 0.764757 -0.012323
C115  C     C_R   0.499999 1.000000 0.265100 -0.011178
C116  C     C_R   0.999999 0.500000 0.265093 -0.011181
C117  C     C_R   0.924707 0.417255 0.764905 -0.145668
C118  C     C_R   0.460888 0.895218 0.764567 -0.146185
C119  C     C_R   0.075293 0.582744 0.764906 -0.145669
C120  C     C_R   0.539109 0.104783 0.764568 -0.146186
C121  C     C_R   0.425596 0.916455 0.264911 -0.145689
C122  C     C_R   0.082931 0.424907 0.264905 -0.145705
C123  C     C_R   0.574403 0.083544 0.264912 -0.145689
C124  C     C_R   0.917068 0.575094 0.264905 -0.145705
C125  C     C_R   0.425666 0.916394 0.235368 -0.145412
C126  C     C_R   0.082991 0.424975 0.235362 -0.145413
C127  C     C_R   0.574333 0.083606 0.235369 -0.145413
C128  C     C_R   0.917008 0.575026 0.235362 -0.145413
C129  C     C_R   0.924775 0.417195 0.735363 -0.145462
C130  C     C_R   0.460145 0.895499 0.735032 -0.145456
C131  C     C_R   0.075226 0.582804 0.735363 -0.145462
C132  C     C_R   0.539852 0.104502 0.735032 -0.145456
C133  C     C_R   0.462714 0.958044 0.220257 -0.030039
C134  C     C_R   0.041647 0.462368 0.220250 -0.030035
C135  C     C_R   0.537285 0.041956 0.220258 -0.030039
C136  C     C_R   0.958352 0.537633 0.220250 -0.030035
C137  C     C_R   0.962268 0.458445 0.720251 -0.029997
C138  C     C_R   0.479739 0.947686 0.719922 -0.028833
C139  C     C_R   0.037733 0.541554 0.720251 -0.029997
C140  C     C_R   0.520259 0.052315 0.719923 -0.028833
C141  C     C_R   0.499999 1.000000 0.235181 -0.011589
C142  C     C_R   1.000000 0.500000 0.235174 -0.011587
C143  C     C_R   0.000000 0.500000 0.735174 -0.011574
C144  C     C_R   0.499999 0.000001 0.734842 -0.011946
C145  C     C_R   0.463603 0.958751 0.190522 0.565334
C146  C     C_R   0.040948 0.463263 0.190515 0.565310
C147  C     C_R   0.536396 0.041249 0.190523 0.565334
C148  C     C_R   0.959052 0.536739 0.190515 0.565310
C149  C     C_R   0.963166 0.459142 0.690515 0.565307
C150  C     C_R   0.479401 0.948995 0.690195 0.563577
C151  C     C_R   0.036835 0.540857 0.690516 0.565308
C152  C     C_R   0.520597 0.051006 0.690195 0.563577
C153  C     C_R   0.500000 0.000000 0.145790 0.166047
C154  C     C_R   1.000000 0.500001 0.145782 0.166058
C155  C     C_R   0.000001 0.500000 0.645782 0.166044
C156  C     C_R   0.499999 0.000000 0.645352 0.161096
C157  C     C_R   1.000000 0.500000 0.854476 0.162291
C158  C     C_R   0.499999 0.000000 0.854240 0.155305
C159  C     C_R   0.499999 0.999999 0.354485 0.162062
C160  C     C_R   0.999999 0.500000 0.354476 0.162119
C161  C     C_R   0.978640 0.551439 0.869414 -0.173140
C162  C     C_R   0.554425 0.011693 0.869235 -0.175651
C163  C     C_R   0.021360 0.448560 0.869414 -0.173140
C164  C     C_R   0.445574 0.988307 0.869235 -0.175650
C165  C     C_R   0.478305 0.051300 0.369424 -0.172841
C166  C     C_R   0.051434 0.521393 0.369414 -0.173079
C167  C     C_R   0.521693 0.948698 0.369424 -0.172840
C168  C     C_R   0.948565 0.478607 0.369414 -0.173078
C169  C     C_R   0.553461 0.984422 0.130850 -0.171474
C170  C     C_R   0.016006 0.553325 0.130841 -0.171522
C171  C     C_R   0.446539 0.015579 0.130850 -0.171473
C172  C     C_R   0.983993 0.446676 0.130841 -0.171522
C173  C     C_R   0.053308 0.483900 0.630841 -0.171577
C174  C     C_R   0.467038 0.044957 0.630343 -0.166480
C175  C     C_R   0.946693 0.516100 0.630841 -0.171577
C176  C     C_R   0.532961 0.955044 0.630343 -0.166479
C177  C     C_R   0.604578 0.684106 0.975997 -0.158728
C178  C     C_R   0.315692 0.603798 0.975117 -0.159134
C179  C     C_R   0.395422 0.315894 0.975997 -0.158729
C180  C     C_R   0.684308 0.396203 0.975115 -0.159134
C181  C     C_R   0.103786 0.184311 0.475092 -0.158549
C182  C     C_R   0.815688 0.103719 0.475050 -0.159558
C183  C     C_R   0.896213 0.815688 0.475092 -0.158550
C184  C     C_R   0.184311 0.896282 0.475048 -0.159558
C185  C     C_R   0.649665 0.713907 0.960318 -0.165397
C186  C     C_R   0.285793 0.648152 0.959032 -0.166028
C187  C     C_R   0.350334 0.286092 0.960318 -0.165397
C188  C     C_R   0.714206 0.351850 0.959031 -0.166030
C189  C     C_R   0.148133 0.214202 0.458998 -0.165198
C190  C     C_R   0.785790 0.148014 0.458931 -0.167365
C191  C     C_R   0.851866 0.785797 0.458999 -0.165199
C192  C     C_R   0.214210 0.851988 0.458929 -0.167367
C193  C     C_R   0.641015 0.774603 0.952037 -0.089041
C194  C     C_R   0.225096 0.639046 0.950824 -0.086139
C195  C     C_R   0.358984 0.225396 0.952038 -0.089041
C196  C     C_R   0.774904 0.360955 0.950823 -0.086138
C197  C     C_R   0.139025 0.274893 0.450798 -0.086085
C198  C     C_R   0.725093 0.138877 0.450730 -0.088477
C199  C     C_R   0.860973 0.725106 0.450799 -0.086085
C200  C     C_R   0.274907 0.861125 0.450728 -0.088475
C201  C     C_R   0.588477 0.807445 0.960665 -0.015922
C202  C     C_R   0.192345 0.586852 0.959930 -0.013857
C203  C     C_R   0.411521 0.192554 0.960665 -0.015924
C204  C     C_R   0.807655 0.413149 0.959929 -0.013856
C205  C     C_R   0.086837 0.307645 0.459919 -0.013831
C206  C     C_R   0.692342 0.086717 0.459876 -0.013849
C207  C     C_R   0.913161 0.692354 0.459920 -0.013831
C208  C     C_R   0.307657 0.913285 0.459875 -0.013848
Cu1   Cu    Cu3+1 0.500000 0.500000 0.971900 0.982581
Cu2   Cu    Cu3+1 1.000000 0.000000 0.471900 0.981089
Cu3   Cu    Cu3+1 0.500000 0.500000 0.028180 0.996815
Cu4   Cu    Cu3+1 0.000000 1.000000 0.528180 0.996377
Cu5   Cu    Cu3+1 0.438160 0.999960 0.000050 1.107571
Cu6   Cu    Cu3+1 0.000040 0.438160 0.000050 1.107452
Cu7   Cu    Cu3+1 0.561840 0.000040 0.000050 1.107571
Cu8   Cu    Cu3+1 0.999960 0.561840 0.000050 1.107452
Cu9   Cu    Cu3+1 0.938160 0.499960 0.500050 1.107405
Cu10  Cu    Cu3+1 0.500040 0.938160 0.500050 1.102879
Cu11  Cu    Cu3+1 0.061840 0.500040 0.500050 1.107405
Cu12  Cu    Cu3+1 0.499960 0.061840 0.500050 1.102880
H1    H     H_    0.594909 0.971934 0.142229 0.194357
H2    H     H_    0.028831 0.594663 0.142219 0.194364
H3    H     H_    0.405091 0.028067 0.142229 0.194356
H4    H     H_    0.971168 0.405338 0.142219 0.194364
H5    H     H_    0.094631 0.471000 0.642218 0.194406
H6    H     H_    0.440854 0.079547 0.641639 0.197556
H7    H     H_    0.905370 0.529000 0.642218 0.194406
H8    H     H_    0.559144 0.920454 0.641639 0.197556
H9    H     H_    0.895201 0.384854 0.775845 0.194730
H10   H     H_    0.445688 0.854113 0.775501 0.194128
H11   H     H_    0.104799 0.615145 0.775845 0.194731
H12   H     H_    0.554310 0.145888 0.775502 0.194128
H13   H     H_    0.396440 0.883739 0.275850 0.194672
H14   H     H_    0.115405 0.395480 0.275844 0.194657
H15   H     H_    0.603558 0.116260 0.275852 0.194672
H16   H     H_    0.884593 0.604520 0.275844 0.194657
H17   H     H_    0.396560 0.883633 0.224429 0.194552
H18   H     H_    0.115511 0.395597 0.224423 0.194552
H19   H     H_    0.603438 0.116367 0.224430 0.194553
H20   H     H_    0.884489 0.604404 0.224423 0.194552
H21   H     H_    0.895318 0.384750 0.724423 0.194536
H22   H     H_    0.444404 0.854598 0.724098 0.195061
H23   H     H_    0.104683 0.615250 0.724424 0.194536
H24   H     H_    0.555594 0.145403 0.724098 0.195061
H25   H     H_    0.419639 0.694388 0.023499 0.154904
H26   H     H_    0.305627 0.420859 0.024245 0.155675
H27   H     H_    0.580362 0.305613 0.023498 0.154903
H28   H     H_    0.694373 0.579139 0.024247 0.155677
H29   H     H_    0.920879 0.194388 0.524272 0.154979
H30   H     H_    0.805619 0.920978 0.524333 0.157889
H31   H     H_    0.079122 0.805612 0.524271 0.154978
H32   H     H_    0.194382 0.079019 0.524335 0.157891
H33   H     H_    0.611683 0.635974 0.980948 0.136281
H34   H     H_    0.363811 0.611212 0.980018 0.136911
H35   H     H_    0.388316 0.364026 0.980948 0.136280
H36   H     H_    0.636189 0.388789 0.980017 0.136912
H37   H     H_    0.111206 0.136200 0.479990 0.137382
H38   H     H_    0.863805 0.111158 0.479949 0.137430
H39   H     H_    0.888794 0.863800 0.479990 0.137381
H40   H     H_    0.136195 0.888843 0.479948 0.137431
H41   H     H_    0.689926 0.688823 0.953261 0.163843
H42   H     H_    0.310808 0.688145 0.951619 0.164003
H43   H     H_    0.310072 0.311177 0.953262 0.163843
H44   H     H_    0.689192 0.311856 0.951617 0.164004
H45   H     H_    0.188123 0.189190 0.451573 0.164375
H46   H     H_    0.810802 0.187982 0.451488 0.164265
H47   H     H_    0.811875 0.810810 0.451574 0.164375
H48   H     H_    0.189197 0.812021 0.451485 0.164265
H49   H     H_    0.673981 0.794821 0.937561 0.188153
H50   H     H_    0.204808 0.671331 0.936048 0.189918
H51   H     H_    0.326017 0.205178 0.937561 0.188153
H52   H     H_    0.795191 0.328672 0.936047 0.189918
H53   H     H_    0.171302 0.295176 0.436016 0.189835
H54   H     H_    0.704805 0.171107 0.435929 0.189884
H55   H     H_    0.828694 0.704823 0.436017 0.189835
H56   H     H_    0.295195 0.828897 0.435926 0.189884
H57   H     H_    0.418753 0.806159 0.021766 0.173739
H58   H     H_    0.193818 0.419841 0.022527 0.173038
H59   H     H_    0.581248 0.193841 0.021765 0.173740
H60   H     H_    0.806182 0.580156 0.022528 0.173037
H61   H     H_    0.919871 0.306180 0.522558 0.172433
H62   H     H_    0.693803 0.919976 0.522627 0.186539
H63   H     H_    0.080131 0.693820 0.522557 0.172434
H64   H     H_    0.306198 0.080020 0.522629 0.186539
H65   H     H_    0.961655 0.591254 0.858041 0.193360
H66   H     H_    0.596882 0.020523 0.857920 0.200235
H67   H     H_    0.038345 0.408745 0.858041 0.193360
H68   H     H_    0.403117 0.979477 0.857920 0.200235
H69   H     H_    0.461054 0.091004 0.358053 0.193584
H70   H     H_    0.091244 0.538406 0.358042 0.193534
H71   H     H_    0.538943 0.908994 0.358053 0.193584
H72   H     H_    0.908755 0.461594 0.358042 0.193535
N1    N     N_R   1.000000 0.500000 0.824009 -0.438655
N2    N     N_R   0.499999 0.000000 0.823716 -0.434181
N3    N     N_R   0.499999 0.999999 0.324016 -0.438593
N4    N     N_R   0.999999 0.500000 0.324008 -0.438593
N5    N     N_R   0.500000 0.000000 0.176262 -0.438476
N6    N     N_R   1.000000 0.500001 0.176254 -0.438462
N7    N     N_R   0.000001 0.500000 0.676255 -0.438426
N8    N     N_R   0.499999 0.000001 0.675880 -0.437190
O1    O     O_R   0.590150 0.499950 0.976270 -0.582765
O2    O     O_R   0.500050 0.590150 0.976270 -0.582731
O3    O     O_R   0.409850 0.500050 0.976270 -0.582765
O4    O     O_R   0.499950 0.409850 0.976270 -0.582731
O5    O     O_R   0.090150 0.999950 0.476270 -0.582990
O6    O     O_R   0.000050 0.090150 0.476270 -0.583273
O7    O     O_R   0.909850 0.000050 0.476270 -0.582990
O8    O     O_R   0.999950 0.909850 0.476270 -0.583274
O9    O     O_R   0.590130 0.499930 0.023800 -0.573756
O10   O     O_R   0.500070 0.590130 0.023800 -0.573574
O11   O     O_R   0.409870 0.500070 0.023800 -0.573755
O12   O     O_R   0.499930 0.409870 0.023800 -0.573573
O13   O     O_R   0.090130 0.999930 0.523800 -0.573745
O14   O     O_R   0.000070 0.090130 0.523800 -0.573612
O15   O     O_R   0.909870 0.000070 0.523800 -0.573744
O16   O     O_R   0.999930 0.909870 0.523800 -0.573612
O17   O     O_R   0.447770 0.999940 0.041110 -0.523511
O18   O     O_R   0.000060 0.447770 0.041110 -0.524025
O19   O     O_R   0.552230 0.000060 0.041110 -0.523511
O20   O     O_R   0.999940 0.552230 0.041110 -0.524025
O21   O     O_R   0.947770 0.499940 0.541110 -0.524182
O22   O     O_R   0.500060 0.947770 0.541110 -0.535950
O23   O     O_R   0.052230 0.500060 0.541110 -0.524182
O24   O     O_R   0.499940 0.052230 0.541110 -0.535950
O25   O     O_R   0.447760 0.909780 0.000050 -0.583071
O26   O     O_R   0.090220 0.447760 0.000050 -0.581048
O27   O     O_R   0.552240 0.090220 0.000050 -0.583071
O28   O     O_R   0.909780 0.552240 0.000050 -0.581048
O29   O     O_R   0.947760 0.409780 0.500050 -0.581302
O30   O     O_R   0.590220 0.947760 0.500050 -0.567858
O31   O     O_R   0.052240 0.590220 0.500050 -0.581302
O32   O     O_R   0.409780 0.052240 0.500050 -0.567857
O33   O     O_R   0.552140 0.909770 0.000040 -0.572619
O34   O     O_R   0.090230 0.552140 0.000040 -0.573373
O35   O     O_R   0.447860 0.090230 0.000040 -0.572619
O36   O     O_R   0.909770 0.447860 0.000040 -0.573373
O37   O     O_R   0.052140 0.409770 0.500040 -0.573077
O38   O     O_R   0.590230 0.052140 0.500040 -0.585646
O39   O     O_R   0.947860 0.590230 0.500040 -0.573078
O40   O     O_R   0.409770 0.947860 0.500040 -0.585645
O41   O     O_R   0.447770 0.999980 0.958990 -0.515803
O42   O     O_R   0.000020 0.447770 0.958990 -0.517992
O43   O     O_R   0.552230 0.000020 0.958990 -0.515802
O44   O     O_R   0.999980 0.552230 0.958990 -0.517992
O45   O     O_R   0.947770 0.499980 0.458990 -0.518030
O46   O     O_R   0.500020 0.947770 0.458990 -0.518425
O47   O     O_R   0.052230 0.500020 0.458990 -0.518030
O48   O     O_R   0.499980 0.052230 0.458990 -0.518425
O49   O     O_2   0.073835 0.579464 0.824299 -0.512542
O50   O     O_2   0.534637 0.102889 0.823870 -0.524015
O51   O     O_2   0.926165 0.420535 0.824298 -0.512541
O52   O     O_2   0.465361 0.897112 0.823870 -0.524015
O53   O     O_2   0.573007 0.080228 0.324303 -0.512709
O54   O     O_2   0.920359 0.573653 0.324297 -0.512778
O55   O     O_2   0.426991 0.919770 0.324302 -0.512708
O56   O     O_2   0.079640 0.426348 0.324297 -0.512777
O57   O     O_2   0.428789 0.918172 0.175979 -0.518571
O58   O     O_2   0.081241 0.428113 0.175973 -0.518602
O59   O     O_2   0.571210 0.081829 0.175980 -0.518571
O60   O     O_2   0.918758 0.571888 0.175973 -0.518602
O61   O     O_2   0.927923 0.418933 0.675973 -0.518768
O62   O     O_2   0.458022 0.899876 0.675732 -0.519233
O63   O     O_2   0.072079 0.581066 0.675974 -0.518768
O64   O     O_2   0.541977 0.100125 0.675733 -0.519233
F1    F     F_    0.956485 0.602041 0.912600 -0.607460
F2    F     F_    0.608133 0.025506 0.912267 -0.593070
F3    F     F_    0.043515 0.397959 0.912600 -0.607462
F4    F     F_    0.391866 0.974494 0.912267 -0.593070
F5    F     F_    0.455847 0.101758 0.412616 -0.607700
F6    F     F_    0.102031 0.543571 0.412602 -0.607402
F7    F     F_    0.544152 0.898240 0.412616 -0.607699
F8    F     F_    0.897969 0.456429 0.412601 -0.607402
F9    F     F_    0.606399 0.968125 0.087754 -0.614136
F10   F     F_    0.032739 0.606109 0.087739 -0.614295
F11   F     F_    0.393601 0.031877 0.087754 -0.614135
F12   F     F_    0.967261 0.393892 0.087739 -0.614295
F13   F     F_    0.106070 0.467075 0.587737 -0.614191
F14   F     F_    0.434544 0.089270 0.586964 -0.626250
F15   F     F_    0.893930 0.532925 0.587737 -0.614191
F16   F     F_    0.565456 0.910731 0.586965 -0.626250
C209  C     C_2   0.572626 0.863630 0.944613 0.435194
H73   H     H_    0.525082 0.878381 0.943303 0.016277
O65   O     O_2   0.611988 0.892596 0.931824 -0.488885
C210  C     C_2   0.136202 0.570125 0.944020 0.426826
H74   H     H_    0.121696 0.522471 0.943135 0.023619
O66   O     O_2   0.107053 0.608780 0.930859 -0.496083
C211  C     C_2   0.427372 0.136369 0.944614 0.435196
H75   H     H_    0.474915 0.121618 0.943303 0.016275
O67   O     O_2   0.388009 0.107402 0.931824 -0.488884
C212  C     C_2   0.863797 0.429877 0.944019 0.426820
H76   H     H_    0.878303 0.477531 0.943135 0.023621
O68   O     O_2   0.892947 0.391222 0.930858 -0.496085
C213  C     C_2   0.070107 0.363792 0.444021 0.426430
H77   H     H_    0.022444 0.378306 0.443143 0.023696
O69   O     O_2   0.108766 0.392939 0.430861 -0.496126
C214  C     C_2   0.636201 0.069932 0.443979 0.426533
H78   H     H_    0.621700 0.022273 0.443130 0.024517
O70   O     O_2   0.607052 0.108537 0.430788 -0.497201
C215  C     C_2   0.929891 0.636207 0.444021 0.426432
H79   H     H_    0.977553 0.621693 0.443143 0.023694
O71   O     O_2   0.891230 0.607060 0.430862 -0.496124
C216  C     C_2   0.363799 0.930072 0.443978 0.426526
H80   H     H_    0.378300 0.977730 0.443130 0.024521
O72   O     O_2   0.392947 0.891467 0.430787 -0.497204

loop_
_geom_bond_atom_site_label_1
_geom_bond_atom_site_label_2
_ccdc_geom_bond_type
C148  N6    A    
C115  C141  A    
C19   C179  A    
C198  C206  A    
Cu11  O23   S    
C108  C120  A    
C34   C42   A    
C73   C93   A    
C84   F12   S    
C53   C69   S    
Cu2   O6    S    
Cu6   O42   S    
C48   H64   S    
Cu3   O11   S    
C98   N2    A    
C6    O6    A    
C75   C93   A    
C128  H20   S    
Cu7   O19   S    
C159  N3    S    
C112  C124  A    
C58   C82   A    
C145  N5    A    
C24   C184  A    
C189  C197  A    
C193  C201  A    
Cu5   O35   S    
C40   C48   A    
C192  H48   S    
C89   C94   S    
Cu12  O48   S    
C204  C212  S    
Cu7   O33   S    
C73   C161  A    
C76   C94   A    
C91   C96   S    
Cu12  O38   S    
C78   C96   A    
C56   C72   S    
C83   C171  A    
C34   H26   S    
C57   C83   A    
C160  C166  A    
C196  C204  A    
C140  C152  A    
C75   F3    S    
C119  H11   S    
C92   O46   A    
C200  C208  A    
C8    O16   A    
C87   F15   S    
C176  H8    S    
C41   C49   A    
C67   O27   A    
Cu5   Cu7   S    
C134  C146  A    
C69   O37   A    
Cu1   O4    S    
C80   F8    S    
C151  N7    A    
C60   C86   A    
C212  O68   D    
C20   C28   A    
C27   C35   A    
C21   C29   A    
C86   C174  A    
C206  C214  S    
C68   O36   A    
C24   C32   A    
C124  H16   S    
C54   C70   S    
Cu9   O21   S    
C12   C20   A    
C13   C21   A    
C2    O2    A    
C10   C202  A    
C116  C142  A    
C162  H66   S    
C122  H14   S    
C168  H72   S    
C14   C206  A    
C209  H73   S    
C97   N1    A    
C59   C63   S    
C36   C44   A    
C104  N4    A    
C37   C45   A    
C211  H75   S    
C130  C138  A    
C110  C116  A    
Cu3   O9    S    
C90   C93   S    
C39   C47   A    
C17   C177  A    
C215  O71   D    
C98   C108  A    
C191  H47   S    
C3    C26   S    
C214  O70   D    
C210  O66   D    
C171  H3    S    
C57   C61   S    
C213  H77   S    
C100  C106  A    
C81   C169  A    
C60   C64   S    
C151  O63   S    
C160  N4    S    
C17   C25   A    
C173  H5    S    
C104  C110  A    
C109  C121  A    
C10   C18   A    
C42   H58   S    
C159  C167  A    
C160  C168  A    
C211  O67   D    
C66   O34   A    
C59   C87   A    
C103  O55   S    
C178  C186  A    
C181  H37   S    
C126  C134  A    
Cu6   O36   S    
C182  C190  A    
C79   C167  A    
C80   C168  A    
C55   C71   S    
Cu1   O1    S    
C43   H59   S    
C158  C162  A    
C199  H55   S    
C195  C203  A    
C193  H49   S    
C76   F4    S    
C195  H51   S    
C120  H12   S    
C208  C216  S    
C60   C88   A    
C175  H7    S    
C186  H42   S    
C61   O17   A    
C154  C170  A    
C129  H21   S    
C105  C113  A    
C203  C211  S    
C79   F7    S    
Cu6   Cu8   S    
C108  C114  A    
C215  H79   S    
C75   C163  A    
C157  C161  A    
C202  C210  S    
C170  H2    S    
C139  C143  A    
C132  H24   S    
C107  C113  A    
C119  C131  A    
C73   F1    S    
C117  C129  A    
C72   O32   A    
C179  H35   S    
C44   C52   A    
C192  C200  A    
C45   C53   A    
C189  H45   S    
Cu4   O13   S    
C65   O25   A    
C146  N6    A    
C182  H38   S    
Cu10  O46   S    
C100  O52   S    
C9    C49   A    
C100  N2    A    
C146  O58   S    
C101  N3    A    
C102  N4    A    
C52   C68   S    
C159  C165  A    
C15   C55   A    
C16   C56   A    
C76   C164  A    
C121  C125  A    
C123  C127  A    
Cu11  O37   S    
Cu10  O22   S    
C129  C137  A    
C51   C67   S    
C23   C183  A    
C136  C148  A    
C47   H63   S    
C42   C50   A    
C135  C147  A    
C91   O47   A    
C46   H62   S    
C153  C169  A    
C64   O24   A    
C112  C116  A    
C4    C27   S    
C216  H80   S    
C61   O19   A    
C22   C30   A    
C8    C31   S    
C186  C194  A    
Cu12  O24   S    
Cu2   O7    S    
C70   O30   A    
C85   F13   S    
C178  H34   S    
C87   C175  A    
Cu2   Cu4   S    
C88   C176  A    
C14   C22   A    
C90   O44   A    
C22   C182  A    
C138  C144  A    
C130  H22   S    
C38   H30   S    
C77   F5    S    
C139  C151  A    
C12   C204  A    
C63   O23   A    
C38   C46   A    
C131  C139  A    
C135  C141  A    
C67   O35   A    
C154  N6    S    
C89   O41   A    
Cu4   O15   S    
C106  C118  A    
C25   C33   A    
C58   C62   S    
C71   O31   A    
C127  H19   S    
Cu5   O41   S    
C74   C94   A    
C102  C112  A    
C18   C26   A    
Cu7   O27   S    
C68   O28   A    
Cu9   O39   S    
C11   C19   A    
C184  H40   S    
C201  C209  S    
Cu1   O3    S    
C127  C135  A    
C128  C136  A    
C40   H32   S    
C179  C187  A    
C167  H71   S    
C194  C202  A    
C155  N7    S    
C177  C185  A    
C4    O4    A    
C157  N1    S    
C136  C142  A    
C180  C188  A    
C181  C189  A    
C149  O61   S    
C147  N5    A    
C91   O45   A    
C1    C28   S    
C184  C192  A    
C33   H25   S    
C194  H50   S    
C124  C128  A    
C5    C32   S    
C7    C30   S    
C120  C132  A    
Cu10  O40   S    
C105  C117  A    
Cu2   O5    S    
C107  C119  A    
C12   C52   A    
Cu3   O12   S    
C13   C53   A    
C70   O38   A    
C163  H67   S    
C78   C166  A    
C164  H68   S    
C111  C123  A    
C90   O42   A    
C214  H78   S    
C101  O53   S    
C197  C205  A    
C185  C193  A    
C137  C149  A    
C84   C172  A    
C149  N7    A    
C147  O59   S    
Cu11  O31   S    
C113  C143  A    
C114  C144  A    
C110  C122  A    
C15   C207  A    
C63   O21   A    
C79   C95   A    
C118  C130  A    
C83   F11   S    
C134  C142  A    
C197  H53   S    
C6    O14   A    
C89   O43   A    
C46   C54   A    
C11   C203  A    
C190  H46   S    
C103  N3    A    
C9    C201  A    
C123  H15   S    
C106  C114  A    
C183  H39   S    
C13   C205  A    
Cu5   O17   S    
C10   C50   A    
C81   F9    S    
C125  H17   S    
C190  C198  A    
C165  H69   S    
C155  C175  A    
Cu8   O20   S    
C1    O9    A    
C156  C176  A    
C62   O20   A    
C3    O11   A    
C140  C144  A    
C97   O49   S    
C99   N1    A    
Cu5   O25   S    
C212  H76   S    
C132  C140  A    
C8    O8    A    
C133  C141  A    
Cu10  Cu12  S    
C103  C109  A    
C33   C41   A    
Cu8   O28   S    
C174  H6    S    
C4    O12   A    
C5    O5    A    
C92   O48   A    
C43   C51   A    
C101  C111  A    
C7    O15   A    
C196  H52   S    
C2    C25   S    
C152  N8    A    
C65   O33   A    
C102  O54   S    
C6    C29   S    
C39   H31   S    
C28   C36   A    
C29   C37   A    
C209  O65   D    
Cu7   O43   S    
Cu10  O30   S    
C77   C165  A    
C59   C85   A    
Cu3   O10   S    
C23   C31   A    
C64   O22   A    
Cu9   O29   S    
C82   C170  A    
C148  O60   S    
Cu4   O14   S    
C210  H74   S    
C180  H36   S    
C20   C180  A    
C44   H60   S    
C138  C150  A    
C21   C181  A    
C213  O69   D    
C72   O40   A    
C49   C65   S    
Cu6   O26   S    
C172  H4    S    
C152  O64   S    
C191  C199  A    
C99   O51   S    
C82   F10   S    
C117  H9    S    
C156  C174  A    
C153  N5    S    
C26   C34   A    
C169  H1    S    
C31   C39   A    
C74   F2    S    
C85   C173  A    
C97   C107  A    
C80   C96   A    
C19   C27   A    
C157  C163  A    
Cu12  O32   S    
C158  C164  A    
C155  C173  A    
C15   C23   A    
C137  C143  A    
C16   C24   A    
C1    O1    A    
C66   O26   A    
C74   C162  A    
C3    O3    A    
C161  H65   S    
C216  O72   D    
Cu11  O47   S    
C99   C105  A    
C45   H61   S    
C41   H57   S    
C158  N2    S    
Cu2   O8    S    
C145  O57   S    
C200  H56   S    
Cu9   O45   S    
C77   C95   A    
C92   C95   S    
C150  N8    A    
C122  C126  A    
C58   C84   A    
C88   F16   S    
C153  C171  A    
C199  C207  A    
C154  C172  A    
C50   C66   S    
C18   C178  A    
C98   O50   S    
C9    C17   A    
C14   C54   A    
C104  O56   S    
C35   H27   S    
C36   H28   S    
C57   C81   A    
Cu4   O16   S    
C35   C43   A    
C47   C55   A    
C125  C133  A    
C48   C56   A    
Cu8   O44   S    
C187  C195  A    
C150  O62   S    
C156  N8    S    
Cu8   O34   S    
C16   C208  A    
C183  C191  A    
C86   F14   S    
C69   O29   A    
C198  H54   S    
C5    O13   A    
Cu9   Cu11  S    
C177  H33   S    
C188  H44   S    
C121  H13   S    
Cu1   O2    S    
C131  H23   S    
C185  H41   S    
C78   F6    S    
C118  H10   S    
C37   H29   S    
C187  H43   S    
Cu1   Cu3   S    
C205  C213  S    
C71   O39   A    
C32   C40   A    
C207  C215  S    
Cu6   O18   S    
C11   C51   A    
C109  C115  A    
C7    O7    A    
C166  H70   S    
C133  C145  A    
C188  C196  A    
C62   O18   A    
C2    O10   A    
C111  C115  A    
C30   C38   A    
C126  H18   S    
