data_mof_unit_45613.cif
_audit_creation_date              2013-03-05T15:56:51-0500
_audit_creation_method            fapswitch 2.2
_symmetry_space_group_name_H-M    P1
_symmetry_Int_Tables_number       1
_space_group_crystal_system       triclinic
_cell_length_a                    21.152189
_cell_length_b                    21.537923
_cell_length_c                    13.943187
_cell_angle_alpha                 88.841775
_cell_angle_beta                  90.359209
_cell_angle_gamma                 89.545428
_cell_volume                      6350.52747504

loop_
_atom_site_label
_atom_site_type_symbol
_atom_site_description
_atom_site_fract_x
_atom_site_fract_y
_atom_site_fract_z
_atom_type_partial_charge
O1    O     O_R   0.064880 0.435140 0.582280 -0.581608
O2    O     O_R   0.935120 0.564860 0.417720 -0.584260
O3    O     O_R   0.935120 0.564860 0.582280 -0.568718
O4    O     O_R   0.064880 0.435140 0.417720 -0.570249
O5    O     O_R   0.935120 0.435140 0.417720 -0.571632
O6    O     O_R   0.064880 0.564860 0.582280 -0.542261
O7    O     O_R   0.064880 0.564860 0.417720 -0.585656
O8    O     O_R   0.935120 0.435140 0.582280 -0.556870
O9    O     O_R   0.564880 0.935140 0.582280 -0.590752
O10   O     O_R   0.435120 0.064860 0.417720 -0.529432
O11   O     O_R   0.435120 0.064860 0.582280 -0.595023
O12   O     O_R   0.564880 0.935140 0.417720 -0.529610
O13   O     O_R   0.435120 0.935140 0.417720 -0.559169
O14   O     O_R   0.564880 0.064860 0.582280 -0.599958
O15   O     O_R   0.564880 0.064860 0.417720 -0.563204
O16   O     O_R   0.435120 0.935140 0.582280 -0.599510
C1    C     C_R   0.084948 0.414000 0.500478 0.870548
C2    C     C_R   0.916290 0.587034 0.498960 0.878370
C3    C     C_R   0.917318 0.411854 0.501279 0.880715
C4    C     C_R   0.082457 0.588237 0.500151 0.863884
C5    C     C_R   0.585115 0.913541 0.499767 0.857213
C6    C     C_R   0.413762 0.085305 0.498561 0.861900
C7    C     C_R   0.413891 0.914863 0.500440 0.867892
C8    C     C_R   0.585436 0.085707 0.499739 0.874807
Cu1   Cu    Cu3+1 0.000000 0.500000 0.597420 1.049322
Cu2   Cu    Cu3+1 1.000000 0.500000 0.402580 1.014228
Cu3   Cu    Cu3+1 0.500000 0.000000 0.597420 0.970479
Cu4   Cu    Cu3+1 0.500000 0.000000 0.402580 1.072248
C9    C     C_R   0.125273 0.686634 0.575174 0.363283
C10   C     C_R   0.872740 0.313133 0.580632 0.435285
C11   C     C_R   0.884033 0.698961 0.505968 0.348431
C12   C     C_R   0.120167 0.304204 0.527810 0.402309
C13   C     C_R   0.631720 0.186387 0.439087 0.320271
C14   C     C_R   0.366547 0.816838 0.438355 0.320428
C15   C     C_R   0.363984 0.183770 0.427700 0.463141
C16   C     C_R   0.628983 0.809779 0.444364 0.455139
C17   C     C_R   0.125237 0.641895 0.500964 -0.154907
C18   C     C_R   0.873867 0.358557 0.504234 -0.181516
C19   C     C_R   0.868351 0.635814 0.496883 -0.187767
C20   C     C_R   0.133809 0.365962 0.501131 -0.190743
C21   C     C_R   0.634896 0.133463 0.499792 -0.192836
C22   C     C_R   0.364133 0.867151 0.500998 -0.179582
C23   C     C_R   0.364306 0.133813 0.495763 -0.183560
C24   C     C_R   0.634576 0.864951 0.498416 -0.201361
C25   C     C_R   0.167936 0.646920 0.425141 -0.192838
C26   C     C_R   0.831809 0.354439 0.426906 -0.200892
C27   C     C_R   0.805302 0.618039 0.488019 -0.247869
C28   C     C_R   0.194566 0.381737 0.470150 -0.248368
C29   C     C_R   0.686070 0.125962 0.563355 -0.238830
C30   C     C_R   0.313682 0.872215 0.564932 -0.240121
C31   C     C_R   0.316180 0.130046 0.564149 -0.211492
C32   C     C_R   0.689500 0.873934 0.553202 -0.219638
C33   C     C_R   0.213445 0.693499 0.421298 0.021227
C34   C     C_R   0.785669 0.308644 0.423534 0.017370
C35   C     C_R   0.756917 0.662844 0.487757 0.013703
C36   C     C_R   0.242395 0.336176 0.467370 0.037920
C37   C     C_R   0.733236 0.171254 0.569864 0.029535
C38   C     C_R   0.266449 0.826851 0.569984 0.008802
C39   C     C_R   0.267950 0.175070 0.565306 0.008081
C40   C     C_R   0.738788 0.829710 0.552081 0.011437
C41   C     C_R   0.216659 0.736110 0.497092 0.003987
C42   C     C_R   0.782134 0.264698 0.499906 -0.015704
C43   C     C_R   0.772306 0.723962 0.514730 -0.013259
C44   C     C_R   0.230873 0.278031 0.512779 0.002114
C45   C     C_R   0.733957 0.219536 0.499482 0.002447
C46   C     C_R   0.264923 0.781238 0.497886 0.004704
C47   C     C_R   0.276847 0.230773 0.511899 -0.013251
C48   C     C_R   0.725273 0.770256 0.516568 -0.002889
C49   C     C_R   0.173402 0.732354 0.574029 -0.068126
C50   C     C_R   0.825051 0.266811 0.578163 -0.045372
C51   C     C_R   0.835671 0.740555 0.531075 -0.059822
C52   C     C_R   0.171074 0.264778 0.551334 -0.056326
C53   C     C_R   0.685373 0.223891 0.429847 -0.062452
C54   C     C_R   0.312912 0.779357 0.428045 -0.064583
C55   C     C_R   0.328908 0.237139 0.450447 -0.054963
C56   C     C_R   0.666349 0.758745 0.474094 -0.059780
C57   C     C_R   0.257128 0.697561 0.344890 0.349676
C58   C     C_R   0.741659 0.306544 0.346755 0.357254
C59   C     C_R   0.694205 0.649205 0.459778 0.424125
C60   C     C_R   0.300514 0.345883 0.419661 0.367197
C61   C     C_R   0.778565 0.171605 0.645014 0.334694
C62   C     C_R   0.221673 0.823795 0.645125 0.422076
C63   C     C_R   0.210888 0.166116 0.616010 0.421585
C64   C     C_R   0.801077 0.842915 0.582451 0.387579
C65   C     C_R   0.818246 0.222588 0.652771 -0.173371
C66   C     C_R   0.180508 0.773819 0.649485 -0.186203
C67   C     C_R   0.162195 0.209846 0.604830 -0.174588
C68   C     C_R   0.849167 0.799388 0.567107 -0.144409
C69   C     C_R   0.306591 0.739806 0.350082 -0.213023
C70   C     C_R   0.690945 0.266041 0.352846 -0.186198
C71   C     C_R   0.650349 0.697871 0.449952 -0.171621
C72   C     C_R   0.341927 0.295439 0.408626 -0.185273
H1    H     H_    0.166597 0.612178 0.370452 0.221087
H2    H     H_    0.833923 0.389519 0.370590 0.228342
H3    H     H_    0.795369 0.569594 0.476341 0.207755
H4    H     H_    0.202388 0.428489 0.443364 0.205894
H5    H     H_    0.686779 0.085454 0.608960 0.209444
H6    H     H_    0.313025 0.911201 0.610912 0.224526
H7    H     H_    0.314545 0.089368 0.610682 0.215398
H8    H     H_    0.695106 0.917648 0.588994 0.210159
H9    H     H_    0.842709 0.227010 0.719859 0.235184
H10   H     H_    0.155432 0.767344 0.715589 0.223393
H11   H     H_    0.117380 0.201411 0.639192 0.241658
H12   H     H_    0.897097 0.811018 0.585961 0.254009
H13   H     H_    0.339749 0.742759 0.291510 0.241507
H14   H     H_    0.656573 0.266114 0.295159 0.243752
H15   H     H_    0.603412 0.688326 0.423404 0.246034
H16   H     H_    0.384938 0.301591 0.368023 0.236423
C73   C     C_R   0.055793 0.492559 0.796100 0.326313
C74   C     C_R   0.944739 0.509897 0.203319 0.255468
C75   C     C_R   0.944041 0.511083 0.793418 0.334992
C76   C     C_R   0.056202 0.489830 0.206353 0.277661
C77   C     C_R   0.547784 0.027534 0.796305 0.239012
C78   C     C_R   0.449001 0.977018 0.204655 0.331502
C79   C     C_R   0.452312 0.972221 0.796817 0.251200
C80   C     C_R   0.550660 0.023291 0.203934 0.329970
N1    N     N_R   0.000000 0.500000 0.743810 -0.164201
N2    N     N_R   0.000000 0.500000 0.256190 -0.179372
N3    N     N_R   0.500000 0.000000 0.743810 -0.184669
N4    N     N_R   0.500000 0.000000 0.256190 -0.168008
C81   C     C_R   0.943622 0.514303 0.896443 -0.011672
C82   C     C_R   0.057149 0.488520 0.102905 -0.019979
C83   C     C_R   0.057221 0.500705 0.897581 0.000952
C84   C     C_R   0.943396 0.502741 0.101610 -0.001193
C85   C     C_R   0.459016 0.961947 0.898498 -0.020197
C86   C     C_R   0.545106 0.034435 0.101961 -0.029354
C87   C     C_R   0.540716 0.037888 0.897058 -0.023571
C88   C     C_R   0.454083 0.965715 0.103375 -0.023036
C89   C     C_R   0.000258 0.503557 0.948138 -0.034701
C90   C     C_R   0.000441 0.499313 0.051226 -0.017081
C91   C     C_R   0.499904 0.999807 0.949432 -0.027450
C92   C     C_R   0.499799 0.999821 0.051702 -0.043870
C93   C     C_R   0.887737 0.523965 0.951046 0.168492
C94   C     C_R   0.113487 0.481076 0.047823 0.141860
C95   C     C_R   0.113946 0.501539 0.951776 0.144490
C96   C     C_R   0.886622 0.504124 0.047157 0.077465
C97   C     C_R   0.424750 0.916506 0.950458 0.151542
C98   C     C_R   0.581526 0.079213 0.048351 0.162616
C99   C     C_R   0.573611 0.084355 0.946698 0.179265
C100  C     C_R   0.416197 0.922185 0.051399 0.167422
S1    S     S_3+6 0.065170 0.687638 0.666981 0.061618
O17   O     O_2   0.049537 0.752479 0.697697 -0.213670
O18   O     O_2   0.004326 0.660363 0.633301 -0.228299
O19   O     O_3   0.090880 0.645874 0.762811 -0.530446
H17   H     H_    0.129535 0.667108 0.784768 0.335848
S2    S     S_3+6 0.929896 0.312611 0.677852 0.034080
O20   O     O_2   0.991190 0.342121 0.650071 -0.257019
O21   O     O_2   0.901844 0.347568 0.759748 -0.323594
O22   O     O_3   0.948751 0.240151 0.716377 -0.473351
H18   H     H_    0.974859 0.245733 0.774754 0.388808
S3    S     S_3+6 0.951666 0.730076 0.446641 0.055970
O23   O     O_2   0.991538 0.766899 0.513878 -0.187023
O24   O     O_2   0.991875 0.680675 0.402636 -0.289434
O25   O     O_3   0.925894 0.778640 0.358664 -0.458756
H19   H     H_    0.899099 0.752744 0.317137 0.351084
S4    S     S_3+6 0.051997 0.268093 0.479070 0.052110
O26   O     O_2   0.019298 0.228880 0.553426 -0.217407
O27   O     O_2   0.006185 0.314597 0.436444 -0.295002
O28   O     O_3   0.076676 0.221338 0.391472 -0.489639
H20   H     H_    0.037858 0.201164 0.367663 0.394034
S5    S     S_3+6 0.558099 0.215553 0.395438 0.020237
O29   O     O_2   0.551332 0.200246 0.291600 -0.235270
O30   O     O_2   0.504280 0.188422 0.451309 -0.324659
O31   O     O_3   0.555452 0.293251 0.405270 -0.498876
H21   H     H_    0.561259 0.300709 0.474629 0.346457
S6    S     S_3+6 0.440775 0.791919 0.394340 0.029904
O32   O     O_2   0.455897 0.828433 0.304893 -0.224622
O33   O     O_2   0.490643 0.803558 0.468795 -0.334794
O34   O     O_3   0.441687 0.715683 0.370138 -0.469887
H22   H     H_    0.436142 0.694365 0.433109 0.356132
S7    S     S_3+6 0.374863 0.168818 0.303033 0.064684
O35   O     O_2   0.360943 0.225398 0.241363 -0.251499
O36   O     O_2   0.440335 0.146267 0.281417 -0.196718
O37   O     O_3   0.323245 0.113413 0.273286 -0.545312
H23   H     H_    0.325769 0.110997 0.202540 0.376405
S8    S     S_3+6 0.611662 0.810657 0.318062 0.078428
O38   O     O_2   0.568159 0.758379 0.293975 -0.188578
O39   O     O_2   0.584213 0.870163 0.278121 -0.244600
O40   O     O_3   0.680660 0.797948 0.262119 -0.526432
H24   H     H_    0.669111 0.791779 0.194031 0.384050
S9    S     S_3+6 0.252815 0.649810 0.242622 0.021699
O41   O     O_2   0.187630 0.654455 0.199397 -0.249730
O42   O     O_2   0.300166 0.669315 0.168120 -0.245271
O43   O     O_3   0.267256 0.575610 0.276043 -0.491436
H25   H     H_    0.309886 0.575997 0.305813 0.392297
S10   S     S_3+6 0.748527 0.352826 0.241077 -0.003899
O44   O     O_2   0.813017 0.342106 0.199670 -0.272566
O45   O     O_2   0.699460 0.336251 0.167624 -0.251928
O46   O     O_3   0.739881 0.428061 0.268308 -0.523360
H26   H     H_    0.698433 0.430508 0.300748 0.386138
S11   S     S_3+6 0.670803 0.574076 0.425062 0.004555
O47   O     O_2   0.708645 0.555729 0.339131 -0.283539
O48   O     O_2   0.683325 0.528442 0.506092 -0.305743
O49   O     O_3   0.593394 0.573218 0.396712 -0.493404
H27   H     H_    0.585218 0.530261 0.376081 0.392485
S12   S     S_3+6 0.320644 0.418157 0.365647 0.027900
O50   O     O_2   0.274884 0.432712 0.285330 -0.245504
O51   O     O_2   0.316495 0.468548 0.438460 -0.315432
O52   O     O_3   0.394282 0.416110 0.320848 -0.452701
H28   H     H_    0.422615 0.415758 0.377709 0.359994
S13   S     S_3+6 0.788002 0.113023 0.735762 0.044477
O53   O     O_2   0.769876 0.050084 0.701807 -0.203353
O54   O     O_2   0.856056 0.110116 0.767528 -0.208729
O55   O     O_3   0.743643 0.130901 0.830566 -0.547285
H29   H     H_    0.760641 0.170793 0.853206 0.350340
S14   S     S_3+6 0.215831 0.874923 0.743333 0.021143
O56   O     O_2   0.147277 0.881134 0.769778 -0.202584
O57   O     O_2   0.250553 0.845668 0.826985 -0.323849
O58   O     O_3   0.243686 0.946423 0.722558 -0.515055
H30   H     H_    0.237096 0.968104 0.783680 0.406518
S15   S     S_3+6 0.195286 0.097850 0.683726 0.026659
O59   O     O_2   0.195160 0.044065 0.616755 -0.225628
O60   O     O_2   0.246073 0.088429 0.758621 -0.321526
O61   O     O_3   0.124621 0.102488 0.737916 -0.488104
H31   H     H_    0.119149 0.061552 0.770344 0.405099
S16   S     S_3+6 0.821816 0.914558 0.632696 0.064626
O62   O     O_2   0.806868 0.965948 0.561375 -0.250669
O63   O     O_2   0.783818 0.923216 0.722236 -0.245959
O64   O     O_3   0.899274 0.916198 0.660563 -0.468106
H32   H     H_    0.906096 0.957818 0.687604 0.416926
C101  C     C_3   0.112504 0.462129 0.750797 -0.730743
H33   H     H_    0.152742 0.452050 0.799097 0.194163
H34   H     H_    0.099433 0.414235 0.731846 0.252584
H35   H     H_    0.130677 0.490875 0.690369 0.243525
C102  C     C_3   0.889266 0.542887 0.247956 -0.673924
H36   H     H_    0.850273 0.556072 0.198924 0.207279
H37   H     H_    0.868662 0.514329 0.306823 0.252264
H38   H     H_    0.904813 0.589808 0.268290 0.249032
C103  C     C_3   0.880282 0.511518 0.742936 -0.682691
H39   H     H_    0.878405 0.493623 0.671586 0.253993
H40   H     H_    0.847107 0.480589 0.781982 0.213427
H41   H     H_    0.861434 0.559445 0.735335 0.209640
C104  C     C_3   0.119746 0.488888 0.257320 -0.646228
H42   H     H_    0.121411 0.505200 0.329586 0.244836
H43   H     H_    0.138978 0.441025 0.262582 0.226280
H44   H     H_    0.152555 0.521134 0.220319 0.254405
C105  C     C_3   0.613555 0.033023 0.756955 -0.648324
H45   H     H_    0.621697 0.000104 0.698419 0.244405
H46   H     H_    0.622634 0.081306 0.733210 0.230765
H47   H     H_    0.649073 0.020441 0.813264 0.250507
C106  C     C_3   0.384072 0.976282 0.248430 -0.704387
H48   H     H_    0.380218 0.007884 0.308608 0.279404
H49   H     H_    0.348648 0.994255 0.195559 0.202510
H50   H     H_    0.370795 0.929151 0.273755 0.228926
C107  C     C_3   0.387038 0.965943 0.755653 -0.670754
H51   H     H_    0.378439 0.999111 0.695529 0.253268
H52   H     H_    0.378985 0.917714 0.733593 0.232692
H53   H     H_    0.351348 0.977684 0.810599 0.229703
C108  C     C_3   0.615774 0.025292 0.248545 -0.695976
H54   H     H_    0.621416 0.992188 0.308713 0.265089
H55   H     H_    0.651685 0.010008 0.196105 0.210202
H56   H     H_    0.627393 0.072342 0.273536 0.223193
C109  C     C_3   0.834588 0.567384 0.919160 -0.814369
H57   H     H_    0.852813 0.605395 0.872458 0.247013
H58   H     H_    0.795672 0.541848 0.884304 0.242172
H59   H     H_    0.814050 0.591472 0.981583 0.245022
C110  C     C_3   0.168431 0.439538 0.078596 -0.748282
H60   H     H_    0.151796 0.399890 0.123362 0.241685
H61   H     H_    0.190389 0.417449 0.015493 0.234441
H62   H     H_    0.206051 0.466151 0.114660 0.283668
C111  C     C_3   0.172775 0.534258 0.916188 -0.768450
H63   H     H_    0.185903 0.570936 0.967359 0.274968
H64   H     H_    0.213251 0.501446 0.910927 0.231356
H65   H     H_    0.164933 0.557660 0.845525 0.246808
C112  C     C_3   0.826397 0.474551 0.082944 -0.647011
H66   H     H_    0.811632 0.437778 0.032974 0.261305
H67   H     H_    0.833915 0.452017 0.153979 0.291907
H68   H     H_    0.787408 0.509111 0.087615 0.239371
C113  C     C_3   0.407946 0.856721 0.901437 -0.782402
H69   H     H_    0.424482 0.816218 0.945606 0.253259
H70   H     H_    0.356377 0.854283 0.890526 0.284360
H71   H     H_    0.432246 0.851757 0.831723 0.231364
C114  C     C_3   0.623380 0.125527 0.098655 -0.757224
H72   H     H_    0.637904 0.165671 0.053689 0.249527
H73   H     H_    0.597862 0.145245 0.159765 0.274225
H74   H     H_    0.668197 0.103025 0.122416 0.232895
C115  C     C_3   0.588050 0.144866 0.894356 -0.793938
H75   H     H_    0.566407 0.184142 0.933161 0.248106
H76   H     H_    0.639490 0.151823 0.889640 0.275711
H77   H     H_    0.566872 0.147660 0.821455 0.231258
C116  C     C_3   0.370711 0.878352 0.102061 -0.757912
H78   H     H_    0.351575 0.841346 0.056789 0.255751
H79   H     H_    0.394670 0.854307 0.162788 0.273254
H80   H     H_    0.328156 0.903821 0.125750 0.230242

loop_
_geom_bond_atom_site_label_1
_geom_bond_atom_site_label_2
_geom_bond_distance
_ccdc_geom_bond_type
O1    Cu1   1.965839 S    
S7    O35   1.503285 D    
C8    C21   1.472936 S    
O58   H30   0.990124 S    
O5    Cu2   1.975227 S    
C75   C81   1.439646 A    
C15   S7    1.790171 S    
O34   H22   0.990621 S    
C13   S5    1.774017 S    
C14   C22   1.406311 A    
S16   O64   1.682294 S    
C100  C116  1.520507 S    
C25   H1    1.079492 S    
C102  H38   1.107019 S    
C89   C90   1.438407 A    
S5    O29   1.497609 D    
C77   C87   1.435403 A    
C73   N1    1.389789 A    
C12   C52   1.399270 A    
S9    O41   1.503091 D    
O10   C6    1.300708 A    
C116  H80   1.106101 S    
S7    O36   1.498383 D    
C10   C18   1.432124 A    
C108  H54   1.095264 S    
S5    O30   1.499181 D    
C7    C22   1.476740 S    
C32   C40   1.406940 A    
O12   Cu4   1.957910 S    
C54   C69   1.400933 A    
C19   C27   1.395820 A    
S4    O26   1.499795 D    
S16   O63   1.503017 D    
C53   C70   1.398074 A    
C106  H48   1.094091 S    
C101  H35   1.108027 S    
C35   C59   1.415061 A    
S1    O18   1.495837 D    
O28   H20   0.990586 S    
C111  H63   1.110866 S    
S14   O57   1.499688 D    
O6    Cu1   1.975224 S    
O2    C2    1.301665 A    
C80   C108  1.508978 S    
C41   C49   1.415789 A    
C76   C104  1.516243 S    
C46   C54   1.411965 A    
C105  H46   1.103606 S    
C114  H74   1.107064 S    
C29   C37   1.404652 A    
O43   H25   0.990472 S    
O13   C7    1.308390 A    
O3    C2    1.305810 A    
C20   C28   1.400560 A    
C110  H60   1.108413 S    
S13   O53   1.496878 D    
S3    O25   1.681265 S    
O14   C8    1.305254 A    
C101  H33   1.099563 S    
O37   H23   0.990596 S    
C82   C94   1.431453 A    
C16   C56   1.402985 A    
C74   C84   1.429715 A    
C77   N3    1.388096 A    
C33   C41   1.415293 A    
C41   C46   1.415311 A    
C72   H16   1.082165 S    
S8    O40   1.682255 S    
C86   C98   1.439511 A    
S15   O59   1.502545 D    
C114  H73   1.102032 S    
C35   C43   1.416141 A    
C93   C96   1.398718 A    
C57   S9    1.777219 S    
S3    O23   1.499991 D    
C36   C44   1.415385 A    
O13   Cu4   1.975227 S    
S8    O38   1.501729 D    
C58   S10   1.769612 S    
O11   Cu3   1.957910 S    
O14   Cu3   1.975224 S    
C15   C23   1.420177 A    
C112  H66   1.110743 S    
C10   C50   1.425129 A    
S2    O21   1.503016 D    
C113  H69   1.110555 S    
C115  H76   1.101724 S    
C61   C65   1.392914 A    
C39   C47   1.413694 A    
C24   C32   1.403224 A    
O16   Cu3   1.979419 S    
C77   C105  1.503322 S    
O49   H27   0.990623 S    
S10   O44   1.502566 D    
C25   C33   1.396322 A    
O52   H28   0.990717 S    
C59   S11   1.771734 S    
C115  H75   1.110572 S    
C83   C89   1.401307 A    
S3    O24   1.500150 D    
S6    O33   1.501407 D    
O8    Cu1   1.979419 S    
S13   O54   1.503899 D    
C42   C50   1.416682 A    
C74   N2    1.390712 A    
S1    O17   1.503911 D    
C87   C99   1.413425 A    
S12   O52   1.682412 S    
C88   C92   1.411506 A    
C21   C29   1.400947 A    
S5    O31   1.682341 S    
C68   H12   1.078457 S    
C38   C46   1.420130 A    
C10   S2    1.810505 S    
C9    C49   1.421901 A    
S9    O42   1.503609 D    
C31   H7    1.080517 S    
C60   S12   1.771657 S    
S7    O37   1.680193 S    
C5    C24   1.474396 S    
C108  H55   1.110264 S    
O8    C3    1.299786 A    
C30   H6    1.066760 S    
C78   C88   1.442374 A    
C84   C96   1.416534 A    
C98   C114  1.518308 S    
S11   O47   1.502871 D    
C30   C38   1.404021 A    
C44   C47   1.402418 A    
C71   H15   1.080149 S    
O3    Cu1   1.957910 S    
S16   O62   1.503305 D    
C70   H14   1.080808 S    
C38   C62   1.417625 A    
S12   O51   1.503497 D    
Cu4   N4    2.041143 S    
C45   C53   1.410612 A    
C37   C45   1.415572 A    
O64   H32   0.990746 S    
C111  H64   1.109546 S    
C113  H70   1.102217 S    
C97   C113  1.513725 S    
S14   O56   1.504056 D    
C73   C83   1.429475 A    
C61   S13   1.777962 S    
C34   C42   1.413070 A    
C85   C97   1.413243 A    
C116  H78   1.104448 S    
C62   C66   1.390457 A    
O12   C5    1.295189 A    
C32   H8    1.081464 S    
S10   O45   1.503625 D    
C58   C70   1.389943 A    
C80   N4    1.390811 A    
C83   C95   1.414400 A    
C96   C112  1.511790 S    
C106  H49   1.109798 S    
C1    C20   1.456455 S    
C60   C72   1.401701 A    
C12   S4    1.781253 S    
C33   C57   1.416431 A    
C2    C19   1.454099 S    
S11   O48   1.503296 D    
C76   C82   1.443507 A    
C103  H39   1.074767 S    
C39   C63   1.415158 A    
C3    C18   1.476279 S    
C116  H79   1.102147 S    
C111  H65   1.108533 S    
S2    O22   1.684247 S    
C11   S3    1.785376 S    
C85   C91   1.394334 A    
C109  H58   1.108700 S    
C6    C23   1.472385 S    
C26   H2    1.080015 S    
C86   C92   1.410439 A    
C9    S1    1.810077 S    
C26   C34   1.394332 A    
C102  H36   1.099858 S    
C115  H77   1.108550 S    
C84   C90   1.402233 A    
O2    Cu2   1.965839 S    
C78   N4    1.392171 A    
C48   C56   1.402574 A    
C104  H43   1.106097 S    
O25   H19   0.990733 S    
C43   C51   1.408253 A    
C55   C72   1.403718 A    
C22   C30   1.399783 A    
C15   C55   1.405865 A    
C67   H11   1.079818 S    
O4    C1    1.299453 A    
C13   C53   1.403288 A    
O15   C8    1.310004 A    
S15   O60   1.503208 D    
C14   C54   1.405934 A    
C95   C111  1.516179 S    
O16   C7    1.308178 A    
C79   N3    1.386636 A    
C12   C20   1.406530 A    
C107  H52   1.103504 S    
S6    O32   1.498528 D    
C75   C103  1.517219 S    
S13   O55   1.675225 S    
C37   C61   1.416033 A    
S1    O19   1.680688 S    
C31   C39   1.402336 A    
C93   C109  1.515352 S    
C91   C92   1.425994 A    
C66   H10   1.073518 S    
C62   S14   1.778730 S    
C52   C67   1.400380 A    
C65   H9    1.072460 S    
O9    Cu3   1.965839 S    
C27   C35   1.401020 A    
S2    O20   1.498116 D    
C104  H42   1.074254 S    
S9    O43   1.680704 S    
O10   Cu4   1.965839 S    
C28   C36   1.405054 A    
C43   C48   1.403616 A    
O31   H21   0.990581 S    
C108  H56   1.107188 S    
C28   H4    1.081212 S    
C42   C45   1.414410 A    
C112  H68   1.109644 S    
O61   H31   0.990635 S    
C57   C69   1.394469 A    
C59   C71   1.398256 A    
C99   C115  1.514948 S    
S4    O28   1.681590 S    
C64   C68   1.398225 A    
C73   C101  1.510379 S    
C81   C89   1.409367 A    
S12   O50   1.502220 D    
C74   C102  1.510916 S    
C36   C60   1.416404 A    
C63   C67   1.396024 A    
C109  H59   1.111246 S    
O4    Cu2   1.957910 S    
C105  H45   1.105309 S    
C16   S8    1.796205 S    
C94   C95   1.401485 A    
O5    C3    1.317425 A    
Cu3   N3    2.041143 S    
O40   H24   0.990623 S    
C103  H41   1.106450 S    
Cu2   N2    2.041143 S    
O11   C6    1.315309 A    
O1    C1    1.308592 A    
C79   C85   1.436458 A    
C75   N1    1.396042 A    
O19   H17   0.989889 S    
C106  H50   1.106917 S    
C13   C21   1.406893 A    
C69   H13   1.081081 S    
C110  H62   1.108377 S    
S10   O46   1.680566 S    
S4    O27   1.499580 D    
Cu1   Cu2   2.716689 S    
S11   O49   1.682315 S    
C103  H40   1.109115 S    
C112  H67   1.104168 S    
C14   S6    1.772529 S    
O22   H18   0.990616 S    
C18   C26   1.398174 A    
C76   N2    1.398737 A    
C4    C17   1.473613 S    
C40   C64   1.414183 A    
S14   O58   1.673623 S    
O9    C5    1.322075 A    
O15   Cu4   1.979416 S    
C109  H57   1.108833 S    
O7    Cu2   1.979416 S    
O6    C4    1.299264 A    
C23   C31   1.400847 A    
C94   C110  1.515541 S    
C97   C100  1.427717 A    
S8    O39   1.498380 D    
C102  H37   1.109193 S    
C34   C58   1.415916 A    
C11   C19   1.410470 A    
C9    C17   1.428095 A    
C44   C52   1.406562 A    
C88   C100  1.441716 A    
O46   H26   0.990548 S    
C104  H44   1.108052 S    
C87   C91   1.395046 A    
C113  H71   1.109088 S    
C16   C24   1.425251 A    
C98   C99   1.428150 A    
C56   C71   1.403664 A    
C29   H5    1.069105 S    
C51   C68   1.403304 A    
C105  H47   1.111333 S    
C78   C106  1.506478 S    
C47   C55   1.405380 A    
O55   H29   0.990747 S    
C40   C48   1.412906 A    
S6    O34   1.682918 S    
C101  H34   1.106793 S    
O7    C4    1.316730 A    
C107  H53   1.110329 S    
C110  H61   1.111204 S    
Cu3   Cu4   2.716689 S    
C27   H3    1.081325 S    
C80   C86   1.441057 A    
C81   C93   1.426208 A    
S15   O61   1.682231 S    
C107  H51   1.103631 S    
C50   C65   1.405024 A    
C17   C25   1.397871 A    
C82   C90   1.410695 A    
C63   S15   1.765694 S    
C49   C66   1.401850 A    
C64   S16   1.764891 S    
C11   C51   1.405043 A    
C79   C107  1.500054 S    
Cu1   N1    2.041143 S    
C114  H72   1.104428 S    
