data_mof_unit_45194.cif
_audit_creation_date              2012-12-10T16:50:56-0500
_audit_creation_method            fapswitch 2.2
_symmetry_space_group_name_H-M    P1
_symmetry_Int_Tables_number       1
_space_group_crystal_system       triclinic
_cell_length_a                    8.122836
_cell_length_b                    8.525503
_cell_length_c                    10.452193
_cell_angle_alpha                 91.681215
_cell_angle_beta                  85.481297
_cell_angle_gamma                 93.07327
_cell_volume                      720.310534344

loop_
_atom_site_label
_atom_site_type_symbol
_atom_type_description
_atom_site_fract_x
_atom_site_fract_y
_atom_site_fract_z
_atom_type_partial_charge
C1    C     C_R   0.544108 0.792903 0.496755 0.942452
C2    C     C_R   0.913816 0.403141 0.006532 -0.159084
C3    C     C_R   0.078569 0.435304 0.020998 -0.100865
C4    C     C_R   0.921430 0.564697 0.979002 -0.100866
C5    C     C_R   0.191068 0.401685 0.107224 -0.011372
C6    C     C_R   0.808931 0.598315 0.892776 -0.011371
C7    C     C_R   0.349873 0.473580 0.068145 0.008082
C8    C     C_R   0.650127 0.526420 0.931855 0.008081
C9    C     C_R   0.366318 0.567692 0.953596 0.040774
C10   C     C_R   0.633681 0.432307 0.046404 0.040775
C11   C     C_R   0.489161 0.437965 0.124502 -0.186538
C12   C     C_R   0.455892 0.207097 0.503245 0.942452
C13   C     C_R   0.510839 0.562034 0.875498 -0.186537
C14   C     C_1   0.168537 0.264228 0.185840 0.147406
C15   C     C_1   0.831458 0.735777 0.814167 0.147405
C16   C     C_2   0.566594 0.957178 0.495218 -0.360719
C17   C     C_2   0.433405 0.042822 0.504781 -0.360718
C18   C     C_R   0.504247 0.523775 0.738622 0.863730
C19   C     C_R   0.495753 0.476224 0.261378 0.863730
C20   C     C_R   0.222587 0.634087 0.912658 -0.190485
C21   C     C_R   0.777412 0.365912 0.087341 -0.190488
C22   C     C_R   0.086183 0.596860 0.993468 -0.159083
H1    H     H_    0.865735 0.640553 0.057249 0.162629
H2    H     H_    0.991928 0.623336 0.593520 0.200763
H3    H     H_    0.134263 0.359447 0.942751 0.162629
H4    H     H_    0.218168 0.705283 0.829003 0.181955
H5    H     H_    0.781832 0.294718 0.170998 0.181957
H6    H     H_    0.107915 0.676756 0.075806 0.171726
H7    H     H_    0.892084 0.323245 0.924193 0.171728
H8    H     H_    0.692956 0.006996 0.486242 0.193681
H9    H     H_    0.307044 0.993004 0.513758 0.193681
H10   H     H_    0.008071 0.376662 0.406481 0.200766
N1    N     N_2   0.950330 0.457950 0.466250 -0.179944
N2    N     N_2   0.049670 0.542050 0.533750 -0.179944
N3    N     N_1   0.150897 0.153637 0.248068 -0.227551
N4    N     N_1   0.849093 0.846375 0.751949 -0.227550
O1    O     O_R   0.389250 0.738570 0.508280 -0.614845
O2    O     O_R   0.610750 0.261430 0.491720 -0.614845
O3    O     O_R   0.678390 0.711630 0.486650 -0.612013
O4    O     O_R   0.321610 0.288370 0.513350 -0.612012
O5    O     O_R   0.355430 0.513480 0.694040 -0.617275
O6    O     O_R   0.644570 0.486520 0.305960 -0.617275
O7    O     O_R   0.644570 0.486540 0.672410 -0.603683
O8    O     O_R   0.355430 0.513460 0.327590 -0.603682
Zn1   Zn    Zn3+2 0.306940 0.517990 0.514440 0.951171
Zn2   Zn    Zn3+2 0.693060 0.482010 0.485560 0.951171

loop_
_geom_bond_atom_site_label_1
_geom_bond_atom_site_label_2
_ccdc_geom_bond_type
C12   C17   S    
C12   O4    A    
C2    C4    A    
C8    C13   A    
C4    C22   A    
C9    C20   A    
C19   O6    A    
C1    O1    A    
H10   N1    S    
C2    C21   A    
C2    C3    A    
C21   H5    S    
C1    C16   S    
C22   H6    S    
C18   O7    A    
C19   O8    A    
C7    C11   A    
N1    Zn2   S    
C11   C19   S    
C5    C14   S    
C20   H4    S    
C13   C18   S    
C2    H7    S    
C6    C8    A    
C4    C6    A    
C20   C22   A    
N1    N2    D    
C5    C7    A    
O3    Zn2   S    
C10   C21   A    
C12   O2    A    
O4    Zn1   S    
C17   H9    S    
O7    Zn2   S    
O2    Zn2   S    
C10   C11   A    
C1    O3    A    
O1    Zn1   S    
C7    C9    A    
C15   N4    T    
C3    H3    S    
O8    Zn1   S    
C8    C10   A    
O6    Zn2   S    
C18   O5    A    
C14   N3    T    
N2    Zn1   S    
C4    H1    S    
C9    C13   A    
C3    C22   A    
O5    Zn1   S    
C6    C15   S    
C16   H8    S    
H2    N2    S    
C16   C17   D    
C3    C5    A    
