data_mof_unit_55522.cif
_audit_creation_date              2012-12-10T18:50:46-0500
_audit_creation_method            fapswitch 2.2
_symmetry_space_group_name_H-M    P1
_symmetry_Int_Tables_number       1
_space_group_crystal_system       triclinic
_cell_length_a                    10.654202
_cell_length_b                    9.92054
_cell_length_c                    15.732724
_cell_angle_alpha                 90.083134
_cell_angle_beta                  90.705937
_cell_angle_gamma                 90.45138
_cell_volume                      1662.69733418

loop_
_atom_site_label
_atom_site_type_symbol
_atom_type_description
_atom_site_fract_x
_atom_site_fract_y
_atom_site_fract_z
_atom_type_partial_charge
C1    C     C_R   0.260230 0.499445 0.500506 0.998177
C2    C     C_R   0.936269 0.568612 0.566644 0.053425
C3    C     C_R   0.871378 0.501940 0.500655 -0.287186
C4    C     C_R   0.127336 0.498316 0.501771 -0.331133
C5    C     C_R   0.508551 0.071675 0.574242 -0.194313
C6    C     C_R   0.512328 0.928719 0.574018 -0.187560
C7    C     C_R   0.500413 0.500022 0.338456 0.905253
C8    C     C_R   0.481634 0.928247 0.426007 0.477035
C9    C     C_R   0.493092 0.071791 0.424941 0.471162
C10   C     C_R   0.739353 0.500596 0.500522 0.984337
C11   C     C_R   0.499989 0.500072 0.661478 0.925291
C12   C     C_3   0.632303 0.548241 0.951537 -0.356781
C13   C     C_3   0.394223 0.589645 0.048433 -0.024343
C14   C     C_3   0.486182 0.353364 0.049493 -0.021526
C15   C     C_3   0.475919 0.354361 0.950333 -0.015202
C16   C     C_3   0.398355 0.595482 0.949243 -0.004415
C17   C     C_1   0.501241 0.500145 0.750162 -0.090893
C18   C     C_3   0.504112 0.500859 0.082654 0.102428
C19   C     C_3   0.502812 0.499561 0.916913 0.091304
C20   C     C_3   0.322095 0.831777 0.349431 -0.238425
C21   C     C_3   0.417754 0.135324 0.292645 -0.116896
C22   C     C_3   0.110326 0.203398 0.408333 -0.245441
C23   C     C_3   0.629648 0.558761 0.049320 -0.348495
C24   C     C_3   0.138086 0.780904 0.608316 -0.183681
C25   C     C_1   0.502335 0.499837 0.825410 0.015329
C26   C     C_1   0.504390 0.500790 0.174313 0.006374
C27   C     C_1   0.502879 0.500394 0.249633 -0.098923
C28   C     C_R   0.061581 0.420481 0.441287 0.422249
C29   C     C_R   0.066168 0.575461 0.563413 0.421303
C30   C     C_R   0.932622 0.432723 0.435957 0.052795
H1    H     H_    0.306131 0.557674 0.924602 0.124141
H2    H     H_    0.523118 0.875796 0.633642 0.208775
H3    H     H_    0.278859 0.820154 0.412989 0.129040
H4    H     H_    0.305822 0.736219 0.314198 0.212808
H5    H     H_    0.270575 0.911097 0.314396 0.128919
H6    H     H_    0.422014 0.226471 0.252263 0.181617
H7    H     H_    0.326132 0.137803 0.325017 0.101345
H8    H     H_    0.424315 0.048193 0.248799 0.219071
H9    H     H_    0.114017 0.139427 0.350596 0.178330
H10   H     H_    0.019532 0.178939 0.439531 0.164303
H11   H     H_    0.188565 0.174229 0.451595 0.158528
H12   H     H_    0.376997 0.328233 0.933023 0.119844
H13   H     H_    0.163890 0.802130 0.541363 0.122246
H14   H     H_    0.210437 0.829252 0.649793 0.193485
H15   H     H_    0.046907 0.828976 0.622102 0.179111
H16   H     H_    0.304576 0.538995 0.066011 0.114401
H17   H     H_    0.395910 0.313051 0.074289 0.112151
H18   H     H_    0.640567 0.666158 0.068643 0.227209
H19   H     H_    0.711069 0.504100 0.077094 0.213717
H20   H     H_    0.658095 0.647894 0.924251 0.222270
H21   H     H_    0.706545 0.476335 0.932545 0.219107
H22   H     H_    0.515918 0.124930 0.634102 0.205077
I1    I     I_    0.625549 0.217810 0.104254 -0.227723
I2    I     I_    0.381101 0.783200 0.113349 -0.297775
I3    I     I_    0.579489 0.198857 0.883403 -0.259564
I4    I     I_    0.412274 0.795159 0.891898 -0.253194
I5    I     I_    0.835076 0.350256 0.327650 -0.230574
I6    I     I_    0.841769 0.646454 0.675381 -0.307781
N1    N     N_R   0.499970 0.857200 0.499980 -0.146688
N2    N     N_R   0.499970 0.142800 0.499980 -0.145530
O1    O     O_R   0.316750 0.614620 0.499990 -0.635002
O2    O     O_3   0.520814 0.137480 0.349751 -0.551936
O3    O     O_3   0.124062 0.340101 0.383863 -0.585656
O4    O     O_3   0.134630 0.641493 0.626543 -0.576777
O5    O     O_R   0.316750 0.385380 0.499990 -0.611390
O6    O     O_R   0.499990 0.614720 0.377140 -0.563261
O7    O     O_R   0.499990 0.385280 0.377140 -0.557328
O8    O     O_R   0.683220 0.614710 0.500000 -0.595097
O9    O     O_R   0.683220 0.385290 0.500000 -0.586532
O10   O     O_R   0.499980 0.614620 0.622860 -0.606233
O11   O     O_R   0.499980 0.385380 0.622860 -0.629821
O12   O     O_3   0.452757 0.860659 0.351650 -0.566888
Zn1   Zn    Zn3+2 0.499980 0.653120 0.500000 1.004333
Zn2   Zn    Zn3+2 0.499980 0.346880 0.500000 1.013669

loop_
_geom_bond_atom_site_label_1
_geom_bond_atom_site_label_2
_ccdc_geom_bond_type
C8    C9    A    
O11   Zn2   S    
C6    H2    S    
C16   I4    S    
C5    H22   S    
C14   H17   S    
C10   O8    A    
C3    C30   A    
C14   C18   S    
C1    O5    A    
C4    C29   A    
C18   C26   S    
O6    Zn1   S    
C1    C4    S    
C17   C25   T    
C9    N2    A    
O10   Zn1   S    
C28   C30   A    
C2    C3    A    
C26   C27   T    
C29   O4    S    
C22   H10   S    
O9    Zn2   S    
C24   O4    S    
O7    Zn2   S    
C22   O3    S    
C7    O6    A    
C15   C19   S    
C14   I1    S    
C12   C23   S    
C21   O2    S    
C5    C6    A    
C13   C18   S    
C2    C29   A    
C24   H14   S    
C20   H3    S    
C6    N1    A    
C12   C19   S    
N2    Zn2   S    
C4    C28   A    
C30   I5    S    
C16   C19   S    
C8    N1    A    
C2    I6    S    
C19   C25   S    
C11   O11   A    
C8    O12   S    
C22   H11   S    
C23   H19   S    
C24   H15   S    
C7    O7    A    
C20   H4    S    
C28   O3    S    
C10   O9    A    
C12   H21   S    
C7    C27   S    
C21   H7    S    
C13   I2    S    
C13   C16   S    
C3    C10   S    
C24   H13   S    
N1    Zn1   S    
C13   H16   S    
C11   C17   S    
C23   H18   S    
O5    Zn2   S    
C5    N2    A    
O1    Zn1   S    
O8    Zn1   S    
C14   C15   S    
C20   H5    S    
C22   H9    S    
C21   H6    S    
C9    O2    S    
C20   O12   S    
C21   H8    S    
C18   C23   S    
C15   H12   S    
C15   I3    S    
C12   H20   S    
C16   H1    S    
C11   O10   A    
C1    O1    A    
