data_mof_unit_45098.cif
_audit_creation_date              2012-10-26T21:05:44-0400
_audit_creation_method            fapswitch 2.2
_symmetry_space_group_name_H-M    P1
_symmetry_Int_Tables_number       1
_space_group_crystal_system       triclinic
_cell_length_a                    13.056192
_cell_length_b                    9.09564
_cell_length_c                    7.790913
_cell_angle_alpha                 89.999952
_cell_angle_beta                  96.624432
_cell_angle_gamma                 90.0
_cell_volume                      919.028389744

loop_
_atom_site_label
_atom_site_type_symbol
_atom_type_description
_atom_site_fract_x
_atom_site_fract_y
_atom_site_fract_z
_atom_type_partial_charge
C1    C     C_R   0.500000 0.220056 0.500000 0.548311
C2    C     C_R   0.873033 0.496057 0.721139 0.127900
C3    C     C_R   0.136142 0.506002 0.593099 -0.161336
C4    C     C_R   0.863858 0.506003 0.406901 -0.161336
C5    C     C_R   0.029235 0.503892 0.581511 0.003743
C6    C     C_R   0.970765 0.503893 0.418489 0.003743
C7    C     C_1   0.500000 0.065385 0.500000 -0.057988
C8    C     C_1   0.500000 0.934634 0.500000 -0.054242
C9    C     C_3   0.807442 0.334951 0.929280 -0.290752
C10   C     C_3   0.192558 0.334952 0.070720 -0.290752
C11   C     C_R   0.500000 0.779952 0.500000 0.554521
C12   C     C_R   0.299733 0.500291 0.466510 0.540685
C13   C     C_R   0.700267 0.500291 0.533490 0.540685
C14   C     C_R   0.813505 0.501631 0.556280 0.009432
C15   C     C_R   0.186495 0.501631 0.443720 0.009432
C16   C     C_R   0.019814 0.499980 0.268872 -0.099445
C17   C     C_R   0.980186 0.499979 0.731128 -0.099445
C18   C     C_R   0.126967 0.496058 0.278861 0.127900
Cu1   Cu    Cu3+1 0.500010 0.500000 0.669080 0.994197
Cu2   Cu    Cu3+1 0.499990 0.500000 0.330920 0.994197
H1    H     H_    0.819899 0.509993 0.280294 0.136390
H2    H     H_    0.225617 0.335662 0.945793 0.143588
H3    H     H_    0.120065 0.269851 0.054537 0.142065
H4    H     H_    0.248667 0.281584 0.169436 0.171216
H5    H     H_    0.180101 0.509992 0.719706 0.136390
H6    H     H_    0.974828 0.497901 0.143509 0.149993
H7    H     H_    0.025171 0.497900 0.856491 0.149993
H8    H     H_    0.773104 0.560417 0.899021 0.279386
H9    H     H_    0.774384 0.335662 0.054208 0.143588
H10   H     H_    0.879935 0.269850 0.945461 0.142065
H11   H     H_    0.751332 0.281584 0.830564 0.171216
H12   H     H_    0.226896 0.560417 0.100979 0.279386
N1    N     N_1   0.499980 0.500000 0.076820 -0.091502
N2    N     N_1   0.500020 0.500000 0.923180 -0.091502
N3    N     N_2   0.828661 0.483994 0.878823 -0.538940
N4    N     N_2   0.171339 0.483995 0.121177 -0.538940
O1    O     O_R   0.500000 0.288400 0.642760 -0.498154
O2    O     O_R   0.500000 0.711600 0.357240 -0.494542
O3    O     O_R   0.500000 0.288400 0.357240 -0.498154
O4    O     O_R   0.500000 0.711600 0.642760 -0.494542
O5    O     O_R   0.349000 0.500000 0.619590 -0.512435
O6    O     O_R   0.651000 0.500000 0.380410 -0.512435
O7    O     O_R   0.348990 0.500000 0.334020 -0.506789
O8    O     O_R   0.651010 0.500000 0.665980 -0.506789

loop_
_geom_bond_atom_site_label_1
_geom_bond_atom_site_label_2
_ccdc_geom_bond_type
C2    N3    S    
C11   O2    A    
Cu2   O6    S    
C12   O5    A    
C1    O1    A    
C10   H3    S    
C15   C18   A    
Cu2   O2    S    
Cu1   Cu2   S    
C12   C15   S    
C9    H9    S    
N1    N2    T    
C7    C8    T    
C13   C14   S    
C10   H2    S    
C2    C17   A    
C4    C14   A    
C4    H1    S    
C5    C6    A    
C9    H10   S    
C8    C11   S    
Cu2   N1    S    
H12   N4    S    
C4    C6    A    
C13   O6    A    
C12   O7    A    
C16   H6    S    
C11   O4    A    
C2    C14   A    
C5    C17   A    
Cu1   O4    S    
C1    O3    A    
C6    C16   A    
C17   H7    S    
C3    H5    S    
Cu2   O7    S    
C3    C15   A    
Cu1   O8    S    
C16   C18   A    
C9    N3    S    
Cu2   O3    S    
C9    H11   S    
C10   N4    S    
Cu1   O1    S    
C10   H4    S    
C1    C7    S    
C18   N4    S    
C13   O8    A    
Cu1   O5    S    
H8    N3    S    
C3    C5    A    
Cu1   N2    S    
