data_mof_unit_66966.cif
_audit_creation_date              2012-12-11T17:40:57-0500
_audit_creation_method            fapswitch 2.2
_symmetry_space_group_name_H-M    P1
_symmetry_Int_Tables_number       1
_space_group_crystal_system       triclinic
_cell_length_a                    8.199626
_cell_length_b                    12.72622
_cell_length_c                    14.231164
_cell_angle_alpha                 92.917029
_cell_angle_beta                  90.707419
_cell_angle_gamma                 98.525907
_cell_volume                      1466.41391889

loop_
_atom_site_label
_atom_site_type_symbol
_atom_type_description
_atom_site_fract_x
_atom_site_fract_y
_atom_site_fract_z
_atom_type_partial_charge
Ba1   Ba    Ba6+2 0.855630 0.555280 0.454520 1.682282
Ba2   Ba    Ba6+2 0.334200 0.444810 0.545490 1.730609
C1    C     C_3   0.614763 0.957631 0.196229 -0.341235
C2    C     C_R   0.182594 0.499545 0.195887 0.032276
C3    C     C_R   0.338708 0.550483 0.225323 -0.313999
C4    C     C_3   0.140450 0.808663 0.196834 0.309700
C5    C     C_R   0.444635 0.607702 0.163922 0.011030
C6    C     C_R   0.389595 0.621901 0.072166 0.058774
C7    C     C_R   0.239920 0.562701 0.036905 -0.014310
C8    C     C_R   0.134307 0.501070 0.098806 -0.041344
C9    C     C_R   0.049431 0.504505 0.902734 -0.035313
C10   C     C_R   0.939118 0.449068 0.965818 0.010466
C11   C     C_R   0.007512 0.499712 0.804264 0.010208
C12   C     C_3   0.651912 0.861085 0.246826 0.344879
C13   C     C_R   0.855323 0.443803 0.773592 -0.272757
C14   C     C_R   0.740967 0.398992 0.837249 -0.002557
C15   C     C_R   0.783515 0.398881 0.932532 -0.145715
C16   C     C_3   0.119589 0.847649 0.098684 -0.298689
C17   C     C_R   0.196172 0.563082 0.940362 -0.020531
C18   C     C_R   0.762990 0.176947 0.538785 0.332782
C19   C     C_R   0.429552 0.814114 0.462997 -0.292194
C20   C     C_R   0.404869 0.995021 0.431190 -0.082462
C21   C     C_R   0.340385 0.887858 0.426151 -0.004677
C22   C     C_R   0.576842 0.847001 0.513648 0.064211
C23   C     C_3   0.474655 0.309292 0.259077 0.284693
C24   C     C_R   0.641838 0.957517 0.523256 -0.062760
C25   C     C_R   0.555322 0.031770 0.479138 -0.126017
C26   C     C_R   0.619025 0.141359 0.486322 -0.007623
C27   C     C_R   0.853521 0.105277 0.578264 -0.056673
C28   C     C_3   0.231307 0.764113 0.661384 0.321603
C29   C     C_R   0.790921 0.996475 0.573532 -0.181968
C30   C     C_3   0.306884 0.876858 0.694996 0.022651
C31   C     C_3   0.971694 0.236661 0.343821 0.278615
C32   C     C_3   0.979903 0.119127 0.325161 -0.363161
C33   C     C_3   0.725007 0.671650 0.735489 0.315388
C34   C     C_3   0.453987 0.287200 0.153174 -0.357820
C35   C     C_3   0.803937 0.703036 0.832301 -0.378744
C36   C     C_3   0.057527 0.211467 0.806431 0.391490
C37   C     C_3   0.077711 0.183390 0.908357 -0.315330
C38   C     C_3   0.566023 0.146010 0.786749 0.413074
C39   C     C_3   0.649250 0.098644 0.867397 0.535983
C40   C     C_R   0.983788 0.445268 0.061586 -0.028341
F1    F     F_    0.532984 0.046552 0.925051 -0.656608
F2    F     F_    0.819115 0.282685 0.547913 -0.720712
H1    H     H_    0.740812 0.887907 0.305761 0.073080
H2    H     H_    0.609930 0.615139 0.743410 0.067148
H3    H     H_    0.586026 0.019794 0.248340 0.079952
H4    H     H_    0.939263 0.717714 0.828526 0.137540
H5    H     H_    0.769189 0.638837 0.881434 0.091164
H6    H     H_    0.766601 0.778359 0.860673 0.203286
H7    H     H_    0.534342 0.823329 0.276666 -0.066909
H8    H     H_    0.506716 0.934887 0.147944 0.161266
H9    H     H_    0.357431 0.330484 0.287009 0.011455
H10   H     H_    0.575300 0.377285 0.272476 0.053848
H11   H     H_    0.349529 0.222250 0.137324 0.141173
H12   H     H_    0.440734 0.879655 0.709534 0.069862
H13   H     H_    0.428523 0.359793 0.119126 0.050106
H14   H     H_    0.568626 0.263221 0.123743 0.131800
H15   H     H_    0.721947 0.990414 0.154309 0.152515
H16   H     H_    0.207755 0.921295 0.089324 0.153099
H17   H     H_    0.145231 0.284471 0.795049 0.091684
H18   H     H_    0.930165 0.227843 0.794782 -0.113773
H19   H     H_    0.043250 0.247294 0.956555 0.045016
H20   H     H_    0.997966 0.107586 0.921890 0.130321
H21   H     H_    0.207477 0.174317 0.924053 0.194677
H22   H     H_    0.661630 0.182267 0.738498 -0.194361
H23   H     H_    0.290908 0.933346 0.639941 0.032843
H24   H     H_    0.489723 0.081034 0.744367 0.048368
H25   H     H_    0.726010 0.163160 0.910218 -0.045352
H26   H     H_    0.728202 0.041343 0.838734 -0.018397
H27   H     H_    0.057639 0.731848 0.201716 0.097265
H28   H     H_    0.379598 0.544094 0.297116 0.067289
H29   H     H_    0.694586 0.360901 0.980546 0.069644
H30   H     H_    0.821130 0.440825 0.699744 0.119585
H31   H     H_    0.899772 0.397820 0.106133 0.093401
H32   H     H_    0.278921 0.607104 0.893530 0.146806
H33   H     H_    0.333474 0.048536 0.398954 0.094960
H34   H     H_    0.844350 0.247505 0.360416 0.028535
H35   H     H_    0.861515 0.944006 0.608053 0.136206
H36   H     H_    0.270529 0.796072 0.206695 -0.047046
H37   H     H_    0.379220 0.730475 0.456402 0.068514
H38   H     H_    0.142949 0.785658 0.044937 0.116089
H39   H     H_    0.992110 0.864877 0.087849 0.165247
H40   H     H_    0.323555 0.725765 0.621584 -0.044905
H41   H     H_    0.122359 0.767678 0.615670 0.041602
H42   H     H_    0.054713 0.264857 0.404907 0.108004
H43   H     H_    0.904570 0.088645 0.261920 0.124379
H44   H     H_    0.932680 0.073933 0.386088 0.071966
H45   H     H_    0.109424 0.107209 0.312819 0.138812
H46   H     H_    0.811953 0.632045 0.692195 -0.001158
I1    I     I_    0.199311 0.926255 0.824273 -0.341712
I2    I     I_    0.513125 0.747859 0.995034 -0.450315
O1    O     O_2   0.887370 0.460630 0.272300 -0.469664
O2    O     O_2   0.197494 0.111746 0.574315 -0.486743
O3    O     O_3   0.090251 0.126593 0.746013 -0.572566
O4    O     O_3   0.129410 0.451380 0.388510 -0.482062
O5    O     O_3   0.575400 0.626570 0.547370 -0.490565
O6    O     O_2   0.344320 0.238700 0.455090 -0.483761
O7    O     O_3   0.513648 0.217926 0.300047 -0.656842
O8    O     O_2   0.405598 0.412309 0.834901 -0.505021
O9    O     O_3   0.461571 0.215742 0.823641 -0.583471
O10   O     O_3   0.670210 0.653170 0.329170 -0.483815
O11   O     O_2   0.784864 0.597085 0.164259 -0.485440
O12   O     O_3   0.686600 0.763327 0.695331 -0.629565
O13   O     O_3   0.017242 0.289516 0.262218 -0.646303
O14   O     O_3   0.723287 0.793181 0.183469 -0.563454
O15   O     O_2   0.845380 0.761330 0.544970 -0.468253
O16   O     O_3   0.088930 0.704860 0.376040 -0.490157
O17   O     O_2   0.003156 0.888107 0.437645 -0.486779
O18   O     O_3   0.098776 0.884804 0.263690 -0.601266
O19   O     O_2   0.302330 0.539400 0.727760 -0.463497
O20   O     O_3   0.060300 0.548700 0.611500 -0.474762
O21   O     O_3   0.519500 0.346920 0.670840 -0.435782
O22   O     O_3   0.183474 0.708318 0.740500 -0.617070
O23   O     O_3   0.614310 0.373510 0.452640 -0.408884
O24   O     O_3   0.100780 0.295230 0.623970 -0.420719
P1    P     P_3+3 0.054400 0.427280 0.286870 0.983670
P2    P     P_3+3 0.668300 0.742890 0.573060 0.978566
P3    P     P_3+3 0.133269 0.842710 0.376523 0.945509
P4    P     P_3+3 0.135310 0.572810 0.713130 0.989847
P5    P     P_3+3 0.059895 0.157362 0.629338 1.035371
P6    P     P_3+3 0.655287 0.660677 0.208001 0.993820
P7    P     P_3+3 0.526652 0.241332 0.422407 0.990000
P8    P     P_3+3 0.532757 0.345623 0.793213 0.975907

loop_
_geom_bond_atom_site_label_1
_geom_bond_atom_site_label_2
_ccdc_geom_bond_type
C8    C40   A    
C39   F1    S    
Ba1   O16   S    
C26   P7    S    
C5    C6    A    
C37   H20   S    
Ba2   O20   S    
C24   C25   A    
C39   H25   S    
C17   H32   S    
C33   C35   S    
C23   H9    S    
C3    H28   S    
C34   H14   S    
Ba1   O20   S    
C21   P3    S    
C36   C37   S    
Ba2   O21   S    
C31   H34   S    
C30   I1    S    
C13   C14   A    
Ba1   Ba2   S    
C1    H3    S    
O5    P2    S    
C10   C40   A    
C38   O9    S    
Ba2   O24   S    
C23   O7    S    
Ba2   O5    S    
C14   C15   A    
C27   P5    S    
C36   O3    S    
C3    C5    A    
C6    I2    S    
C7    C8    A    
O15   P2    D    
Ba1   P2    S    
C36   H17   S    
O3    P5    S    
C24   C29   A    
C38   H22   S    
C15   H29   S    
C4    O18   S    
O16   P3    S    
O13   P1    S    
C4    H27   S    
O1    P1    D    
C18   F2    S    
C7    C17   A    
C16   H39   S    
C12   H1    S    
O12   P2    S    
C18   C27   A    
O6    P7    D    
C4    C16   S    
Ba2   O19   S    
O9    P8    S    
O23   P7    S    
O24   P5    S    
O4    P1    S    
C31   O13   S    
C23   H10   S    
C34   H13   S    
Ba1   O5    S    
O20   P4    S    
Ba2   P4    S    
C6    C7    A    
Ba1   P1    S    
C18   C26   A    
O19   P4    D    
C28   H41   S    
C10   C15   A    
C31   H42   S    
C33   H46   S    
C35   H5    S    
Ba2   O23   S    
C4    H36   S    
C12   H7    S    
C1    H8    S    
C9    C17   A    
O14   P6    S    
C31   C32   S    
C40   H31   S    
C32   H44   S    
C35   H4    S    
C1    C12   S    
Ba1   O15   S    
C30   H23   S    
C16   H16   S    
C38   C39   S    
C19   H37   S    
C33   O12   S    
C20   C25   A    
C19   C21   A    
C2    P1    S    
C5    P6    S    
C2    C8    A    
C11   P4    S    
O17   P3    D    
O7    P7    S    
C28   O22   S    
C20   H33   S    
C22   C24   A    
C2    C3    A    
C33   H2    S    
O18   P3    S    
C9    C10   A    
C29   H35   S    
C37   H19   S    
C37   H21   S    
C22   P2    S    
C11   C13   A    
C14   P8    S    
C32   H45   S    
C27   C29   A    
C34   H11   S    
C28   C30   S    
C35   H6    S    
C9    C11   A    
O21   P8    S    
Ba1   O4    S    
Ba2   O4    S    
C16   H38   S    
C32   H43   S    
C28   H40   S    
C23   C34   S    
O2    P5    D    
C12   O14   S    
C13   H30   S    
Ba2   O6    S    
Ba1   O1    S    
C38   H24   S    
C19   C22   A    
C25   C26   A    
C20   C21   A    
Ba1   O23   S    
O8    P8    D    
O10   P6    S    
O11   P6    D    
Ba1   O10   S    
C30   H12   S    
O22   P4    S    
C39   H26   S    
C36   H18   S    
C1    H15   S    
