data_mof_unit_12722.cif
_audit_creation_date              2012-12-10T18:35:11-0500
_audit_creation_method            fapswitch 2.2
_symmetry_space_group_name_H-M    P1
_symmetry_Int_Tables_number       1
_space_group_crystal_system       triclinic
_cell_length_a                    18.720979
_cell_length_b                    18.762133
_cell_length_c                    18.832781
_cell_angle_alpha                 109.461508
_cell_angle_beta                  109.350744
_cell_angle_gamma                 109.228016
_cell_volume                      5115.49027186

loop_
_atom_site_label
_atom_site_type_symbol
_atom_type_description
_atom_site_fract_x
_atom_site_fract_y
_atom_site_fract_z
_atom_type_partial_charge
C1    C     C_R   0.382596 0.501766 0.381476 0.784109
C2    C     C_R   0.790154 0.805583 0.829823 -0.114594
C3    C     C_R   0.938000 0.725397 0.951288 -0.120887
C4    C     C_R   0.934074 0.710723 0.018311 -0.114939
C5    C     C_R   0.997297 0.773365 0.104964 0.120205
C6    C     C_R   0.280836 0.546127 0.950436 -0.150484
C7    C     C_R   0.197636 0.476137 0.886668 -0.087919
C8    C     C_R   0.168603 0.396968 0.886789 0.104356
C9    C     C_R   0.225805 0.387327 0.948486 -0.188075
C10   C     C_R   0.308829 0.457528 0.012383 -0.119018
C11   C     C_R   0.336154 0.537014 0.013626 -0.106726
C12   C     C_R   0.077309 0.254470 0.753813 -0.240830
C13   C     C_R   0.824990 0.818141 0.575946 -0.249490
C14   C     C_R   0.997112 0.183345 0.685081 -0.073034
C15   C     C_R   0.918579 0.178183 0.680456 -0.001732
C16   C     C_R   0.922715 0.243850 0.747080 -0.266538
C17   C     C_R   0.002908 0.315411 0.815590 -0.087741
C18   C     C_R   0.081366 0.322040 0.818166 -0.012856
C19   C     C_R   0.770920 0.122838 0.559916 -0.146518
C20   C     C_R   0.688556 0.054694 0.491834 -0.138113
C21   C     C_R   0.666129 0.968886 0.471410 -0.111625
C22   C     C_R   0.725865 0.951250 0.519367 -0.122491
C23   C     C_R   0.808076 0.019141 0.587929 -0.120118
C24   C     C_R   0.814229 0.810419 0.496138 -0.074794
C25   C     C_R   0.831614 0.105484 0.608068 0.122023
C26   C     C_R   0.738120 0.740907 0.418073 -0.004210
C27   C     C_R   0.677294 0.677661 0.422294 -0.252387
C28   C     C_R   0.688231 0.685459 0.502126 -0.077087
C29   C     C_R   0.761430 0.757918 0.580213 -0.007714
C30   C     C_R   0.639451 0.723495 0.278057 -0.152102
C31   C     C_R   0.619853 0.713740 0.195845 -0.139024
C32   C     C_R   0.678770 0.712168 0.166068 -0.121815
C33   C     C_R   0.620133 0.618801 0.501268 0.777865
C34   C     C_R   0.757574 0.720808 0.218664 -0.114378
C35   C     C_R   0.777560 0.731089 0.301094 -0.096755
C36   C     C_R   0.718746 0.732471 0.331588 0.121731
C37   C     C_R   0.425100 0.800936 0.521063 -0.141928
C38   C     C_R   0.361917 0.720534 0.446728 -0.146377
C39   C     C_R   0.386731 0.667922 0.399252 0.121111
C40   C     C_R   0.475568 0.697737 0.426474 -0.111132
C41   C     C_R   0.538514 0.777530 0.501658 -0.111542
C42   C     C_R   0.513394 0.829235 0.548739 -0.116938
C43   C     C_R   0.254385 0.577501 0.254787 -0.243020
C44   C     C_R   0.617146 0.498091 0.618586 0.782916
C45   C     C_R   0.185293 0.497372 0.183629 -0.063410
C46   C     C_R   0.179633 0.418820 0.179316 0.001222
C47   C     C_R   0.247333 0.423191 0.244081 -0.252974
C48   C     C_R   0.316646 0.503227 0.314934 -0.075680
C49   C     C_R   0.319215 0.581552 0.322121 -0.005062
C50   C     C_R   0.061446 0.272033 0.130564 -0.149425
C51   C     C_R   0.993363 0.188431 0.065304 -0.136683
C52   C     C_R   0.968557 0.163092 0.978421 -0.120441
C53   C     C_R   0.011609 0.221424 0.956707 -0.119409
C54   C     C_R   0.079343 0.305252 0.021817 -0.107034
C55   C     C_R   0.379732 0.381290 0.498677 0.789399
C56   C     C_R   0.105009 0.331379 0.109323 0.118551
C57   C     C_R   0.212295 0.520165 0.570755 -0.144666
C58   C     C_R   0.225181 0.450828 0.570688 -0.139900
C59   C     C_R   0.226556 0.395225 0.500082 0.127809
C60   C     C_R   0.213685 0.409198 0.429126 -0.128875
C61   C     C_R   0.200183 0.478250 0.429209 -0.117766
C62   C     C_R   0.199899 0.533913 0.500095 -0.102311
C63   C     C_R   0.177056 0.255557 0.499764 -0.243987
C64   C     C_R   0.185648 0.183681 0.497780 -0.071965
C65   C     C_R   0.257911 0.176874 0.495883 -0.003540
C66   C     C_R   0.791292 0.868026 0.804862 -0.140942
C67   C     C_R   0.319902 0.242327 0.495124 -0.251675
C68   C     C_R   0.311478 0.314273 0.497302 -0.077262
C69   C     C_R   0.239581 0.321480 0.499877 -0.003527
C70   C     C_R   0.342418 0.113832 0.559160 -0.139139
C71   C     C_R   0.355897 0.043639 0.553809 -0.143786
C72   C     C_R   0.297438 0.961118 0.480875 -0.135195
C73   C     C_R   0.225095 0.948529 0.413428 -0.133315
C74   C     C_R   0.210797 0.018352 0.418892 -0.124112
C75   C     C_R   0.269539 0.101558 0.491857 0.126329
C76   C     C_R   0.547470 0.564451 0.855418 -0.137493
C77   C     C_R   0.782342 0.852498 0.723625 -0.154918
C78   C     C_R   0.616987 0.565257 0.842373 -0.144974
C79   C     C_R   0.602510 0.495465 0.770158 0.127558
C80   C     C_R   0.517857 0.424487 0.711818 -0.125758
C81   C     C_R   0.448620 0.423698 0.725486 -0.122550
C82   C     C_R   0.463339 0.493754 0.796978 -0.108769
C83   C     C_R   0.742161 0.495315 0.819505 -0.250753
C84   C     C_R   0.813771 0.496108 0.810820 -0.082064
C85   C     C_R   0.820386 0.497213 0.738659 -0.006101
C86   C     C_R   0.753958 0.496218 0.675830 -0.250271
C87   C     C_R   0.682566 0.495777 0.684733 -0.080919
C88   C     C_R   0.772579 0.774303 0.666828 0.121466
C89   C     C_R   0.676563 0.495946 0.757501 -0.005403
C90   C     C_R   0.948772 0.567924 0.723207 -0.141495
C91   C     C_R   0.016975 0.567282 0.708249 -0.135848
C92   C     C_R   0.030654 0.496165 0.694962 -0.129004
C93   C     C_R   0.976212 0.425632 0.696698 -0.132196
C94   C     C_R   0.908351 0.426302 0.712350 -0.119018
C95   C     C_R   0.894283 0.497577 0.725785 0.127163
C96   C     C_R   0.998910 0.879610 0.381504 0.788740
C97   C     C_R   0.881134 0.879090 0.497825 0.782296
C98   C     C_R   0.998301 0.117356 0.618490 0.787321
C99   C     C_R   0.773373 0.712712 0.693178 -0.107210
C100  C     C_R   0.118863 0.117695 0.498889 0.790060
C101  C     C_R   0.001845 0.381437 0.882555 0.788454
C102  C     C_R   0.118691 0.498607 0.117607 0.785185
C103  C     C_R   0.998399 0.618760 0.117212 0.786075
C104  C     C_R   0.881185 0.498103 0.879298 0.785122
C105  C     C_R   0.121416 0.765158 0.542654 0.054917
C106  C     C_R   0.104271 0.775811 0.469444 -0.144720
C107  C     C_R   0.018851 0.733820 0.401116 0.104502
C108  C     C_R   0.950073 0.678653 0.404802 -0.174750
C109  C     C_R   0.966102 0.669389 0.478205 -0.136375
C110  C     C_R   0.780856 0.727973 0.773880 -0.118311
C111  C     C_R   0.051193 0.712350 0.546861 -0.152607
C112  C     C_R   0.999888 0.676999 0.254539 -0.238596
C113  C     C_R   0.996500 0.685260 0.182603 -0.072647
C114  C     C_R   0.995422 0.758136 0.176866 -0.002968
C115  C     C_R   0.993965 0.819387 0.242330 -0.269984
C116  C     C_R   0.998790 0.811939 0.315010 -0.084544
C117  C     C_R   0.003896 0.741022 0.322334 -0.005518
C118  C     C_R   0.062709 0.851865 0.123411 -0.148687
C119  C     C_R   0.065529 0.866664 0.056128 -0.139238
C120  C     C_R   0.003374 0.803268 0.970045 -0.116218
Cu1   Cu    Cu3+1 0.499980 0.561800 0.561790 0.989718
Cu2   Cu    Cu3+1 0.500020 0.438200 0.438210 0.938513
Cu3   Cu    Cu3+1 0.061810 0.999960 0.561770 0.954523
Cu4   Cu    Cu3+1 0.938190 0.999990 0.438190 0.963066
Cu5   Cu    Cu3+1 0.061800 0.561770 0.999960 0.966590
Cu6   Cu    Cu3+1 0.938200 0.438190 0.000000 0.950142
H1    H     H_    0.796218 0.817168 0.892357 0.125088
H2    H     H_    0.663415 0.704373 0.102324 0.117273
H3    H     H_    0.803220 0.719665 0.195604 0.139664
H4    H     H_    0.838986 0.738655 0.341408 0.093834
H5    H     H_    0.562357 0.891049 0.606804 0.125071
H6    H     H_    0.405604 0.840907 0.557604 0.137565
H7    H     H_    0.293740 0.698727 0.426855 0.119631
H8    H     H_    0.495956 0.658623 0.390285 0.091147
H9    H     H_    0.606784 0.798808 0.524015 0.126828
H10   H     H_    0.256574 0.637337 0.258911 0.147454
H11   H     H_    0.244856 0.363409 0.240450 0.150537
H12   H     H_    0.798378 0.928139 0.848145 0.118998
H13   H     H_    0.080124 0.290597 0.197655 0.121461
H14   H     H_    0.960068 0.143179 0.082133 0.127207
H15   H     H_    0.916106 0.098263 0.927957 0.117494
H16   H     H_    0.992583 0.201522 0.889421 0.141628
H17   H     H_    0.111837 0.349871 0.004305 0.104040
H18   H     H_    0.189678 0.587401 0.499994 0.125809
H19   H     H_    0.211736 0.563074 0.625518 0.112473
H20   H     H_    0.234701 0.440797 0.625789 0.114659
H21   H     H_    0.213560 0.366353 0.373730 0.098074
H22   H     H_    0.189646 0.488543 0.374254 0.137541
H23   H     H_    0.782013 0.900919 0.704546 0.116558
H24   H     H_    0.121382 0.260360 0.501438 0.149748
H25   H     H_    0.375563 0.237475 0.493462 0.151776
H26   H     H_    0.388706 0.177726 0.615575 0.120618
H27   H     H_    0.411955 0.053306 0.605945 0.122927
H28   H     H_    0.308268 0.906959 0.476586 0.121753
H29   H     H_    0.180504 0.884718 0.356710 0.141377
H30   H     H_    0.154972 0.007993 0.365849 0.100080
H31   H     H_    0.409623 0.493065 0.807299 0.121775
H32   H     H_    0.558870 0.618509 0.910986 0.117980
H33   H     H_    0.681957 0.620316 0.888183 0.114841
H34   H     H_    0.767170 0.652669 0.650866 0.092833
H35   H     H_    0.505765 0.369664 0.656419 0.100505
H36   H     H_    0.383580 0.368673 0.680953 0.138371
H37   H     H_    0.737894 0.495262 0.875555 0.150598
H38   H     H_    0.758429 0.496846 0.620035 0.149785
H39   H     H_    0.938436 0.623157 0.732919 0.116190
H40   H     H_    0.058950 0.621711 0.706522 0.117532
H41   H     H_    0.986440 0.370308 0.685484 0.140742
H42   H     H_    0.866163 0.371027 0.712908 0.100043
H43   H     H_    0.062123 0.703796 0.602891 0.118203
H44   H     H_    0.778502 0.679267 0.792726 0.128081
H45   H     H_    0.157469 0.814350 0.463867 0.120827
H46   H     H_    0.884429 0.641765 0.350510 0.127569
H47   H     H_    0.912621 0.627655 0.481302 0.140028
H48   H     H_    0.991472 0.874736 0.237740 0.153200
H49   H     H_    0.111961 0.901200 0.189841 0.122286
H50   H     H_    0.116218 0.927063 0.070731 0.130429
H51   H     H_    0.005879 0.814370 0.917866 0.128930
H52   H     H_    0.890806 0.676164 0.884735 0.129495
H53   H     H_    0.882073 0.873320 0.635652 0.150766
H54   H     H_    0.882309 0.650493 0.002763 0.092760
H55   H     H_    0.400439 0.591253 0.063043 0.114333
H56   H     H_    0.302510 0.607335 0.950704 0.116976
H57   H     H_    0.155761 0.483674 0.837472 0.129758
H58   H     H_    0.205858 0.325646 0.947374 0.132841
H59   H     H_    0.352125 0.450185 0.060669 0.133361
H60   H     H_    0.862791 0.239697 0.744981 0.152766
H61   H     H_    0.787658 0.189051 0.574753 0.122950
H62   H     H_    0.642217 0.068414 0.454783 0.130018
H63   H     H_    0.619510 0.622979 0.362835 0.147686
H64   H     H_    0.602493 0.916063 0.418519 0.127472
H65   H     H_    0.708472 0.884894 0.503142 0.130055
H66   H     H_    0.853302 0.004512 0.625200 0.092769
H67   H     H_    0.593118 0.724639 0.300249 0.116975
H68   H     H_    0.558995 0.707429 0.155225 0.117204
O1    O     O_R   0.409800 0.552190 0.462000 -0.565585
O2    O     O_R   0.947810 0.909820 0.357620 -0.588514
O3    O     O_R   0.962020 0.909790 0.552160 -0.583267
O4    O     O_R   0.857630 0.909810 0.447800 -0.570514
O5    O     O_R   0.052190 0.090130 0.642340 -0.591206
O6    O     O_R   0.947800 0.090160 0.537980 -0.573619
O7    O     O_R   0.142370 0.090140 0.552150 -0.578788
O8    O     O_R   0.037980 0.090170 0.447800 -0.589148
O9    O     O_R   0.052200 0.461970 0.909800 -0.579674
O10   O     O_R   0.947810 0.357610 0.909840 -0.584866
O11   O     O_R   0.142370 0.552160 0.090140 -0.581241
O12   O     O_R   0.409840 0.447810 0.357640 -0.591339
O13   O     O_R   0.037990 0.447800 0.090170 -0.578369
O14   O     O_R   0.052190 0.642350 0.090120 -0.575107
O15   O     O_R   0.947800 0.537990 0.090150 -0.589176
O16   O     O_R   0.962010 0.552150 0.909780 -0.570589
O17   O     O_R   0.857630 0.447800 0.909820 -0.590056
O18   O     O_R   0.590160 0.642370 0.552180 -0.571256
O19   O     O_R   0.590190 0.537990 0.447820 -0.588660
O20   O     O_R   0.590160 0.552190 0.642360 -0.571042
O21   O     O_R   0.590200 0.447810 0.538000 -0.589237
O22   O     O_R   0.409810 0.462010 0.552180 -0.567254
O23   O     O_R   0.409840 0.357630 0.447820 -0.591396
O24   O     O_R   0.052200 0.909800 0.461980 -0.574949
H69   H     H_    0.083218 0.495553 0.682992 0.115337
C121  C     C_R   0.212613 0.806232 0.612336 0.094502
C122  C     C_R   0.239252 0.760205 0.650842 -0.164919
C123  C     C_R   0.326079 0.797348 0.713446 -0.123423
C124  C     C_R   0.387088 0.880854 0.738656 -0.108040
C125  C     C_R   0.361300 0.927551 0.701589 -0.153382
C126  C     C_R   0.274583 0.890649 0.638862 -0.163953
H70   H     H_    0.193383 0.694915 0.631339 0.107403
H71   H     H_    0.346133 0.761129 0.742085 0.121796
H72   H     H_    0.454322 0.909415 0.786983 0.119906
H73   H     H_    0.408547 0.992381 0.721388 0.124443
H74   H     H_    0.255836 0.928274 0.611537 0.141457
H75   H     H_    0.003672 0.622318 0.259782 0.151597
H76   H     H_    0.137243 0.258643 0.755858 0.152761

loop_
_geom_bond_atom_site_label_1
_geom_bond_atom_site_label_2
_ccdc_geom_bond_type
C8    C9    A    
C78   C79   A    
C93   C94   A    
Cu2   O23   S    
C57   H19   S    
C5    C114  S    
C44   O21   A    
C41   C42   A    
Cu2   O12   S    
C91   H40   S    
C35   C36   A    
C11   H55   S    
C104  O16   A    
C125  C126  A    
C103  O15   A    
C114  C115  A    
C21   H64   S    
Cu3   Cu4   S    
C55   O23   A    
C45   C46   A    
C116  C117  A    
C76   H32   S    
C26   C27   A    
C122  C123  A    
C112  H75   S    
C98   O5    A    
C6    H56   S    
C44   O20   A    
C13   C29   A    
C28   C29   A    
C1    O1    A    
C3    H52   S    
C76   C78   A    
C53   H16   S    
C115  H48   S    
Cu6   O17   S    
C109  C111  A    
C63   C69   A    
C112  C117  A    
C33   O18   A    
C109  H47   S    
C15   C25   S    
C30   H67   S    
C106  C107  A    
C15   C16   A    
C71   H27   S    
Cu4   O4    S    
C10   H59   S    
C108  C109  A    
C34   C35   A    
C81   H36   S    
Cu1   O18   S    
C37   C42   A    
C17   C101  S    
C118  C119  A    
C112  C113  A    
C29   C88   S    
C19   H61   S    
C100  O8    A    
Cu5   O9    S    
C83   C84   A    
C34   H3    S    
C16   C17   A    
C65   C67   A    
C47   C48   A    
C107  C108  A    
C14   C98   S    
C70   C71   A    
C60   H21   S    
C44   C87   S    
C50   C56   A    
C9    C10   A    
C96   O24   A    
C72   C73   A    
C55   O22   A    
C2    H1    S    
C54   H17   S    
C105  C111  A    
C59   C60   A    
C21   C22   A    
C107  C117  S    
C73   H29   S    
C43   H10   S    
C4    H54   S    
C52   H15   S    
C46   C56   S    
C121  C122  A    
C102  O11   A    
Cu3   O3    S    
C12   H76   S    
C57   C58   A    
C22   C23   A    
C73   C74   A    
C38   C39   A    
C83   C89   A    
C54   C56   A    
C72   H28   S    
C74   C75   A    
Cu3   O7    S    
C63   C64   A    
C67   H25   S    
C51   C52   A    
C124  H72   S    
Cu1   O22   S    
C97   O3    A    
C7    C8    A    
C70   H26   S    
C103  O14   A    
C77   C88   A    
C124  C125  A    
C101  O9    A    
C94   H42   S    
C91   C92   A    
C7    H57   S    
C82   H31   S    
C55   C68   S    
C50   H13   S    
C68   C69   A    
C37   H6    S    
C57   C62   A    
C58   C59   A    
C85   C86   A    
C99   C110  A    
C40   H8    S    
C122  H70   S    
Cu6   O15   S    
C81   C82   A    
C67   C68   A    
C13   C24   A    
Cu4   O8    S    
C60   C61   A    
C111  H43   S    
C32   C34   A    
C92   H69   S    
C120  H51   S    
C63   H24   S    
C37   C38   A    
Cu2   O21   S    
C119  H50   S    
C20   H62   S    
C100  O7    A    
C31   C32   A    
C66   H12   S    
C96   O2    A    
Cu6   O13   S    
C48   C49   A    
C105  C121  S    
Cu4   O2    S    
C17   C18   A    
C74   H30   S    
C94   C95   A    
C50   C51   A    
C84   C85   A    
C1    O12   A    
C43   C45   A    
C35   H4    S    
Cu1   Cu2   S    
C42   H5    S    
C59   C69   S    
C110  H44   S    
Cu5   O16   S    
C26   C36   S    
C40   C41   A    
C39   C49   S    
Cu3   O24   S    
C12   C14   A    
C118  H49   S    
C10   C11   A    
C6    C11   A    
C90   H39   S    
Cu5   Cu6   S    
C84   C104  S    
C86   H38   S    
C77   H23   S    
C3    C4    A    
C106  H45   S    
C41   H9    S    
C52   C53   A    
C113  C114  A    
C102  O13   A    
Cu3   O5    S    
C3    C120  A    
C66   C77   A    
C83   H37   S    
C46   C47   A    
C2    C110  A    
C33   O19   A    
C103  C113  S    
C86   C87   A    
C97   O4    A    
C61   H22   S    
C43   C49   A    
C24   C26   A    
C62   H18   S    
C80   C81   A    
C2    C66   A    
C101  O10   A    
C90   C95   A    
C28   C33   S    
C31   H68   S    
C119  C120  A    
C58   H20   S    
C1    C48   S    
C53   C54   A    
C6    C7    A    
C98   O6    A    
C105  C106  A    
Cu4   O6    S    
Cu5   O14   S    
C126  H74   S    
C65   C75   S    
Cu2   O19   S    
C30   C36   A    
C5    C118  A    
Cu6   O10   S    
Cu1   O20   S    
C32   H2    S    
C19   C20   A    
C108  H46   S    
C71   C72   A    
C9    H58   S    
C13   H53   S    
C125  H73   S    
C51   H14   S    
C85   C95   S    
C90   C91   A    
C30   C31   A    
C123  H71   S    
C76   C82   A    
C4    C5    A    
C64   C65   A    
Cu5   O11   S    
C92   C93   A    
Cu1   O1    S    
C121  C126  A    
C24   C97   S    
C23   C25   A    
C47   H11   S    
C61   C62   A    
C19   C25   A    
C23   H66   S    
C8    C18   S    
C80   H35   S    
C79   C89   S    
C88   C99   A    
C45   C102  S    
C79   C80   A    
C39   C40   A    
C78   H33   S    
C64   C100  S    
C20   C21   A    
C93   H41   S    
C12   C18   A    
C27   C28   A    
C87   C89   A    
C14   C15   A    
C96   C116  S    
C70   C75   A    
C16   H60   S    
C27   H63   S    
C104  O17   A    
C22   H65   S    
C99   H34   S    
C123  C124  A    
C38   H7    S    
C115  C116  A    
