data_mof_unit_56739.cif
_audit_creation_date              2012-12-10T17:27:52-0500
_audit_creation_method            fapswitch 2.2
_symmetry_space_group_name_H-M    P1
_symmetry_Int_Tables_number       1
_space_group_crystal_system       triclinic
_cell_length_a                    18.3034
_cell_length_b                    18.337011
_cell_length_c                    42.952623
_cell_angle_alpha                 90.176473
_cell_angle_beta                  90.038824
_cell_angle_gamma                 90.11515
_cell_volume                      14416.0728366

loop_
_atom_site_label
_atom_site_type_symbol
_atom_type_description
_atom_site_fract_x
_atom_site_fract_y
_atom_site_fract_z
_atom_type_partial_charge
C1    C     C_R   0.988121 0.564843 0.884986 -0.324419
C2    C     C_R   0.507758 0.934402 0.614958 -0.306415
C3    C     C_R   0.643636 0.863124 0.748229 0.809063
C4    C     C_R   0.139969 0.639827 0.249994 0.789839
C5    C     C_R   0.860118 0.360114 0.749902 0.797191
C6    C     C_R   0.640186 0.860364 0.250155 0.795487
C7    C     C_R   0.356395 0.136834 0.748269 0.807705
C8    C     C_R   0.498271 0.999948 0.531624 0.387879
C9    C     C_R   0.497427 0.000267 0.468482 0.386314
C10   C     C_R   0.999123 0.497843 0.531513 0.378774
C11   C     C_R   0.999004 0.497216 0.468367 0.382896
C12   C     C_R   0.002630 0.499544 0.031448 0.374725
C13   C     C_R   0.933952 0.491632 0.384765 -0.329148
C14   C     C_R   0.001989 0.499847 0.968287 0.381948
C15   C     C_R   0.499466 0.995416 0.031609 0.384415
C16   C     C_R   0.499613 0.996470 0.968468 0.385983
C17   C     C_R   0.000508 0.500151 0.868436 -0.139191
C18   C     C_R   0.000850 0.499712 0.131508 -0.131996
C19   C     C_R   0.499974 0.999258 0.868504 -0.144142
C20   C     C_R   0.499882 0.998308 0.131508 -0.144670
C21   C     C_R   0.498749 0.000204 0.368484 -0.145449
C22   C     C_R   0.499613 0.999811 0.631509 -0.149476
C23   C     C_R   0.999804 0.499077 0.368481 -0.144073
C24   C     C_R   0.065643 0.502872 0.614989 -0.315569
C25   C     C_R   0.999795 0.499591 0.631489 -0.113673
C26   C     C_R   0.169112 0.723576 0.694852 -0.370795
C27   C     C_R   0.764021 0.333499 0.305403 -0.342608
C28   C     C_R   0.336504 0.239922 0.696057 -0.335460
C29   C     C_R   0.729438 0.835948 0.304301 -0.367462
C30   C     C_R   0.829889 0.276377 0.694689 -0.371087
C31   C     C_R   0.159847 0.733271 0.303086 -0.369377
C32   C     C_R   0.662806 0.758701 0.696182 -0.336651
C33   C     C_R   0.270628 0.164300 0.304125 -0.377639
C34   C     C_R   0.163234 0.271324 0.304002 -0.387917
C35   C     C_R   0.501849 0.934392 0.384873 -0.294907
C36   C     C_R   0.719389 0.624916 0.713508 -0.355621
C37   C     C_R   0.267536 0.840482 0.303162 -0.389308
C38   C     C_R   0.724282 0.167413 0.695161 -0.381016
C39   C     C_R   0.836603 0.728681 0.304100 -0.390871
C40   C     C_R   0.280159 0.374161 0.713204 -0.355366
C41   C     C_R   0.628838 0.277833 0.288600 -0.343486
C42   C     C_R   0.275205 0.832085 0.695215 -0.381951
C43   C     C_R   0.738841 0.164606 0.195709 -0.334356
C44   C     C_R   0.331469 0.775804 0.805256 -0.381061
C45   C     C_R   0.771184 0.664568 0.195675 -0.378205
C46   C     C_R   0.491034 0.065221 0.615164 -0.305759
C47   C     C_R   0.165984 0.263398 0.805165 -0.341049
C48   C     C_R   0.339616 0.767720 0.196656 -0.384114
C49   C     C_R   0.669370 0.224406 0.805378 -0.380902
C50   C     C_R   0.228322 0.334793 0.195692 -0.393906
C51   C     C_R   0.834825 0.738144 0.805019 -0.341311
C52   C     C_R   0.778806 0.872343 0.787871 -0.343252
C53   C     C_R   0.335979 0.228173 0.195906 -0.382360
C54   C     C_R   0.775607 0.332857 0.804967 -0.384331
C55   C     C_R   0.231948 0.660615 0.196451 -0.396415
C56   C     C_R   0.221706 0.128715 0.788215 -0.343649
C57   C     C_R   0.065400 0.505394 0.385057 -0.294140
C58   C     C_R   0.663277 0.770907 0.196095 -0.385233
C59   C     C_R   0.224897 0.667671 0.804928 -0.385181
C60   C     C_R   0.873761 0.220531 0.212690 -0.353949
C61   C     C_R   0.184148 0.761918 0.667439 0.507814
C62   C     C_R   0.704272 0.343814 0.325305 0.507423
C63   C     C_R   0.350469 0.300879 0.677389 0.498323
C64   C     C_R   0.772651 0.825411 0.330831 0.519470
C65   C     C_R   0.814523 0.237823 0.667257 0.507994
C66   C     C_R   0.168008 0.778863 0.329103 0.509348
C67   C     C_R   0.648626 0.697268 0.677647 0.498456
C68   C     C_R   0.933730 0.495746 0.615108 -0.313472
C69   C     C_R   0.226987 0.174462 0.330558 0.501739
C70   C     C_R   0.174981 0.230124 0.331164 0.508890
C71   C     C_R   0.677285 0.629727 0.686175 0.491560
C72   C     C_R   0.224115 0.830626 0.329862 0.505494
C73   C     C_R   0.761587 0.182864 0.667287 0.510532
C74   C     C_R   0.824560 0.769664 0.331388 0.497182
C75   C     C_R   0.321953 0.368651 0.685822 0.490461
C76   C     C_R   0.635493 0.318234 0.316361 0.490491
C77   C     C_R   0.237324 0.816650 0.667418 0.510987
C78   C     C_R   0.799538 0.151252 0.176700 0.499170
C79   C     C_R   0.263927 0.790393 0.722535 0.011786
C80   C     C_R   0.318910 0.734837 0.832233 0.512998
C81   C     C_R   0.730206 0.677164 0.168474 0.512700
C82   C     C_R   0.155502 0.203605 0.824885 0.507815
C83   C     C_R   0.329028 0.725037 0.169730 0.524430
C84   C     C_R   0.682202 0.265615 0.832374 0.512556
C85   C     C_R   0.268707 0.321531 0.168417 0.513902
C86   C     C_R   0.845534 0.798465 0.824582 0.507711
C87   C     C_R   0.819758 0.866738 0.815483 0.489902
C88   C     C_R   0.323002 0.268048 0.168515 0.522432
C89   C     C_R   0.737536 0.318168 0.832723 0.505414
C90   C     C_R   0.690799 0.258632 0.270640 0.015256
C91   C     C_R   0.276867 0.669178 0.170004 0.516381
C92   C     C_R   0.181090 0.135070 0.815881 0.490388
C93   C     C_R   0.675670 0.730460 0.168675 0.523843
C94   C     C_R   0.263435 0.682436 0.832623 0.506239
C95   C     C_R   0.867684 0.179483 0.185071 0.487539
C96   C     C_R   0.001553 0.500006 0.933949 -0.135425
C97   C     C_R   0.002463 0.499605 0.065887 -0.135452
C98   C     C_R   0.499772 0.997297 0.934083 -0.154140
C99   C     C_R   0.499672 0.995508 0.065964 -0.145840
C100  C     C_R   0.497376 0.000249 0.434078 -0.152113
C101  C     C_R   0.260760 0.311720 0.730715 0.020230
C102  C     C_R   0.498719 0.999851 0.565960 -0.151597
C103  C     C_R   0.999269 0.497399 0.434015 -0.141054
C104  C     C_R   0.999355 0.498419 0.565907 -0.131080
C105  C     C_3   0.029108 0.681381 0.928870 -0.269632
C106  C     C_3   0.955448 0.322449 0.070918 -0.237542
C107  C     C_3   0.325828 0.053908 0.929177 -0.255700
C108  C     C_3   0.674764 0.944587 0.070627 -0.250580
C109  C     C_3   0.973748 0.318651 0.928332 -0.270139
C110  C     C_3   0.050440 0.676225 0.071679 -0.236575
C111  C     C_3   0.673906 0.941149 0.928622 -0.255574
C112  C     C_R   0.007180 0.434043 0.115033 -0.325343
C113  C     C_R   0.793077 0.738452 0.277133 0.019479
C114  C     C_3   0.322979 0.044354 0.070848 -0.260850
C115  C     C_3   0.552227 0.174587 0.429395 -0.255554
C116  C     C_3   0.458017 0.822107 0.570039 -0.244672
C117  C     C_3   0.820359 0.540462 0.428176 -0.260196
C118  C     C_3   0.175763 0.446653 0.571553 -0.238020
C119  C     C_3   0.442997 0.825704 0.428676 -0.247121
C120  C     C_3   0.540009 0.177305 0.570273 -0.246360
C121  C     C_3   0.176313 0.451893 0.429277 -0.249759
C122  C     C_3   0.822800 0.550143 0.571771 -0.239885
C123  C     C_3   0.178821 0.631691 0.866474 -0.260373
C124  C     C_R   0.735815 0.209352 0.722511 0.012027
C125  C     C_3   0.971188 0.223921 0.160759 -0.263703
C126  C     C_3   0.224469 0.032360 0.840588 -0.246935
C127  C     C_3   0.617314 0.810747 0.135137 -0.268237
C128  C     C_3   0.822559 0.369091 0.866504 -0.259664
C129  C     C_3   0.250788 0.554744 0.148785 -0.222745
C130  C     C_3   0.776384 0.969856 0.840113 -0.245352
C131  C     C_3   0.374395 0.186296 0.133756 -0.270140
C132  C     C_3   0.186452 0.365955 0.132532 -0.298703
C133  C     C_3   0.847667 0.754967 0.874088 -0.283629
C134  C     C_3   0.381880 0.805345 0.134723 -0.219560
C135  C     C_R   0.259587 0.795087 0.276614 0.015203
C136  C     C_3   0.571727 0.275106 0.856306 -0.260126
C137  C     C_3   0.811938 0.628562 0.133059 -0.245168
C138  C     C_3   0.153763 0.248883 0.874232 -0.283529
C139  C     C_3   0.778155 0.039538 0.155325 -0.248995
C140  C     C_3   0.429935 0.726294 0.855876 -0.260244
C141  C     C_3   0.532419 0.274815 0.341082 -0.260144
C142  C     C_3   0.320789 0.869655 0.633761 -0.285599
C143  C     C_3   0.877882 0.687734 0.365638 -0.287319
C144  C     C_3   0.277974 0.472059 0.661571 -0.265887
C145  C     C_3   0.303773 0.882598 0.365501 -0.305889
C146  C     C_R   0.738975 0.687803 0.730864 0.020452
C147  C     C_3   0.677709 0.129356 0.633776 -0.286579
C148  C     C_3   0.121031 0.311621 0.365586 -0.273243
C149  C     C_3   0.721153 0.525822 0.662028 -0.266554
C150  C     C_3   0.536165 0.719130 0.656997 -0.246030
C151  C     C_3   0.210804 0.062433 0.351949 -0.206123
C152  C     C_3   0.832842 0.317035 0.627478 -0.250369
C153  C     C_3   0.053835 0.795578 0.348624 -0.221336
C154  C     C_3   0.463121 0.280020 0.656868 -0.246448
C155  C     C_3   0.791125 0.936397 0.353020 -0.266060
C156  C     C_3   0.164273 0.682376 0.627679 -0.248463
C157  C     C_R   0.206888 0.261607 0.277079 0.015080
C158  C     C_3   0.752833 0.347731 0.374149 -0.281038
C159  C     C_R   0.261369 0.207461 0.277154 0.006930
C160  C     C_R   0.701987 0.753104 0.724472 0.011312
C161  C     C_R   0.205296 0.740596 0.276625 0.005561
C162  C     C_R   0.789603 0.264292 0.722325 0.003903
C163  C     C_R   0.738735 0.792758 0.277235 0.003764
C164  C     C_R   0.433937 0.995665 0.884877 -0.287324
C165  C     C_R   0.297669 0.246241 0.724400 0.011110
C166  C     C_R   0.756588 0.295426 0.276853 0.008023
C167  C     C_R   0.209916 0.735677 0.722404 0.004263
C168  C     C_R   0.811498 0.239589 0.230496 0.020178
C169  C     C_R   0.236503 0.709132 0.777570 0.017370
C170  C     C_R   0.707302 0.761779 0.222909 0.012564
C171  C     C_R   0.241130 0.190740 0.770447 0.014456
C172  C     C_R   0.240236 0.705391 0.223153 0.019568
C173  C     C_R   0.763752 0.291136 0.777582 0.017599
C174  C     C_R   0.292478 0.237889 0.222838 0.012261
C175  C     C_R   0.565724 0.002378 0.115019 -0.300230
C176  C     C_R   0.759186 0.809832 0.770278 0.014693
C177  C     C_R   0.796160 0.744441 0.776602 0.008460
C178  C     C_R   0.238030 0.292012 0.222756 0.013364
C179  C     C_R   0.709883 0.236247 0.777768 0.006714
C180  C     C_R   0.294652 0.759667 0.223211 0.012793
C181  C     C_R   0.204241 0.256309 0.776687 0.008822
C182  C     C_R   0.761728 0.707652 0.222766 0.011374
C183  C     C_R   0.290555 0.763833 0.777709 0.007057
C184  C     C_R   0.745759 0.202859 0.224208 0.009332
C185  C     C_R   0.303920 0.804019 0.750170 -0.052910
C186  C     C_R   0.013443 0.435412 0.884720 -0.325111
C187  C     C_R   0.688604 0.205618 0.246325 -0.100921
C188  C     C_R   0.206622 0.313021 0.754472 -0.105693
C189  C     C_R   0.803986 0.696049 0.249946 -0.047083
C190  C     C_R   0.696267 0.195784 0.750215 -0.052643
C191  C     C_R   0.303926 0.804103 0.249927 -0.044481
C192  C     C_R   0.793435 0.687130 0.754526 -0.106343
C193  C     C_R   0.195903 0.303818 0.249941 -0.048880
C194  C     C_R   0.303966 0.196115 0.250068 -0.051199
C195  C     C_R   0.705457 0.811097 0.746263 -0.101340
C196  C     C_R   0.196164 0.695960 0.249955 -0.045649
C197  C     C_R   0.995487 0.565311 0.115100 -0.317265
C198  C     C_R   0.803542 0.304430 0.749915 -0.050179
C199  C     C_R   0.696185 0.804058 0.250123 -0.049386
C200  C     C_R   0.294517 0.188813 0.746328 -0.100681
C201  C     C_R   0.813134 0.293309 0.254479 -0.105869
C202  C     C_R   0.196274 0.695771 0.749970 -0.050179
C203  C     C_R   0.990382 0.565805 0.917627 0.480423
C204  C     C_R   0.006268 0.433117 0.082383 0.480161
C205  C     C_R   0.433067 0.996848 0.917508 0.491727
C206  C     C_R   0.566420 0.999112 0.082416 0.488123
C207  C     C_R   0.012202 0.434296 0.917349 0.479969
C208  C     C_R   0.565921 0.001882 0.885018 -0.288371
C209  C     C_R   0.998096 0.566140 0.082484 0.478768
C210  C     C_R   0.566590 0.998745 0.917634 0.491565
C211  C     C_R   0.433041 0.992778 0.082482 0.483470
C212  C     C_R   0.495946 0.066855 0.417618 0.492048
C213  C     C_R   0.505592 0.933544 0.582325 0.489733
C214  C     C_R   0.932797 0.492690 0.417412 0.479872
C215  C     C_R   0.066229 0.500650 0.582350 0.478365
C216  C     C_R   0.499203 0.933617 0.417485 0.486380
C217  C     C_R   0.492332 0.066123 0.582545 0.489868
C218  C     C_R   0.065993 0.502665 0.417669 0.484316
C219  C     C_R   0.433960 0.992361 0.115121 -0.346339
C220  C     C_R   0.932704 0.496804 0.582467 0.476976
C221  C     C_R   0.999962 0.499966 0.665767 0.859608
C222  C     C_R   0.999988 0.499867 0.334223 0.822338
C223  C     C_R   0.499957 0.999911 0.665786 0.833550
C224  C     C_R   0.499720 0.000089 0.334212 0.840182
C225  C     C_R   0.499974 0.999704 0.165773 0.823448
C226  C     C_R   0.500013 0.999920 0.834230 0.850238
C227  C     C_R   0.000159 0.499896 0.165786 0.827030
C228  C     C_R   0.000061 0.500085 0.834195 0.814279
C229  C     C_R   0.856129 0.636378 0.751988 0.815937
C230  C     C_R   0.494560 0.066033 0.384979 -0.285697
C231  C     C_R   0.139987 0.360123 0.249942 0.794144
C232  C     C_R   0.360287 0.859899 0.750153 0.798915
C233  C     C_R   0.636786 0.143623 0.248248 0.808997
C234  C     C_R   0.143842 0.363675 0.751950 0.814419
C235  C     C_R   0.859935 0.639735 0.249911 0.795053
C236  C     C_R   0.639764 0.140013 0.750177 0.797705
C237  C     C_R   0.360101 0.860166 0.249968 0.793198
C238  C     C_R   0.863708 0.356146 0.251975 0.815405
C239  C     C_R   0.139841 0.639967 0.749933 0.798233
C240  C     C_R   0.359961 0.139851 0.250076 0.796026
H1    H     H_    0.124544 0.684853 0.694127 0.181936
H2    H     H_    0.733243 0.571238 0.721796 0.198716
H3    H     H_    0.008995 0.235000 0.180456 0.173646
H4    H     H_    0.937711 0.273073 0.155462 0.155215
H5    H     H_    0.005374 0.212657 0.139985 0.182544
H6    H     H_    0.273184 0.066295 0.846487 0.127285
H7    H     H_    0.236974 0.994794 0.820979 0.182957
H8    H     H_    0.212235 0.998150 0.861198 0.199667
H9    H     H_    0.665974 0.846551 0.138495 0.129061
H10   H     H_    0.570177 0.831077 0.148891 0.155953
H11   H     H_    0.601553 0.814121 0.110250 0.191830
H12   H     H_    0.844601 0.416295 0.853348 0.156457
H13   H     H_    0.306516 0.884740 0.303198 0.161891
H14   H     H_    0.855632 0.319187 0.862018 0.161395
H15   H     H_    0.828193 0.382409 0.891593 0.189349
H16   H     H_    0.191117 0.548143 0.152609 0.135529
H17   H     H_    0.282602 0.532101 0.168647 0.164147
H18   H     H_    0.265001 0.522099 0.127876 0.231224
H19   H     H_    0.727824 0.935894 0.846097 0.126780
H20   H     H_    0.763563 0.007015 0.820491 0.182893
H21   H     H_    0.788723 0.004467 0.860688 0.200192
H22   H     H_    0.322610 0.154769 0.136240 0.139116
H23   H     H_    0.419018 0.160668 0.147385 0.164345
H24   H     H_    0.687528 0.121349 0.695375 0.170394
H25   H     H_    0.390553 0.183470 0.108905 0.194405
H26   H     H_    0.155737 0.407137 0.146243 0.147198
H27   H     H_    0.159432 0.311540 0.134031 0.158007
H28   H     H_    0.184169 0.383204 0.107820 0.218716
H29   H     H_    0.839592 0.696778 0.867564 0.150722
H30   H     H_    0.794109 0.781646 0.878725 0.146366
H31   H     H_    0.879316 0.756009 0.896123 0.218079
H32   H     H_    0.426301 0.831710 0.148343 0.139930
H33   H     H_    0.330152 0.836955 0.136801 0.148728
H34   H     H_    0.398509 0.806949 0.109903 0.209117
H35   H     H_    0.881136 0.690221 0.304017 0.163243
H36   H     H_    0.540932 0.240704 0.839435 0.133723
H37   H     H_    0.569288 0.333563 0.849388 0.160394
H38   H     H_    0.544075 0.270083 0.879174 0.199511
H39   H     H_    0.839575 0.584700 0.146361 0.155653
H40   H     H_    0.842049 0.681161 0.135555 0.146233
H41   H     H_    0.814213 0.612912 0.108111 0.212779
H42   H     H_    0.160968 0.306984 0.867552 0.151253
H43   H     H_    0.207749 0.222994 0.878749 0.146514
H44   H     H_    0.122624 0.248040 0.896377 0.220020
H45   H     H_    0.723217 0.031850 0.165861 0.163486
H46   H     H_    0.266510 0.428058 0.721420 0.199197
H47   H     H_    0.821068 0.015818 0.170637 0.162585
H48   H     H_    0.778962 0.008721 0.133074 0.183608
H49   H     H_    0.460262 0.761588 0.839302 0.134015
H50   H     H_    0.432943 0.668108 0.848443 0.159286
H51   H     H_    0.457695 0.730822 0.878768 0.199515
H52   H     H_    0.566168 0.226083 0.346763 0.133424
H53   H     H_    0.494656 0.262578 0.321492 0.183001
H54   H     H_    0.498269 0.286880 0.361784 0.196768
H55   H     H_    0.354937 0.820398 0.637982 0.129648
H56   H     H_    0.341998 0.917159 0.647104 0.168526
H57   H     H_    0.574459 0.265498 0.280448 0.205028
H58   H     H_    0.325819 0.883399 0.608737 0.194427
H59   H     H_    0.924346 0.664886 0.352185 0.156826
H60   H     H_    0.827681 0.654135 0.362251 0.168652
H61   H     H_    0.892887 0.684272 0.390608 0.196007
H62   H     H_    0.266470 0.509660 0.681280 0.171539
H63   H     H_    0.228840 0.438470 0.655958 0.153578
H64   H     H_    0.289654 0.506303 0.640911 0.182247
H65   H     H_    0.331657 0.925862 0.351892 0.154897
H66   H     H_    0.334478 0.830284 0.364019 0.164528
H67   H     H_    0.304586 0.900240 0.390219 0.195561
H68   H     H_    0.312197 0.877961 0.695400 0.170414
H69   H     H_    0.643412 0.178452 0.638227 0.129790
H70   H     H_    0.656996 0.081769 0.647068 0.169017
H71   H     H_    0.672233 0.115575 0.608731 0.193976
H72   H     H_    0.074630 0.334510 0.352136 0.154554
H73   H     H_    0.171200 0.345325 0.362422 0.153783
H74   H     H_    0.105880 0.314847 0.390545 0.190303
H75   H     H_    0.732952 0.488702 0.681780 0.171656
H76   H     H_    0.770163 0.559360 0.656284 0.153667
H77   H     H_    0.709292 0.491075 0.641442 0.181834
H78   H     H_    0.530034 0.775549 0.666159 0.161954
H79   H     H_    0.686027 0.146408 0.187444 0.194494
H80   H     H_    0.512482 0.679043 0.673639 0.165509
H81   H     H_    0.504004 0.715424 0.635161 0.179986
H82   H     H_    0.242901 0.032766 0.333968 0.140887
H83   H     H_    0.151916 0.063681 0.345412 0.159990
H84   H     H_    0.215428 0.031313 0.373964 0.222046
H85   H     H_    0.846312 0.363812 0.643004 0.141284
H86   H     H_    0.773392 0.316712 0.621918 0.152511
H87   H     H_    0.862926 0.325222 0.605345 0.218162
H88   H     H_    0.025574 0.760845 0.331071 0.140120
H89   H     H_    0.055149 0.853430 0.340794 0.151361
H90   H     H_    0.373804 0.816855 0.806352 0.179168
H91   H     H_    0.021154 0.793512 0.370342 0.228091
H92   H     H_    0.470259 0.224377 0.666605 0.162322
H93   H     H_    0.486201 0.321657 0.673084 0.166366
H94   H     H_    0.495091 0.282774 0.634987 0.179745
H95   H     H_    0.761509 0.967079 0.334633 0.134376
H96   H     H_    0.850466 0.933240 0.347428 0.160050
H97   H     H_    0.785605 0.967628 0.375049 0.200038
H98   H     H_    0.150210 0.635948 0.643167 0.141496
H99   H     H_    0.223692 0.681800 0.622097 0.152480
H100  H     H_    0.133966 0.674401 0.605548 0.218126
H101  H     H_    0.809353 0.619772 0.195546 0.170672
H102  H     H_    0.811176 0.344946 0.367096 0.151584
H103  H     H_    0.730709 0.291991 0.378408 0.144665
H104  H     H_    0.750587 0.377965 0.396540 0.221928
H105  H     H_    0.816399 0.354514 0.312856 0.187003
H106  H     H_    0.145145 0.315568 0.812797 0.187926
H107  H     H_    0.384078 0.806481 0.196738 0.164810
H108  H     H_    0.627109 0.183303 0.806517 0.179723
H109  H     H_    0.190357 0.379776 0.195595 0.166445
H110  H     H_    0.855753 0.686196 0.812754 0.188502
H111  H     H_    0.766207 0.926310 0.779565 0.205009
H112  H     H_    0.381344 0.190663 0.196072 0.168396
H113  H     H_    0.813337 0.378125 0.804903 0.166347
H114  H     H_    0.190197 0.619056 0.195906 0.165558
H115  H     H_    0.234080 0.074522 0.779989 0.205487
H116  H     H_    0.354722 0.187417 0.687616 0.194987
H117  H     H_    0.617854 0.808313 0.196463 0.167434
H118  H     H_    0.186979 0.622561 0.804883 0.166312
H119  H     H_    0.927912 0.233951 0.220815 0.199726
H120  H     H_    0.975764 0.614656 0.872589 0.192083
H121  H     H_    0.013643 0.383220 0.127489 0.169089
H122  H     H_    0.382712 0.991472 0.872372 0.179481
H123  H     H_    0.616895 0.008662 0.127394 0.181634
H124  H     H_    0.025442 0.385628 0.872115 0.193086
H125  H     H_    0.988543 0.616221 0.127576 0.181566
H126  H     H_    0.617199 0.006733 0.872640 0.179169
H127  H     H_    0.688948 0.878735 0.305311 0.176485
H128  H     H_    0.382947 0.986716 0.127638 0.184061
H129  H     H_    0.489853 0.117111 0.372568 0.178537
H130  H     H_    0.516517 0.883797 0.627314 0.183558
H131  H     H_    0.883231 0.484229 0.372149 0.194847
H132  H     H_    0.116881 0.507742 0.627419 0.162669
H133  H     H_    0.506906 0.883256 0.372396 0.194428
H134  H     H_    0.482610 0.115851 0.627672 0.184566
H135  H     H_    0.116409 0.513037 0.372726 0.192784
H136  H     H_    0.882652 0.491237 0.627638 0.162723
H137  H     H_    0.027224 0.703275 0.904790 0.163543
H138  H     H_    0.874265 0.315295 0.693890 0.182615
H139  H     H_    0.084257 0.658948 0.934109 0.160164
H140  H     H_    0.019851 0.727830 0.944983 0.207455
H141  H     H_    0.903227 0.351249 0.065870 0.165932
H142  H     H_    0.954635 0.299580 0.094825 0.147134
H143  H     H_    0.959403 0.275885 0.054465 0.203256
H144  H     H_    0.303588 0.057152 0.905162 0.141419
H145  H     H_    0.357884 0.103954 0.934839 0.153978
H146  H     H_    0.278636 0.052100 0.945346 0.205133
H147  H     H_    0.644414 0.894049 0.064154 0.154023
H148  H     H_    0.695499 0.940790 0.094876 0.130322
H149  H     H_    0.117169 0.692476 0.303968 0.170994
H150  H     H_    0.722931 0.948398 0.055057 0.206854
H151  H     H_    0.975125 0.296740 0.904192 0.164928
H152  H     H_    0.918715 0.341115 0.933796 0.160248
H153  H     H_    0.983307 0.272207 0.944298 0.207785
H154  H     H_    0.102552 0.646876 0.066956 0.171059
H155  H     H_    0.050556 0.699096 0.095664 0.156417
H156  H     H_    0.047621 0.722809 0.055312 0.197962
H157  H     H_    0.696554 0.939767 0.904649 0.141590
H158  H     H_    0.641872 0.890645 0.933355 0.152902
H159  H     H_    0.720830 0.941826 0.944976 0.205663
H160  H     H_    0.644629 0.811026 0.687656 0.194697
H161  H     H_    0.352337 0.095897 0.065174 0.157040
H162  H     H_    0.300721 0.046604 0.094888 0.144365
H163  H     H_    0.275837 0.039956 0.054707 0.204642
H164  H     H_    0.555242 0.196813 0.405411 0.141863
H165  H     H_    0.602648 0.143222 0.434936 0.155470
H166  H     H_    0.550047 0.221671 0.445640 0.204766
H167  H     H_    0.406000 0.848866 0.563032 0.154071
H168  H     H_    0.454185 0.801687 0.594301 0.130391
H169  H     H_    0.465664 0.774063 0.554640 0.207368
H170  H     H_    0.797417 0.539176 0.404227 0.163355
H171  H     H_    0.311347 0.121749 0.305113 0.174092
H172  H     H_    0.847656 0.593749 0.432843 0.158529
H173  H     H_    0.773819 0.535858 0.444583 0.207318
H174  H     H_    0.145326 0.394714 0.567664 0.166058
H175  H     H_    0.199852 0.447887 0.595286 0.148006
H176  H     H_    0.221683 0.447781 0.554722 0.204710
H177  H     H_    0.440574 0.803717 0.404564 0.147976
H178  H     H_    0.392370 0.856784 0.434198 0.151400
H179  H     H_    0.445077 0.778450 0.444709 0.207406
H180  H     H_    0.591599 0.150311 0.562825 0.153458
H181  H     H_    0.544959 0.197548 0.594578 0.130215
H182  H     H_    0.118725 0.309814 0.303949 0.165270
H183  H     H_    0.531990 0.225475 0.555104 0.206631
H184  H     H_    0.198133 0.449991 0.405154 0.147311
H185  H     H_    0.147580 0.400020 0.434980 0.152676
H186  H     H_    0.223700 0.456682 0.445269 0.207807
H187  H     H_    0.853039 0.602118 0.567841 0.167193
H188  H     H_    0.798809 0.549247 0.595507 0.148468
H189  H     H_    0.776812 0.548557 0.554950 0.204377
H190  H     H_    0.156669 0.584365 0.853294 0.156288
H191  H     H_    0.145651 0.681533 0.862108 0.161375
H192  H     H_    0.173507 0.618542 0.891554 0.189359
N1    N     N_R   0.971593 0.443817 0.984290 -0.135446
N2    N     N_R   0.531769 0.054139 0.515594 -0.138883
N3    N     N_R   0.052724 0.463103 0.484465 -0.136671
N4    N     N_R   0.945358 0.531896 0.515398 -0.130176
N5    N     N_R   0.531405 0.054256 0.484634 -0.132946
N6    N     N_R   0.464306 0.945925 0.515505 -0.136858
N7    N     N_R   0.945280 0.531574 0.484430 -0.131585
N8    N     N_R   0.052758 0.463377 0.515430 -0.130660
N9    N     N_R   0.033128 0.555506 0.015401 -0.129201
N10   N     N_R   0.552530 0.960802 0.984446 -0.132636
N11   N     N_R   0.446512 0.031009 0.015643 -0.134536
N12   N     N_R   0.032774 0.555699 0.984432 -0.135189
N13   N     N_R   0.971844 0.443721 0.015256 -0.130952
N14   N     N_R   0.446593 0.031530 0.984683 -0.134022
N15   N     N_R   0.552482 0.960315 0.015413 -0.136830
N16   N     N_R   0.463865 0.946110 0.484540 -0.130784
O1    O     O_3   0.000000 0.500000 0.750000 -0.475009
O2    O     O_R   0.060770 0.500000 0.319330 -0.647500
O3    O     O_3   0.710735 0.385760 0.352011 -0.568369
O4    O     O_R   0.500000 0.939230 0.680670 -0.662710
O5    O     O_R   0.500000 0.060770 0.319330 -0.653422
O6    O     O_R   0.560770 0.000000 0.180670 -0.661855
O7    O     O_R   0.439230 0.000000 0.819330 -0.653068
O8    O     O_R   1.000000 0.560770 0.180670 -0.649229
O9    O     O_R   1.000000 0.439230 0.819330 -0.652659
O10   O     O_R   0.439230 0.000000 0.180670 -0.652763
O11   O     O_R   0.560770 0.000000 0.819330 -0.652893
O12   O     O_R   1.000000 0.439230 0.180670 -0.655320
O13   O     O_3   1.000000 0.500000 0.250000 -0.478015
O14   O     O_R   1.000000 0.560770 0.819330 -0.653149
O15   O     O_R   0.853860 0.585440 0.731810 -0.655371
O16   O     O_R   0.146140 0.414560 0.268190 -0.634792
O17   O     O_R   0.414560 0.853860 0.731810 -0.647957
O18   O     O_R   0.585440 0.146140 0.268190 -0.655600
O19   O     O_R   0.146140 0.414560 0.731810 -0.655841
O20   O     O_R   0.853860 0.585440 0.268190 -0.628115
O21   O     O_R   0.585440 0.146140 0.731810 -0.647218
O22   O     O_R   0.414560 0.853860 0.268190 -0.634327
O23   O     O_R   0.853860 0.414560 0.268190 -0.630340
O24   O     O_3   0.500000 0.000000 0.750000 -0.466090
O25   O     O_R   0.146140 0.585440 0.731810 -0.663638
O26   O     O_R   0.414560 0.146140 0.268190 -0.649557
O27   O     O_R   0.585440 0.853860 0.731810 -0.647865
O28   O     O_R   0.146140 0.585440 0.268190 -0.632245
O29   O     O_R   0.853860 0.414560 0.731810 -0.664505
O30   O     O_R   0.585440 0.853860 0.268190 -0.627382
O31   O     O_R   0.414560 0.146140 0.731810 -0.647512
O32   O     O_R   0.353860 0.085440 0.231810 -0.639864
O33   O     O_R   0.646140 0.914560 0.768190 -0.655907
O34   O     O_R   0.914560 0.353860 0.231810 -0.654975
O35   O     O_3   0.500000 0.000000 0.250000 -0.474011
O36   O     O_R   0.085440 0.646140 0.768190 -0.626448
O37   O     O_R   0.646140 0.914560 0.231810 -0.650930
O38   O     O_R   0.353860 0.085440 0.768190 -0.656153
O39   O     O_R   0.085440 0.646140 0.231810 -0.640039
O40   O     O_R   0.914560 0.353860 0.768190 -0.625774
O41   O     O_R   0.353860 0.914560 0.768190 -0.647848
O42   O     O_R   0.646140 0.085440 0.231810 -0.647421
O43   O     O_R   0.914560 0.646140 0.768190 -0.630494
O44   O     O_R   0.085440 0.353860 0.231810 -0.659658
O45   O     O_R   0.646140 0.085440 0.768190 -0.648729
O46   O     O_R   0.060770 0.500000 0.680670 -0.655522
O47   O     O_R   0.353860 0.914560 0.231810 -0.643086
O48   O     O_R   0.085440 0.353860 0.768190 -0.629888
O49   O     O_R   0.914560 0.646140 0.231810 -0.644486
O50   O     O_3   0.973667 0.629097 0.933800 -0.595334
O51   O     O_3   0.016662 0.368155 0.066454 -0.599385
O52   O     O_3   0.367504 0.989988 0.933333 -0.577734
O53   O     O_3   0.631582 0.007456 0.066440 -0.574350
O54   O     O_3   0.029335 0.370899 0.933213 -0.596422
O55   O     O_3   0.988928 0.631156 0.066631 -0.597989
O56   O     O_3   0.632039 0.004649 0.933668 -0.577091
O57   O     O_R   0.939230 0.500000 0.319330 -0.652782
O58   O     O_3   0.367921 0.982700 0.066563 -0.587849
O59   O     O_3   0.488558 0.132186 0.433573 -0.579161
O60   O     O_3   0.518364 0.869226 0.566259 -0.574766
O61   O     O_3   0.867911 0.481194 0.433286 -0.597584
O62   O     O_3   0.131430 0.508299 0.566294 -0.600320
O63   O     O_3   0.506367 0.868339 0.433328 -0.575767
O64   O     O_3   0.479266 0.130517 0.566742 -0.574014
O65   O     O_3   0.130776 0.513020 0.433787 -0.577633
O66   O     O_3   0.867310 0.488544 0.566546 -0.602619
O67   O     O_3   0.253646 0.642132 0.859697 -0.578182
O68   O     O_R   0.500000 0.060770 0.680670 -0.662223
O69   O     O_3   0.927793 0.161727 0.166826 -0.580649
O70   O     O_3   0.162269 0.075009 0.833811 -0.562338
O71   O     O_3   0.631942 0.737040 0.142305 -0.547872
O72   O     O_3   0.747643 0.358677 0.859829 -0.578735
O73   O     O_3   0.268052 0.628479 0.142797 -0.576637
O74   O     O_3   0.838641 0.927269 0.833280 -0.562687
O75   O     O_3   0.366205 0.260425 0.142103 -0.559870
O76   O     O_3   0.260417 0.363876 0.141905 -0.581870
O77   O     O_3   0.887744 0.792710 0.851179 -0.566929
O78   O     O_3   0.373333 0.731656 0.143579 -0.557637
O79   O     O_R   0.500000 0.939230 0.319330 -0.647046
O80   O     O_3   0.644455 0.250987 0.859549 -0.565409
O81   O     O_3   0.737844 0.634276 0.141941 -0.562261
O82   O     O_3   0.113634 0.210055 0.851545 -0.567781
O83   O     O_3   0.792159 0.113675 0.148894 -0.569905
O84   O     O_3   0.356991 0.749584 0.859379 -0.564719
O85   O     O_3   0.575464 0.336907 0.334449 -0.568053
O86   O     O_3   0.246193 0.857611 0.640482 -0.559201
O87   O     O_3   0.866845 0.761861 0.358099 -0.597259
O88   O     O_3   0.340166 0.428984 0.667900 -0.575831
O89   O     O_3   0.230194 0.875049 0.356024 -0.594801
O90   O     O_R   0.939230 0.500000 0.680670 -0.655419
O91   O     O_3   0.752381 0.141749 0.640300 -0.559863
O92   O     O_3   0.132210 0.237585 0.357748 -0.577281
O93   O     O_3   0.658961 0.568940 0.668383 -0.575543
O94   O     O_3   0.609825 0.703209 0.650111 -0.570469
O95   O     O_3   0.238574 0.133286 0.357016 -0.581068
O96   O     O_3   0.854967 0.250184 0.640602 -0.565556
O97   O     O_3   0.124605 0.769365 0.355127 -0.575895
O98   O     O_3   0.389163 0.294197 0.649874 -0.570229
O99   O     O_3   0.760715 0.866461 0.357384 -0.563080
O100  O     O_3   0.143149 0.749654 0.640871 -0.565172
Zn1   Zn    Zn3+2 0.000000 0.586740 0.775960 0.970108
Zn2   Zn    Zn3+2 0.500000 0.913260 0.724040 0.937860
Zn3   Zn    Zn3+2 0.913260 0.500000 0.275960 0.970040
Zn4   Zn    Zn3+2 0.086740 0.500000 0.724040 0.940603
Zn5   Zn    Zn3+2 0.500000 0.913260 0.275960 0.971775
Zn6   Zn    Zn3+2 0.500000 0.086740 0.724040 0.937777
Zn7   Zn    Zn3+2 0.086740 0.500000 0.275960 0.960536
Zn8   Zn    Zn3+2 0.913260 0.500000 0.724040 0.940613
Zn9   Zn    Zn3+2 0.000000 0.413260 0.224040 0.930079
Zn10  Zn    Zn3+2 0.413260 1.000000 0.775960 0.945386
Zn11  Zn    Zn3+2 0.586740 0.000000 0.224040 0.935792
Zn12  Zn    Zn3+2 0.000000 0.413260 0.775960 0.969920
Zn13  Zn    Zn3+2 0.000000 0.586740 0.224040 0.955492
Zn14  Zn    Zn3+2 0.586740 1.000000 0.775960 0.945214
Zn15  Zn    Zn3+2 0.413260 0.000000 0.224040 0.949135
Zn16  Zn    Zn3+2 0.500000 0.086740 0.275960 0.940530

loop_
_geom_bond_atom_site_label_1
_geom_bond_atom_site_label_2
_ccdc_geom_bond_type
C227  O8    A    
C145  H66   S    
C83   O78   S    
C31   C161  A    
C137  H40   S    
O35   Zn15  S    
C159  C194  A    
C147  O91   S    
C29   C163  A    
C146  C192  A    
C115  H165  S    
C143  O87   S    
O40   Zn12  S    
C89   O72   S    
C126  O70   S    
C16   N14   A    
C232  O17   A    
C157  C193  A    
C68   C220  A    
C19   C226  S    
O1    Zn12  S    
C224  O5    A    
C71   O93   S    
C17   C228  S    
C133  H31   S    
C20   C175  A    
C126  H6    S    
C173  C179  A    
C142  H56   S    
C226  O11   A    
C128  H15   S    
O24   Zn10  S    
C39   C74   A    
C8    N6    A    
O11   Zn14  S    
O14   Zn1   S    
O13   Zn9   S    
C102  C217  A    
C140  H49   S    
C66   C72   A    
C114  H161  S    
C119  O63   S    
C138  H43   S    
C2    C22   A    
C123  H191  S    
C37   C135  A    
C27   H105  S    
C61   O100  S    
C35   C216  A    
C81   O81   S    
C36   C71   A    
C33   C69   A    
C148  H72   S    
C131  H22   S    
C10   N4    A    
C29   C64   A    
C46   C217  A    
C224  O79   A    
C151  H82   S    
C232  O41   A    
C127  O71   S    
C45   C182  A    
C192  C229  S    
C178  C193  A    
C108  H148  S    
N1    N13   A    
C143  H59   S    
C66   O97   S    
C3    O27   A    
C122  H187  S    
C117  H170  S    
C58   H117  S    
C111  H157  S    
N9    N12   A    
C72   O89   S    
C51   H110  S    
C56   H115  S    
C34   H182  S    
C225  O6    A    
C116  H167  S    
C3    C195  S    
C161  C196  A    
C127  H9    S    
O43   Zn1   S    
C102  C213  A    
C23   C222  S    
C17   C186  A    
C142  O86   S    
C18   C197  A    
C238  O23   A    
C203  O50   S    
C12   N13   A    
C12   C97   S    
C187  C233  S    
C64   O99   S    
C131  H25   S    
C136  H38   S    
C82   O82   S    
C140  H51   S    
C174  C194  A    
O41   Zn10  S    
C56   C171  A    
C172  C196  A    
C112  C204  A    
C97   C204  A    
C156  H98   S    
C79   C167  A    
C55   C172  A    
C80   O84   S    
C46   H134  S    
C109  H153  S    
C155  H96   S    
O6    Zn11  S    
C4    C196  S    
C162  C198  A    
C100  C216  A    
C118  O62   S    
C50   C178  A    
C171  C181  A    
C45   C81   A    
C153  O97   S    
C4    O28   A    
C63   O98   S    
C130  H20   S    
O7    Zn10  S    
C54   H113  S    
O24   Zn14  S    
C21   C35   A    
C9    N16   A    
C83   C91   A    
C133  O77   S    
C209  O55   S    
C153  H89   S    
C225  O10   A    
C28   H116  S    
C176  C177  A    
C109  H152  S    
C139  O83   S    
C141  H54   S    
C62   O3    S    
C128  H12   S    
C107  H146  S    
C21   C230  A    
C147  H70   S    
C24   C215  A    
C139  H48   S    
C69   C70   A    
C130  H21   S    
C18   C227  S    
C84   O80   S    
C117  H173  S    
C4    O39   A    
O2    Zn7   S    
C11   N7    A    
C119  H179  S    
O34   Zn9   S    
C194  C240  S    
C59   C169  A    
C108  O53   S    
C105  H140  S    
C49   C179  A    
C229  O43   A    
C45   H101  S    
C120  O64   S    
C108  H150  S    
C14   N12   A    
C121  H185  S    
C47   C181  A    
C16   C98   S    
C117  H172  S    
C5    O40   A    
O90   Zn8   S    
C136  O80   S    
C99   C211  A    
C240  O32   A    
C1    H120  S    
C116  H169  S    
C97   C209  A    
C49   C84   A    
C109  O54   S    
C129  H17   S    
C6    C199  S    
C107  O52   S    
C35   H133  S    
C146  C160  A    
C57   C218  A    
C49   H108  S    
C134  H32   S    
C207  O54   S    
C105  O50   S    
C212  C230  A    
C231  O16   A    
C13   C23   A    
C167  C202  A    
C228  O14   A    
C169  C202  A    
C218  O65   S    
C149  O93   S    
O23   Zn3   S    
C233  O18   A    
C61   C77   A    
C39   C113  A    
C128  H14   S    
O17   Zn2   S    
C152  O96   S    
C88   O75   S    
O35   Zn5   S    
O38   Zn10  S    
O19   Zn4   S    
C106  H142  S    
C158  O3    S    
N4    N7    A    
C221  O46   A    
C140  O84   S    
C110  H156  S    
C158  H103  S    
C152  H86   S    
C42   C79   A    
C16   N10   A    
C170  C182  A    
C135  C161  A    
C154  H94   S    
C41   H57   S    
C70   O92   S    
C170  C199  A    
C131  H23   S    
C211  O58   S    
C26   C167  A    
O24   Zn6   S    
C87   O74   S    
C222  O57   A    
C8    N2    A    
C152  H87   S    
C165  C200  A    
C151  H83   S    
O1    Zn8   S    
C91   O73   S    
C148  H74   S    
C93   O71   S    
C5    O29   A    
C60   C95   A    
C171  C200  A    
C27   C62   A    
C113  C163  A    
O22   Zn5   S    
C10   N8    A    
C149  H77   S    
C103  C214  A    
C31   H149  S    
C145  O89   S    
C119  H177  S    
C43   H79   S    
C44   C183  A    
C76   O85   S    
C138  O82   S    
C32   C67   A    
C144  H63   S    
C107  H144  S    
C9    C100  S    
C65   O96   S    
C19   C208  A    
C20   C219  A    
C131  O75   S    
C101  C188  A    
C48   C180  A    
C213  O60   S    
C85   C88   A    
C145  H65   S    
C23   C57   A    
C185  C232  S    
C34   C70   A    
C137  H39   S    
C111  H158  S    
C126  H7    S    
C122  O66   S    
C111  O56   S    
C180  C191  A    
C219  H128  S    
C152  H85   S    
C150  H81   S    
C231  O44   A    
C67   O94   S    
C60   H119  S    
C211  C219  A    
C1    C17   A    
C184  C187  A    
C57   H135  S    
C123  O67   S    
C132  H27   S    
O47   Zn15  S    
C85   O76   S    
C172  C180  A    
C133  H30   S    
O68   Zn6   S    
C106  H143  S    
C176  C195  A    
C189  C235  S    
C74   O87   S    
C30   C65   A    
C103  C218  A    
C140  H50   S    
C34   C157  A    
C125  O69   S    
C110  H154  S    
C206  O53   S    
C115  O59   S    
C114  H162  S    
C42   C77   A    
C138  H44   S    
C134  H33   S    
C229  O15   A    
C51   C177  A    
C15   N11   A    
C215  O62   S    
C38   C124  A    
O4    Zn2   S    
C220  O66   S    
O29   Zn8   S    
C125  H5    S    
O13   Zn7   S    
O44   Zn9   S    
C124  C190  A    
C26   H1    S    
C105  H137  S    
C201  C238  S    
C144  O88   S    
C230  H129  S    
C43   C78   A    
C44   H90   S    
C149  H76   S    
C69   O95   S    
C26   C61   A    
C18   C112  A    
C216  O63   S    
C122  H188  S    
C237  O47   A    
C118  H174  S    
C11   N3    A    
C90   C187  A    
O28   Zn7   S    
C39   H35   S    
C116  H168  S    
C82   C92   A    
C115  H166  S    
C125  H4    S    
C137  O81   S    
C7    C200  S    
C55   C91   A    
C50   C85   A    
C59   H118  S    
O46   Zn4   S    
O45   Zn14  S    
C236  O21   A    
C143  H60   S    
C59   C94   A    
C134  O78   S    
C122  H189  S    
C239  O25   A    
C228  O9    A    
C52   C176  A    
C124  C162  A    
O21   Zn6   S    
C145  H67   S    
O9    Zn12  S    
C137  H41   S    
O35   Zn16  S    
C157  C159  A    
C177  C192  A    
C90   C166  A    
C2    H130  S    
C62   C76   A    
C25   C68   A    
N6    N16   A    
O8    Zn13  S    
C51   C86   A    
C14   C96   S    
C181  C188  A    
C155  H95   S    
C128  O72   S    
C14   N1    A    
C130  O74   S    
C44   C80   A    
O79   Zn5   S    
C6    O37   A    
C86   C87   A    
C96   C207  A    
C150  O94   S    
C142  H55   S    
C222  O2    A    
C197  H125  S    
C42   H68   S    
O36   Zn1   S    
C166  C201  A    
C110  O55   S    
C109  H151  S    
C141  H53   S    
C95   O69   S    
C106  O51   S    
C107  H145  S    
C138  H42   S    
C123  H192  S    
C139  H47   S    
C13   H131  S    
C101  C165  A    
O1    Zn4   S    
C135  C191  A    
C28   C165  A    
C160  C195  A    
C234  O19   A    
C221  O90   A    
C22   C46   A    
C37   H13   S    
C96   C203  A    
O30   Zn5   S    
C223  O68   A    
C190  C236  S    
C193  C231  S    
C80   C94   A    
C205  O52   S    
C155  H97   S    
C188  C234  S    
C105  H139  S    
C141  H52   S    
N3    N8    A    
C144  H62   S    
C108  H147  S    
C117  O61   S    
C30   H138  S    
C104  C215  A    
C153  H91   S    
C48   H107  S    
C48   C83   A    
C223  O4    A    
C227  O12   A    
C113  C189  A    
C233  O42   A    
C40   C75   A    
C111  H159  S    
C127  H10   S    
C73   O91   S    
C36   H2    S    
C78   O83   S    
C41   C76   A    
C121  H186  S    
C67   C71   A    
O26   Zn16  S    
C27   C166  A    
C132  H26   S    
C120  H183  S    
C2    C213  A    
C37   C72   A    
C121  O65   S    
C153  H88   S    
C64   C74   A    
C58   C93   A    
C175  C206  A    
C115  H164  S    
O13   Zn13  S    
C33   C159  A    
O39   Zn13  S    
C217  O64   S    
C77   O86   S    
C13   C214  A    
C31   C66   A    
O49   Zn13  S    
C21   C224  S    
C132  O76   S    
C7    O31   A    
C94   O67   S    
C114  O58   S    
C204  O51   S    
C164  H122  S    
C130  H19   S    
C118  H175  S    
C65   C73   A    
C234  O48   A    
C212  O59   S    
C98   C210  A    
C60   C168  A    
C63   C75   A    
C186  C207  A    
C54   C173  A    
O12   Zn9   S    
C58   C170  A    
C24   H132  S    
C186  H124  S    
C164  C205  A    
C183  C185  A    
C158  H102  S    
C150  H80   S    
O37   Zn11  S    
C43   C184  A    
C123  H190  S    
C129  O73   S    
C168  C201  A    
C139  H45   S    
C237  O22   A    
C238  O34   A    
C47   C82   A    
C208  H126  S    
N10   N15   A    
C121  H184  S    
C15   N15   A    
C104  C220  A    
N11   N14   A    
C235  O20   A    
C148  O92   S    
C155  O99   S    
C148  H73   S    
C29   H127  S    
C169  C183  A    
C86   O77   S    
C168  C184  A    
C151  O95   S    
O42   Zn11  S    
C129  H16   S    
C98   C205  A    
C25   C221  S    
C182  C189  A    
O13   Zn3   S    
C78   C95   A    
C175  H123  S    
C75   O88   S    
C144  H64   S    
C41   C90   A    
C40   C101  A    
C141  O85   S    
C174  C178  A    
C68   H136  S    
C147  H69   S    
C136  H36   S    
C47   H106  S    
C12   N9    A    
C55   H114  S    
C53   C174  A    
C149  H75   S    
O57   Zn3   S    
O31   Zn6   S    
C32   H160  S    
C9    N5    A    
C120  H180  S    
C99   C206  A    
C126  H8    S    
C112  H121  S    
O35   Zn11  S    
C24   C25   A    
C54   C89   A    
C129  H18   S    
O18   Zn16  S    
C202  C239  S    
C158  H104  S    
C100  C212  A    
C92   O70   S    
C20   C225  S    
C6    O30   A    
C7    O38   A    
C118  H176  S    
O15   Zn8   S    
C154  H92   S    
O25   Zn4   S    
C38   H24   S    
C132  H28   S    
C81   C93   A    
C3    O33   A    
O27   Zn2   S    
C133  H29   S    
C210  O56   S    
C142  H58   S    
C33   H171  S    
C50   H109  S    
C156  H99   S    
C106  H141  S    
C240  O26   A    
C36   C146  A    
C110  H155  S    
C114  H163  S    
C134  H34   S    
C154  H93   S    
C156  H100  S    
C84   C89   A    
C147  H71   S    
O1    Zn1   S    
C236  O45   A    
C156  O100  S    
C52   H111  S    
C235  O49   A    
C214  O61   S    
C79   C185  A    
O48   Zn12  S    
C173  C198  A    
C52   C87   A    
O10   Zn15  S    
C15   C99   S    
C151  H84   S    
C5    C198  S    
C150  H78   S    
C116  O60   S    
C22   C223  S    
O24   Zn2   S    
C10   C104  S    
C136  H37   S    
O5    Zn16  S    
O20   Zn3   S    
C53   H112  S    
O33   Zn14  S    
C179  C190  A    
C226  O7    A    
C239  O36   A    
C119  H178  S    
C40   H46   S    
C120  H181  S    
C125  H3    S    
C53   C88   A    
C127  H11   S    
C19   C164  A    
O32   Zn15  S    
N2    N5    A    
C197  C209  A    
C143  H61   S    
C163  C199  A    
C56   C92   A    
C208  C210  A    
C191  C237  S    
C30   C162  A    
C28   C63   A    
C11   C103  S    
O16   Zn7   S    
C8    C102  S    
C154  O98   S    
C32   C160  A    
C38   C73   A    
C1    C203  A    
