data_mof_unit_27559.cif
_audit_creation_date              2012-10-26T19:04:21-0400
_audit_creation_method            fapswitch 2.2
_symmetry_space_group_name_H-M    P1
_symmetry_Int_Tables_number       1
_space_group_crystal_system       triclinic
_cell_length_a                    14.962421
_cell_length_b                    15.626571
_cell_length_c                    9.583279
_cell_angle_alpha                 89.710689
_cell_angle_beta                  89.75529
_cell_angle_gamma                 89.574499
_cell_volume                      2240.56881579

loop_
_atom_site_label
_atom_site_type_symbol
_atom_type_description
_atom_site_fract_x
_atom_site_fract_y
_atom_site_fract_z
_atom_type_partial_charge
C1    C     C_R   0.385080 0.877477 0.501622 0.535198
C2    C     C_R   0.719825 0.217365 0.379321 -0.164050
C3    C     C_R   0.256917 0.317544 0.421031 -0.147628
C4    C     C_R   0.219823 0.717367 0.379321 -0.164049
C5    C     C_R   0.679070 0.808480 0.500150 0.006861
C6    C     C_R   0.676565 0.194535 0.503602 -0.009371
C7    C     C_R   0.179070 0.308481 0.500150 0.006862
C8    C     C_R   0.176566 0.694535 0.503604 -0.009371
C9    C     C_R   0.664443 0.003849 0.142898 -0.128656
C10   C     C_R   0.164443 0.503849 0.142898 -0.128656
C11   C     C_R   0.745363 0.008928 0.070570 -0.021038
C12   C     C_R   0.379067 0.116506 0.500045 0.541145
C13   C     C_R   0.245363 0.508929 0.070570 -0.021038
C14   C     C_R   0.744626 0.007819 0.925980 -0.128496
C15   C     C_R   0.244626 0.507819 0.925980 -0.128496
C16   C     C_R   0.664349 0.002697 0.854811 -0.110106
C17   C     C_R   0.164349 0.502697 0.854811 -0.110107
C18   C     C_R   0.580837 0.001578 0.924635 0.148527
C19   C     C_R   0.080837 0.501578 0.924635 0.148526
C20   C     C_R   0.580845 0.001818 0.074150 0.145766
C21   C     C_R   0.080845 0.501818 0.074150 0.145766
C22   C     C_R   0.423121 0.998098 0.074451 -0.001454
C23   C     C_R   0.885080 0.377477 0.501622 0.535197
C24   C     C_R   0.923121 0.498098 0.074451 -0.001454
C25   C     C_R   0.614035 0.123030 0.500398 0.533814
C26   C     C_R   0.616694 0.879518 0.500081 0.527353
C27   C     C_R   0.114035 0.623030 0.500398 0.533815
C28   C     C_R   0.116694 0.379518 0.500081 0.527353
C29   C     C_R   0.423155 0.998150 0.926446 -0.008245
C30   C     C_R   0.923155 0.498150 0.926446 -0.008246
C31   C     C_R   0.209796 0.089086 0.647549 -0.108464
C32   C     C_R   0.324069 0.789249 0.768384 -0.105125
C33   C     C_R   0.709796 0.589086 0.647552 -0.108464
C34   C     C_R   0.879067 0.616506 0.500045 0.541145
C35   C     C_R   0.824060 0.289257 0.768386 -0.105127
C36   C     C_R   0.129400 0.077717 0.719146 -0.114322
C37   C     C_R   0.276289 0.774509 0.891195 -0.125096
C38   C     C_R   0.629402 0.577718 0.719151 -0.114322
C39   C     C_R   0.776276 0.274520 0.891194 -0.125099
C40   C     C_R   0.564903 0.642292 0.718998 -0.113511
C41   C     C_R   0.688346 0.247396 0.884664 -0.120313
C42   C     C_R   0.064901 0.142291 0.718993 -0.113511
C43   C     C_R   0.188358 0.747386 0.884670 -0.120314
C44   C     C_R   0.580474 0.718638 0.647355 -0.101790
C45   C     C_R   0.320826 0.253482 0.420948 -0.144457
C46   C     C_R   0.651336 0.226871 0.756148 -0.091246
C47   C     C_R   0.080472 0.218637 0.647351 -0.101790
C48   C     C_R   0.151344 0.726865 0.756154 -0.091247
C49   C     C_R   0.662111 0.732282 0.575995 0.032251
C50   C     C_R   0.702666 0.232430 0.631602 0.025370
C51   C     C_R   0.162111 0.232282 0.575993 0.032251
C52   C     C_R   0.202670 0.732426 0.631604 0.025369
C53   C     C_R   0.227652 0.166580 0.575987 0.026941
C54   C     C_R   0.284179 0.776804 0.635781 0.020782
C55   C     C_R   0.727652 0.666580 0.575989 0.026941
C56   C     C_R   0.288757 0.775619 0.380666 -0.151613
C57   C     C_R   0.784173 0.276808 0.635781 0.020783
C58   C     C_R   0.307813 0.179366 0.499990 0.001432
C59   C     C_R   0.321385 0.806673 0.507301 -0.011623
C60   C     C_R   0.807813 0.679366 0.499990 0.001432
C61   C     C_R   0.821384 0.306674 0.507302 -0.011624
C62   C     C_2   0.830386 0.014970 0.148352 0.215596
C63   C     C_2   0.330386 0.514971 0.148352 0.215597
C64   C     C_R   0.820824 0.753481 0.420946 -0.144458
C65   C     C_R   0.788759 0.275617 0.380667 -0.151614
C66   C     C_R   0.756916 0.817543 0.421029 -0.147628
Cu1   Cu    Cu3+1 0.499990 0.000000 0.640660 0.900205
Cu2   Cu    Cu3+1 0.999990 0.500000 0.640660 0.900205
Cu3   Cu    Cu3+1 0.500010 0.000000 0.359340 0.926776
Cu4   Cu    Cu3+1 0.000010 0.500000 0.359340 0.926776
H1    H     H_    0.381811 0.262577 0.361360 0.135714
H2    H     H_    0.860188 0.496577 0.871491 0.117590
H3    H     H_    0.256513 0.035989 0.646777 0.133513
H4    H     H_    0.393047 0.806959 0.780654 0.143988
H5    H     H_    0.756513 0.535990 0.646780 0.133513
H6    H     H_    0.893037 0.306967 0.780660 0.143992
H7    H     H_    0.116618 0.018070 0.773360 0.130691
H8    H     H_    0.307022 0.785929 0.991415 0.113461
H9    H     H_    0.616619 0.518071 0.773366 0.130691
H10   H     H_    0.807005 0.285942 0.991416 0.113458
H11   H     H_    0.502025 0.632787 0.773046 0.135228
H12   H     H_    0.317256 0.795578 0.281719 0.139129
H13   H     H_    0.649480 0.240048 0.979478 0.119759
H14   H     H_    0.002023 0.132786 0.773039 0.135228
H15   H     H_    0.149495 0.740036 0.979485 0.119756
H16   H     H_    0.527304 0.765679 0.646287 0.131306
H17   H     H_    0.581912 0.208428 0.756076 0.154007
H18   H     H_    0.027303 0.265678 0.646283 0.131308
H19   H     H_    0.081920 0.708423 0.756086 0.154008
H20   H     H_    0.769139 0.875422 0.361478 0.109024
H21   H     H_    0.700243 0.190451 0.280150 0.135483
H22   H     H_    0.269141 0.375424 0.361482 0.109023
H23   H     H_    0.881809 0.762575 0.361356 0.135715
H24   H     H_    0.200238 0.690456 0.280149 0.135482
H25   H     H_    0.360121 0.996541 0.130167 0.121995
H26   H     H_    0.860121 0.496542 0.130167 0.121995
H27   H     H_    0.670865 0.001116 0.252812 0.169943
H28   H     H_    0.170865 0.501116 0.252812 0.169943
H29   H     H_    0.829677 0.017003 0.261576 0.091515
H30   H     H_    0.329677 0.517004 0.261576 0.091515
H31   H     H_    0.817261 0.295574 0.281721 0.139130
H32   H     H_    0.806538 0.010279 0.867030 0.161753
H33   H     H_    0.306538 0.510280 0.867030 0.161754
H34   H     H_    0.672259 0.999693 0.744971 0.190347
H35   H     H_    0.172259 0.499693 0.744971 0.190347
H36   H     H_    0.360188 0.996577 0.871491 0.117591
N1    N     N_R   0.501200 0.000000 0.147910 -0.239275
N2    N     N_R   0.001200 0.500000 0.147910 -0.239275
N3    N     N_R   0.501270 0.000000 0.852040 -0.246095
N4    N     N_R   0.001270 0.500000 0.852040 -0.246095
O1    O     O_R   0.409820 0.909830 0.618810 -0.527377
O2    O     O_R   0.590170 0.909830 0.618760 -0.526517
O3    O     O_R   0.090170 0.590170 0.618760 -0.530097
O4    O     O_R   0.090170 0.409830 0.618760 -0.526517
O5    O     O_R   0.590190 0.090180 0.381190 -0.524459
O6    O     O_R   0.590190 0.909820 0.381190 -0.511520
O7    O     O_R   0.090190 0.590180 0.381190 -0.524459
O8    O     O_R   0.090190 0.409820 0.381190 -0.511519
O9    O     O_2   0.902110 0.018178 0.087305 -0.512289
O10   O     O_2   0.402110 0.518179 0.087305 -0.512290
O11   O     O_R   0.409820 0.090170 0.618810 -0.504640
O12   O     O_R   0.909820 0.409830 0.618810 -0.527378
O13   O     O_R   0.909820 0.590170 0.618810 -0.504638
O14   O     O_R   0.409840 0.909830 0.381240 -0.499613
O15   O     O_R   0.409840 0.090170 0.381240 -0.493972
O16   O     O_R   0.909840 0.409830 0.381240 -0.499613
O17   O     O_R   0.909840 0.590170 0.381240 -0.493972
O18   O     O_R   0.590170 0.090170 0.618760 -0.530097

loop_
_geom_bond_atom_site_label_1
_geom_bond_atom_site_label_2
_ccdc_geom_bond_type
C44   C49   A    
C33   C55   A    
Cu3   O6    S    
C34   O13   A    
C22   C29   A    
C45   H1    S    
C22   H25   S    
C36   C42   A    
C18   N3    A    
C65   H31   S    
C4    C8    A    
C2    C65   A    
Cu3   N1    S    
C39   C41   A    
C30   N4    A    
C25   O5    A    
C29   N3    A    
C19   C21   A    
C25   O18   A    
C64   H23   S    
C3    C7    A    
C36   H7    S    
C24   H26   S    
C32   H4    S    
C11   C14   A    
C14   H32   S    
C6    C25   S    
C38   H9    S    
Cu4   O7    S    
C22   N1    A    
C41   H13   S    
C10   H28   S    
C33   H5    S    
C12   O11   A    
C52   C54   A    
C34   O17   A    
C41   C46   A    
C24   N2    A    
C43   C48   A    
C8    C52   A    
C40   C44   A    
Cu2   O3    S    
C20   N1    A    
C12   C58   S    
Cu2   Cu4   S    
Cu4   O16   S    
Cu3   O15   S    
C55   C60   A    
C4    C56   A    
C34   C60   S    
C5    C49   A    
C2    C6    A    
C44   H16   S    
Cu1   O11   S    
Cu2   O13   S    
C32   C54   A    
C16   H34   S    
C23   O12   A    
C24   C30   A    
C54   C59   A    
C27   O7    A    
C10   C21   A    
C35   H6    S    
C45   C58   A    
C43   H15   S    
C42   H14   S    
C66   H20   S    
Cu2   O12   S    
C47   C51   A    
C12   O15   A    
Cu3   O14   S    
C49   C55   A    
C3    C45   A    
C6    C50   A    
C7    C28   S    
C5    C26   S    
C3    H22   S    
Cu1   Cu3   S    
C64   C66   A    
C37   C43   A    
C35   C39   A    
C63   H30   S    
C17   H35   S    
C9    C20   A    
C13   C63   S    
C48   C52   A    
Cu2   N4    S    
C32   C37   A    
C31   C53   A    
C57   C61   A    
C9    C11   A    
C62   O9    D    
C28   O4    A    
C23   O16   A    
C4    H24   S    
C27   O3    A    
Cu1   O1    S    
C48   H19   S    
C13   C15   A    
C14   C16   A    
C29   H36   S    
C26   O2    A    
C46   H17   S    
C19   N4    A    
C15   C17   A    
Cu3   O5    S    
C9    H27   S    
C50   C57   A    
C40   H11   S    
C5    C66   A    
C10   C13   A    
C30   H2    S    
C53   C58   A    
C56   H12   S    
C37   H8    S    
C46   C50   A    
C11   C62   S    
C33   C38   A    
C56   C59   A    
C60   C64   A    
C35   C57   A    
C15   H33   S    
C47   H18   S    
C1    C59   S    
C1    O14   A    
C7    C51   A    
Cu4   O17   S    
C28   O8    A    
Cu1   O18   S    
C39   H10   S    
C38   C40   A    
C63   O10   D    
Cu1   N3    S    
Cu4   O8    S    
C17   C19   A    
C18   C20   A    
C42   C47   A    
C2    H21   S    
C26   O6    A    
C21   N2    A    
C31   H3    S    
C62   H29   S    
C61   C65   A    
Cu1   O2    S    
C23   C61   S    
C16   C18   A    
C8    C27   S    
C31   C36   A    
Cu4   N2    S    
C51   C53   A    
C1    O1    A    
Cu2   O4    S    
