data_mof_unit_63729.cif
_audit_creation_date              2012-12-10T18:04:06-0500
_audit_creation_method            fapswitch 2.2
_symmetry_space_group_name_H-M    P1
_symmetry_Int_Tables_number       1
_space_group_crystal_system       triclinic
_cell_length_a                    18.366334
_cell_length_b                    30.681673
_cell_length_c                    30.813208
_cell_angle_alpha                 90.012944
_cell_angle_beta                  89.993564
_cell_angle_gamma                 89.968533
_cell_volume                      17363.5431697

loop_
_atom_site_label
_atom_site_type_symbol
_atom_type_description
_atom_site_fract_x
_atom_site_fract_y
_atom_site_fract_z
_atom_type_partial_charge
C1    C     C_R   0.499267 0.690691 0.309154 0.783370
C2    C     C_R   0.500994 0.690579 0.690809 0.780087
C3    C     C_R   0.001058 0.190574 0.309200 0.780852
C4    C     C_R   0.001057 0.190576 0.690803 0.781020
C5    C     C_R   0.998955 0.690576 0.809201 0.781740
C6    C     C_R   0.999205 0.690589 0.190809 0.782737
C7    C     C_R   0.500824 0.190583 0.809195 0.782790
C8    C     C_R   0.500819 0.190586 0.190807 0.780323
C9    C     C_R   0.555241 0.620819 0.400756 0.123205
C10   C     C_R   0.438246 0.615599 0.603888 0.141006
C11   C     C_R   0.938699 0.116297 0.396856 0.144764
C12   C     C_R   0.938712 0.116342 0.603107 0.145094
C13   C     C_R   0.061261 0.616291 0.896887 0.139760
C14   C     C_R   0.062148 0.614975 0.104449 0.137630
C15   C     C_R   0.437964 0.115254 0.895800 0.139381
C16   C     C_R   0.437963 0.115293 0.104172 0.139621
C17   C     C_3   0.627635 0.634433 0.417764 -0.431578
C18   C     C_3   0.392428 0.642182 0.573854 -0.441684
C19   C     C_3   0.894689 0.143379 0.427421 -0.452222
C20   C     C_3   0.894837 0.143453 0.572516 -0.450983
C21   C     C_3   0.105253 0.643352 0.927449 -0.448730
C22   C     C_3   0.109555 0.641083 0.074898 -0.444752
C23   C     C_3   0.391212 0.141580 0.925568 -0.447216
C24   C     C_3   0.391307 0.141643 0.074390 -0.446246
C25   C     C_3   0.625731 0.670401 0.382867 -0.463977
C26   C     C_3   0.394335 0.677977 0.607932 -0.462394
C27   C     C_3   0.896615 0.179147 0.393335 -0.456563
C28   C     C_3   0.896771 0.179229 0.606609 -0.458429
C29   C     C_3   0.103340 0.679112 0.893353 -0.449399
C30   C     C_3   0.107843 0.676821 0.109038 -0.453231
C31   C     C_3   0.392977 0.177330 0.891457 -0.458568
C32   C     C_3   0.393077 0.177399 0.108510 -0.461919
C33   C     C_R   0.455589 0.877846 0.158956 0.026369
C34   C     C_R   0.455568 0.877825 0.841062 0.026072
C35   C     C_R   0.049164 0.375616 0.157045 0.027425
C36   C     C_R   0.956318 0.378179 0.840752 0.026674
C37   C     C_R   0.038289 0.880417 0.661297 0.032825
C38   C     C_R   0.038225 0.880434 0.338678 0.032681
C39   C     C_R   0.538263 0.380433 0.661312 0.033114
C40   C     C_R   0.452813 0.376712 0.342001 0.028573
C41   C     C_R   0.502641 0.842562 0.157814 -0.109735
C42   C     C_R   0.502658 0.842561 0.842180 -0.109627
C43   C     C_R   0.998499 0.342214 0.157589 -0.105578
C44   C     C_R   0.002669 0.342570 0.842197 -0.108633
C45   C     C_R   0.998358 0.842287 0.657324 -0.112429
C46   C     C_R   0.998354 0.842286 0.342674 -0.111736
C47   C     C_R   0.498369 0.342290 0.657327 -0.112631
C48   C     C_R   0.501534 0.342238 0.342449 -0.105477
C49   C     C_R   0.552007 0.840048 0.122851 -0.192587
C50   C     C_R   0.552071 0.840072 0.877109 -0.192613
C51   C     C_R   0.946980 0.340831 0.123708 -0.188757
C52   C     C_R   0.051341 0.339737 0.877475 -0.194815
C53   C     C_R   0.958175 0.836285 0.618708 -0.184890
C54   C     C_R   0.958237 0.836267 0.381313 -0.185204
C55   C     C_R   0.458218 0.336278 0.618702 -0.185805
C56   C     C_R   0.551039 0.339822 0.377345 -0.189430
C57   C     C_R   0.552168 0.872628 0.090572 -0.195641
C58   C     C_R   0.552230 0.872655 0.909394 -0.195770
C59   C     C_R   0.946783 0.373429 0.091474 -0.195958
C60   C     C_R   0.051514 0.372320 0.909759 -0.198128
C61   C     C_R   0.957916 0.868841 0.586423 -0.204190
C62   C     C_R   0.957987 0.868825 0.413605 -0.204328
C63   C     C_R   0.457951 0.368836 0.586421 -0.204907
C64   C     C_R   0.551290 0.372430 0.409581 -0.200535
C65   C     C_R   0.500798 0.906875 0.092013 -0.041809
C66   C     C_R   0.500814 0.906876 0.907984 -0.041773
C67   C     C_R   0.999665 0.406824 0.092076 -0.046183
C68   C     C_R   0.000806 0.406894 0.907992 -0.041297
C69   C     C_R   0.999898 0.906918 0.591831 -0.031388
C70   C     C_R   0.999909 0.906918 0.408172 -0.031093
C71   C     C_R   0.499904 0.406922 0.591836 -0.033289
C72   C     C_R   0.500352 0.406867 0.407951 -0.041971
C73   C     C_R   0.452635 0.907625 0.126655 -0.028890
C74   C     C_R   0.452615 0.907606 0.873369 -0.028903
C75   C     C_R   0.050579 0.406097 0.125352 -0.026311
C76   C     C_R   0.953325 0.407979 0.873043 -0.031731
C77   C     C_R   0.040292 0.910872 0.629599 -0.037245
C78   C     C_R   0.040235 0.910893 0.370379 -0.037289
C79   C     C_R   0.540275 0.410885 0.629613 -0.037972
C80   C     C_R   0.451311 0.407189 0.373706 -0.028098
C81   C     C_3   0.388571 0.931179 0.145144 -0.564303
C82   C     C_3   0.388479 0.931116 0.854931 -0.564021
C83   C     C_3   0.113640 0.430198 0.144308 -0.565321
C84   C     C_3   0.890113 0.432005 0.854145 -0.562813
C85   C     C_3   0.088101 0.941317 0.654321 -0.573773
C86   C     C_3   0.087955 0.941361 0.345633 -0.573839
C87   C     C_3   0.587996 0.441359 0.654358 -0.572907
C88   C     C_3   0.390905 0.432694 0.353528 -0.568722
C89   C     C_R   0.360258 0.750058 0.249953 0.847597
C90   C     C_R   0.360263 0.750049 0.750038 0.862330
C91   C     C_R   0.639738 0.749971 0.250000 0.830624
C92   C     C_R   0.639734 0.749987 0.750015 0.817763
C93   C     C_R   0.860262 0.249980 0.250013 0.835695
C94   C     C_R   0.860263 0.250043 0.750034 0.862265
C95   C     C_R   0.139741 0.250067 0.249919 0.831137
C96   C     C_R   0.139733 0.249990 0.750018 0.817904
C97   C     C_R   0.860261 0.749986 0.750005 0.822190
C98   C     C_R   0.860266 0.749989 0.250002 0.822109
C99   C     C_R   0.139739 0.750058 0.749930 0.837667
C100  C     C_R   0.139735 0.750056 0.250064 0.836860
C101  C     C_R   0.360261 0.249978 0.750016 0.836360
C102  C     C_R   0.360263 0.250055 0.250047 0.842793
C103  C     C_R   0.639739 0.250066 0.749920 0.823610
C104  C     C_R   0.639733 0.249990 0.250017 0.820815
C105  C     C_3   0.391758 0.897149 0.182495 0.914295
C106  C     C_3   0.391667 0.897079 0.817571 0.914122
C107  C     C_3   0.112786 0.395145 0.180698 0.915951
C108  C     C_3   0.893336 0.397951 0.816799 0.914833
C109  C     C_3   0.086425 0.906531 0.690962 0.933070
C110  C     C_3   0.086274 0.906568 0.308984 0.932771
C111  C     C_3   0.586300 0.406581 0.691006 0.932814
C112  C     C_3   0.391853 0.397693 0.317072 0.918417
C113  C     C_R   0.500060 0.940413 0.940747 0.807093
C114  C     C_R   0.500055 0.940414 0.059255 0.807003
C115  C     C_R   0.000060 0.440425 0.940744 0.805739
C116  C     C_R   0.000002 0.440580 0.059460 0.809481
C117  C     C_R   0.000017 0.940665 0.440571 0.807431
C118  C     C_R   0.000013 0.940664 0.559430 0.807349
C119  C     C_R   0.500018 0.440604 0.440540 0.807667
C120  C     C_R   0.500014 0.440668 0.559434 0.808408
C121  C     C_R   0.499860 0.559157 0.440304 0.829610
C122  C     C_R   0.500000 0.559233 0.559816 0.824156
C123  C     C_R   0.999996 0.059246 0.440207 0.823612
C124  C     C_R   0.999990 0.059246 0.559792 0.823665
C125  C     C_R   0.999985 0.559261 0.940222 0.822599
C126  C     C_R   0.999970 0.559283 0.059776 0.825503
C127  C     C_R   0.500005 0.059268 0.940213 0.823320
C128  C     C_R   0.499998 0.059270 0.059785 0.823367
C129  C     C_R   0.500450 0.809349 0.190771 0.822916
C130  C     C_R   0.500456 0.809346 0.809226 0.823300
C131  C     C_R   0.999701 0.309293 0.190764 0.802308
C132  C     C_R   0.000458 0.309351 0.809230 0.822470
C133  C     C_R   0.999404 0.809342 0.690700 0.796194
C134  C     C_R   0.999400 0.809340 0.309298 0.795682
C135  C     C_R   0.499409 0.309343 0.690701 0.795935
C136  C     C_R   0.500338 0.309302 0.309244 0.800109
C137  C     C_1   0.282662 0.750101 0.249999 -0.151958
C138  C     C_1   0.282666 0.750097 0.749993 -0.162824
C139  C     C_1   0.717335 0.749954 0.249988 -0.166488
C140  C     C_1   0.717329 0.749966 0.750024 -0.155598
C141  C     C_1   0.782664 0.249973 0.250031 -0.164567
C142  C     C_1   0.782664 0.250088 0.749986 -0.153721
C143  C     C_1   0.217334 0.250097 0.249933 -0.151066
C144  C     C_1   0.217328 0.249973 0.750031 -0.164961
C145  C     C_1   0.782665 0.749969 0.750026 -0.154931
C146  C     C_1   0.782671 0.749965 0.249985 -0.162452
C147  C     C_1   0.217333 0.750099 0.749935 -0.174955
C148  C     C_1   0.217329 0.750099 0.250055 -0.167238
C149  C     C_1   0.282664 0.249972 0.750034 -0.167160
C150  C     C_1   0.282667 0.250096 0.249999 -0.154511
C151  C     C_1   0.717331 0.250094 0.749928 -0.162150
C152  C     C_1   0.717328 0.249973 0.250028 -0.161460
C153  C     C_R   0.553321 0.652502 0.370537 0.075868
C154  C     C_R   0.439948 0.648080 0.634793 0.062568
C155  C     C_R   0.940446 0.148763 0.365940 0.067598
C156  C     C_R   0.940469 0.148814 0.634025 0.066223
C157  C     C_R   0.059534 0.648746 0.865960 0.060205
C158  C     C_R   0.060600 0.647414 0.135407 0.061912
C159  C     C_R   0.439556 0.147704 0.864863 0.064640
C160  C     C_R   0.439562 0.147747 0.135115 0.064981
C161  C     C_R   0.495827 0.657396 0.341905 -0.181120
C162  C     C_R   0.503081 0.656591 0.658364 -0.177952
C163  C     C_R   0.003103 0.156588 0.341668 -0.179620
C164  C     C_R   0.003095 0.156588 0.658335 -0.178809
C165  C     C_R   0.996892 0.656604 0.841679 -0.180413
C166  C     C_R   0.997067 0.656640 0.158351 -0.179059
C167  C     C_R   0.502930 0.156625 0.841656 -0.178226
C168  C     C_R   0.502918 0.156627 0.158347 -0.177522
C169  C     C_R   0.436129 0.627924 0.345769 0.391437
C170  C     C_R   0.563506 0.627910 0.654033 0.393177
C171  C     C_R   0.062840 0.127305 0.345421 0.392889
C172  C     C_R   0.062767 0.127251 0.654626 0.393695
C173  C     C_R   0.937121 0.627390 0.845467 0.395236
C174  C     C_R   0.935847 0.628752 0.153327 0.394835
C175  C     C_R   0.563868 0.128425 0.846424 0.394139
C176  C     C_R   0.563811 0.128387 0.153610 0.393518
C177  C     C_R   0.438261 0.595432 0.378166 -0.199514
C178  C     C_R   0.561107 0.595196 0.622269 -0.201596
C179  C     C_R   0.060400 0.094617 0.377201 -0.200086
C180  C     C_R   0.060318 0.094557 0.622845 -0.200157
C181  C     C_R   0.939537 0.594717 0.877263 -0.199830
C182  C     C_R   0.938116 0.596073 0.121533 -0.188496
C183  C     C_R   0.561562 0.095744 0.878205 -0.195920
C184  C     C_R   0.561498 0.095701 0.121826 -0.196454
C185  C     C_R   0.498615 0.591620 0.406346 -0.186781
C186  C     C_R   0.499928 0.590580 0.595211 -0.189879
C187  C     C_R   0.999870 0.090624 0.404862 -0.188511
C188  C     C_R   0.999845 0.090619 0.595142 -0.188483
C189  C     C_R   0.000081 0.590665 0.904901 -0.189154
C190  C     C_R   0.999949 0.590696 0.095126 -0.192862
C191  C     C_R   0.499971 0.090665 0.904857 -0.192418
C192  C     C_R   0.499947 0.090665 0.095144 -0.192492
Cu1   Cu    Cu3+1 0.500000 0.780890 0.280900 0.974600
Cu2   Cu    Cu3+1 0.500000 0.780890 0.719100 0.973220
Cu3   Cu    Cu3+1 0.000000 0.280890 0.280900 0.992062
Cu4   Cu    Cu3+1 1.000000 0.280890 0.719100 0.972844
Cu5   Cu    Cu3+1 0.000000 0.780890 0.780900 0.990505
Cu6   Cu    Cu3+1 0.000000 0.780890 0.219100 0.990961
Cu7   Cu    Cu3+1 0.500000 0.280890 0.780900 0.990468
Cu8   Cu    Cu3+1 0.500000 0.280890 0.219100 0.995825
Cu9   Cu    Cu3+1 0.500000 0.719080 0.219090 0.986028
Cu10  Cu    Cu3+1 0.500000 0.719080 0.780910 0.982734
Cu11  Cu    Cu3+1 1.000000 0.219080 0.219090 0.971723
Cu12  Cu    Cu3+1 0.000000 0.219080 0.780910 0.982973
Cu13  Cu    Cu3+1 1.000000 0.719080 0.719090 0.971748
Cu14  Cu    Cu3+1 0.000000 0.719080 0.280910 0.972631
Cu15  Cu    Cu3+1 0.500000 0.219080 0.719090 0.971972
Cu16  Cu    Cu3+1 0.500000 0.219080 0.280910 0.971253
Cu17  Cu    Cu3+1 0.427490 0.999980 0.000000 0.950148
Cu18  Cu    Cu3+1 0.572510 0.999980 0.000000 0.957241
Cu19  Cu    Cu3+1 0.927490 0.499980 0.000000 0.961222
Cu20  Cu    Cu3+1 0.072510 0.499980 0.000000 0.946112
Cu21  Cu    Cu3+1 0.927490 0.999980 0.500000 0.955874
Cu22  Cu    Cu3+1 0.072510 0.999980 0.500000 0.955647
Cu23  Cu    Cu3+1 0.427490 0.499980 0.500000 0.952011
Cu24  Cu    Cu3+1 0.572510 0.499980 0.500000 0.952964
H1    H     H_    0.392636 0.573256 0.381159 0.182660
H2    H     H_    0.608270 0.574432 0.617822 0.185967
H3    H     H_    0.107070 0.073366 0.381180 0.184765
H4    H     H_    0.106942 0.073262 0.618895 0.184766
H5    H     H_    0.892845 0.573517 0.881264 0.184695
H6    H     H_    0.890390 0.575936 0.116563 0.189574
H7    H     H_    0.609096 0.075369 0.882976 0.188042
H8    H     H_    0.609002 0.075292 0.117075 0.187964
H9    H     H_    0.624281 0.647142 0.451492 0.193935
H10   H     H_    0.337349 0.627899 0.569301 0.203584
H11   H     H_    0.670278 0.609369 0.412012 0.207371
H12   H     H_    0.421385 0.650924 0.543368 0.192075
H13   H     H_    0.839337 0.129715 0.432631 0.203397
H14   H     H_    0.839464 0.129835 0.567265 0.203198
H15   H     H_    0.924913 0.151805 0.457545 0.184982
H16   H     H_    0.925150 0.151843 0.542414 0.184875
H17   H     H_    0.075027 0.651799 0.957581 0.185883
H18   H     H_    0.081669 0.650230 0.044181 0.186299
H19   H     H_    0.160605 0.629654 0.932660 0.202937
H20   H     H_    0.164299 0.626176 0.070803 0.202768
H21   H     H_    0.336335 0.126945 0.929865 0.201248
H22   H     H_    0.336411 0.127043 0.070063 0.201024
H23   H     H_    0.419551 0.150565 0.956185 0.186353
H24   H     H_    0.419714 0.150605 0.043788 0.186245
H25   H     H_    0.621729 0.703879 0.396454 0.205561
H26   H     H_    0.340370 0.684303 0.623016 0.198172
H27   H     H_    0.666916 0.665939 0.356800 0.201447
H28   H     H_    0.424397 0.707545 0.597248 0.211570
H29   H     H_    0.842381 0.186068 0.378876 0.199576
H30   H     H_    0.842522 0.186201 0.621033 0.198393
H31   H     H_    0.927906 0.208377 0.403689 0.210758
H32   H     H_    0.928154 0.208430 0.596280 0.210958
H33   H     H_    0.072034 0.708363 0.903697 0.212038
H34   H     H_    0.078995 0.706760 0.098145 0.211762
H35   H     H_    0.157581 0.686001 0.878899 0.200812
H36   H     H_    0.161586 0.682481 0.124636 0.201585
H37   H     H_    0.339129 0.183272 0.876085 0.198570
H38   H     H_    0.339214 0.183380 0.123861 0.197054
H39   H     H_    0.422317 0.207115 0.902267 0.211333
H40   H     H_    0.422485 0.207164 0.097722 0.210854
H41   H     H_    0.590526 0.813385 0.120735 0.153737
H42   H     H_    0.590621 0.813423 0.879197 0.153649
H43   H     H_    0.906519 0.315181 0.122571 0.154121
H44   H     H_    0.089325 0.312822 0.879834 0.151401
H45   H     H_    0.926178 0.807042 0.613864 0.158612
H46   H     H_    0.926286 0.807009 0.386171 0.157216
H47   H     H_    0.426243 0.307027 0.613849 0.159184
H48   H     H_    0.589970 0.313359 0.379275 0.152061
H49   H     H_    0.591018 0.870532 0.064201 0.150436
H50   H     H_    0.591110 0.870580 0.935745 0.150456
H51   H     H_    0.906163 0.372239 0.066020 0.156486
H52   H     H_    0.089833 0.369982 0.936378 0.150505
H53   H     H_    0.925834 0.864112 0.557302 0.142343
H54   H     H_    0.925958 0.864088 0.442748 0.142057
H55   H     H_    0.425878 0.364103 0.557299 0.146229
H56   H     H_    0.590380 0.370455 0.435828 0.151733
H57   H     H_    0.401395 0.965214 0.154654 0.178961
H58   H     H_    0.401227 0.965157 0.845421 0.178972
H59   H     H_    0.340011 0.927940 0.123857 0.201971
H60   H     H_    0.339958 0.927851 0.876251 0.201958
H61   H     H_    0.162428 0.429291 0.123024 0.189685
H62   H     H_    0.903817 0.465947 0.844747 0.180496
H63   H     H_    0.097579 0.463334 0.155360 0.193623
H64   H     H_    0.841086 0.429121 0.875104 0.202275
H65   H     H_    0.142077 0.945790 0.638690 0.194171
H66   H     H_    0.141949 0.945869 0.361227 0.194179
H67   H     H_    0.059188 0.972110 0.662420 0.192143
H68   H     H_    0.058979 0.972137 0.337562 0.192158
H69   H     H_    0.641994 0.445856 0.638761 0.194445
H70   H     H_    0.409581 0.465476 0.342940 0.194454
H71   H     H_    0.559024 0.472139 0.662433 0.191979
H72   H     H_    0.340870 0.432825 0.373776 0.190413
O1    O     O_R   0.500000 0.731000 0.321180 -0.585226
O2    O     O_R   0.500000 0.731000 0.678820 -0.586923
O3    O     O_R   0.000000 0.231000 0.321180 -0.588731
O4    O     O_R   0.000000 0.231000 0.678820 -0.587163
O5    O     O_R   1.000000 0.731000 0.821180 -0.586051
O6    O     O_R   0.000000 0.731000 0.178820 -0.586338
O7    O     O_R   0.500000 0.231000 0.821180 -0.585838
O8    O     O_R   0.500000 0.231000 0.178820 -0.587705
O9    O     O_R   0.500000 0.678810 0.268980 -0.578619
O10   O     O_R   0.500000 0.678810 0.731020 -0.580020
O11   O     O_R   0.000000 0.178810 0.268980 -0.577812
O12   O     O_R   1.000000 0.178810 0.731020 -0.579237
O13   O     O_R   1.000000 0.678810 0.768980 -0.578369
O14   O     O_R   1.000000 0.678810 0.231020 -0.577394
O15   O     O_R   0.500000 0.178810 0.768980 -0.578412
O16   O     O_R   0.500000 0.178810 0.231020 -0.578466
O17   O     O_R   0.394200 0.776090 0.276090 -0.576396
O18   O     O_R   0.394200 0.776090 0.723910 -0.577857
O19   O     O_R   0.605800 0.776090 0.276090 -0.587797
O20   O     O_R   0.605800 0.776090 0.723910 -0.585500
O21   O     O_R   0.894200 0.276090 0.276090 -0.584000
O22   O     O_R   0.894200 0.276090 0.723910 -0.580016
O23   O     O_R   0.105800 0.276090 0.276090 -0.570697
O24   O     O_R   0.105800 0.276090 0.723910 -0.583833
O25   O     O_R   0.894200 0.776090 0.776090 -0.581413
O26   O     O_R   0.894200 0.776090 0.223910 -0.579463
O27   O     O_R   0.105800 0.776090 0.776090 -0.574805
O28   O     O_R   0.105800 0.776090 0.223910 -0.576542
O29   O     O_R   0.394200 0.276090 0.776090 -0.584082
O30   O     O_R   0.394200 0.276090 0.223910 -0.572301
O31   O     O_R   0.605800 0.276090 0.776090 -0.572195
O32   O     O_R   0.605800 0.276090 0.223910 -0.579278
O33   O     O_R   0.394210 0.723900 0.223890 -0.584259
O34   O     O_R   0.394210 0.723900 0.776110 -0.581383
O35   O     O_R   0.605790 0.723900 0.223890 -0.576740
O36   O     O_R   0.605790 0.723900 0.776110 -0.580148
O37   O     O_R   0.894210 0.223900 0.223890 -0.575964
O38   O     O_R   0.894210 0.223900 0.776110 -0.573359
O39   O     O_R   0.105790 0.223900 0.223890 -0.592897
O40   O     O_R   0.105790 0.223900 0.776110 -0.587834
O41   O     O_R   0.894210 0.723900 0.723890 -0.579042
O42   O     O_R   0.894210 0.723900 0.276110 -0.585531
O43   O     O_R   0.105790 0.723900 0.723890 -0.586537
O44   O     O_R   0.105790 0.723900 0.276110 -0.580045
O45   O     O_R   0.394210 0.223900 0.723890 -0.576794
O46   O     O_R   0.394210 0.223900 0.276110 -0.583099
O47   O     O_R   0.605790 0.223900 0.723890 -0.588486
O48   O     O_R   0.605790 0.223900 0.276110 -0.586166
O49   O     O_R   0.500000 0.821170 0.231010 -0.580131
O50   O     O_R   0.500000 0.821170 0.768990 -0.579927
O51   O     O_R   1.000000 0.321170 0.231010 -0.546943
O52   O     O_R   0.000000 0.321170 0.768990 -0.579587
O53   O     O_R   0.000000 0.821170 0.731010 -0.546463
O54   O     O_R   0.000000 0.821170 0.268990 -0.546586
O55   O     O_R   0.500000 0.321170 0.731010 -0.546776
O56   O     O_R   0.500000 0.321170 0.268990 -0.546060
O57   O     O_R   0.500000 0.768980 0.178810 -0.582463
O58   O     O_R   0.500000 0.768980 0.821190 -0.582585
O59   O     O_R   0.000000 0.268980 0.178810 -0.597693
O60   O     O_R   0.000000 0.268980 0.821190 -0.583068
O61   O     O_R   0.000000 0.768980 0.678810 -0.596812
O62   O     O_R   0.000000 0.768980 0.321190 -0.596590
O63   O     O_R   0.500000 0.268980 0.678810 -0.596815
O64   O     O_R   0.500000 0.268980 0.321190 -0.597799
O65   O     O_R   0.438730 0.954890 0.954890 -0.579574
O66   O     O_R   0.438730 0.954890 0.045110 -0.579554
O67   O     O_R   0.561270 0.954890 0.954890 -0.594186
O68   O     O_R   0.561270 0.954890 0.045110 -0.594182
O69   O     O_R   0.938730 0.454890 0.954890 -0.581625
O70   O     O_R   0.938730 0.454890 0.045110 -0.588714
O71   O     O_R   0.061270 0.454890 0.954890 -0.593322
O72   O     O_R   0.061270 0.454890 0.045110 -0.586622
O73   O     O_R   0.938730 0.954890 0.454890 -0.588868
O74   O     O_R   0.938730 0.954890 0.545110 -0.588759
O75   O     O_R   0.061270 0.954890 0.454890 -0.585605
O76   O     O_R   0.061270 0.954890 0.545110 -0.585659
O77   O     O_R   0.438730 0.454890 0.454890 -0.587277
O78   O     O_R   0.438730 0.454890 0.545110 -0.587442
O79   O     O_R   0.561270 0.454890 0.454890 -0.588985
O80   O     O_R   0.561270 0.454890 0.545110 -0.587251
O81   O     O_R   0.438760 0.545060 0.454900 -0.593343
O82   O     O_R   0.438760 0.545060 0.545100 -0.579786
O83   O     O_R   0.561240 0.545060 0.454900 -0.580865
O84   O     O_R   0.561240 0.545060 0.545100 -0.591578
O85   O     O_R   0.938760 0.045060 0.454900 -0.581753
O86   O     O_R   0.938760 0.045060 0.545100 -0.581806
O87   O     O_R   0.061240 0.045060 0.454900 -0.588428
O88   O     O_R   0.061240 0.045060 0.545100 -0.588350
O89   O     O_R   0.938760 0.545060 0.954900 -0.588049
O90   O     O_R   0.938760 0.545060 0.045100 -0.586309
O91   O     O_R   0.061240 0.545060 0.954900 -0.582839
O92   O     O_R   0.061240 0.545060 0.045100 -0.584298
O93   O     O_R   0.438760 0.045060 0.954900 -0.585236
O94   O     O_R   0.438760 0.045060 0.045100 -0.585279
O95   O     O_R   0.561240 0.045060 0.954900 -0.586054
O96   O     O_R   0.561240 0.045060 0.045100 -0.586116
O97   O     O_3   0.374839 0.629853 0.319842 -0.723894
H73   H     H_    0.376326 0.656400 0.301679 0.320831
O98   O     O_3   0.626768 0.631735 0.678022 -0.717723
H74   H     H_    0.624823 0.658261 0.696206 0.322810
O99   O     O_3   0.125568 0.130513 0.320845 -0.723865
H75   H     H_    0.124135 0.157244 0.302957 0.320095
O100  O     O_3   0.125447 0.130411 0.679244 -0.722813
H76   H     H_    0.124067 0.157168 0.697107 0.321803
O101  O     O_3   0.874386 0.630651 0.820907 -0.716025
H77   H     H_    0.875853 0.657362 0.802992 0.322990
O102  O     O_3   0.872034 0.633319 0.176679 -0.717475
H78   H     H_    0.874529 0.659594 0.195195 0.320464
O103  O     O_3   0.627486 0.132691 0.822838 -0.719117
H79   H     H_    0.625199 0.159065 0.804461 0.321198
O104  O     O_3   0.627397 0.132618 0.177226 -0.719867
H80   H     H_    0.625147 0.159013 0.195586 0.321060
O105  O     O_3   0.405514 0.914407 0.224950 -0.587454
C193  C     C_3   0.475624 0.932759 0.230439 -0.333867
H81   H     H_    0.488754 0.957379 0.205276 0.152693
H82   H     H_    0.518047 0.907007 0.231224 0.185012
H83   H     H_    0.477165 0.949630 0.262259 0.199693
O106  O     O_3   0.405323 0.914334 0.775109 -0.587503
C194  C     C_3   0.475389 0.932733 0.769575 -0.333797
H84   H     H_    0.517863 0.907012 0.768762 0.185118
H85   H     H_    0.488507 0.957373 0.794731 0.152695
H86   H     H_    0.476851 0.949592 0.737755 0.199695
O107  O     O_3   0.332774 0.867392 0.181929 -0.608783
C195  C     C_3   0.270435 0.886069 0.201243 -0.217538
H87   H     H_    0.257512 0.918695 0.187495 0.132381
H88   H     H_    0.277061 0.888224 0.237028 0.227357
H89   H     H_    0.223161 0.864518 0.194827 0.185539
O108  O     O_3   0.332738 0.867284 0.818173 -0.608923
C196  C     C_3   0.270338 0.885911 0.798901 -0.217546
H90   H     H_    0.276900 0.888042 0.763110 0.227420
H91   H     H_    0.257388 0.918541 0.812648 0.132350
H92   H     H_    0.223107 0.864340 0.805359 0.185621
O109  O     O_3   0.177634 0.369324 0.184064 -0.596040
C197  C     C_3   0.187153 0.338709 0.150227 -0.372256
H93   H     H_    0.181585 0.353726 0.117605 0.160683
H94   H     H_    0.148746 0.311038 0.154024 0.168080
H95   H     H_    0.243041 0.325186 0.152525 0.208581
O110  O     O_3   0.908255 0.415109 0.774450 -0.585803
C198  C     C_3   0.978840 0.432940 0.769442 -0.332337
H96   H     H_    0.020739 0.406874 0.768920 0.183052
H97   H     H_    0.991994 0.457457 0.794709 0.152028
H98   H     H_    0.981339 0.449803 0.737646 0.199698
O111  O     O_3   0.089727 0.411823 0.221330 -0.579952
C199  C     C_3   0.147766 0.432944 0.242794 -0.236138
H99   H     H_    0.177420 0.455996 0.221233 0.136048
H100  H     H_    0.186073 0.408594 0.256655 0.213768
H101  H     H_    0.125206 0.452115 0.270198 0.174164
O112  O     O_3   0.833750 0.368623 0.816949 -0.608791
C200  C     C_3   0.772159 0.387755 0.797247 -0.213466
H102  H     H_    0.779515 0.389904 0.761512 0.226358
H103  H     H_    0.759605 0.420455 0.810960 0.134599
H104  H     H_    0.724353 0.366526 0.803310 0.186420
O113  O     O_3   0.155763 0.888296 0.702217 -0.608935
C201  C     C_3   0.184639 0.859161 0.671093 -0.379124
H105  H     H_    0.185090 0.873329 0.637928 0.167639
H106  H     H_    0.154487 0.827804 0.671546 0.163461
H107  H     H_    0.241896 0.851871 0.679963 0.209841
O114  O     O_3   0.155621 0.888369 0.297677 -0.609728
C202  C     C_3   0.184592 0.859259 0.328775 -0.376604
H108  H     H_    0.154487 0.827886 0.328339 0.164209
H109  H     H_    0.185076 0.873437 0.361942 0.167809
H110  H     H_    0.241846 0.851998 0.319863 0.210249
O115  O     O_3   0.046310 0.920141 0.727842 -0.581070
C203  C     C_3   0.088500 0.948084 0.754158 -0.243380
H111  H     H_    0.114649 0.974689 0.735222 0.155691
H112  H     H_    0.130299 0.929225 0.772210 0.178336
H113  H     H_    0.052192 0.963552 0.778464 0.173990
O116  O     O_3   0.046081 0.920150 0.272136 -0.580990
C204  C     C_3   0.088194 0.948105 0.245793 -0.243426
H114  H     H_    0.129987 0.929259 0.227708 0.178360
H115  H     H_    0.114340 0.974726 0.264716 0.155614
H116  H     H_    0.051826 0.963550 0.221518 0.173940
O117  O     O_3   0.655641 0.388387 0.702318 -0.608734
C205  C     C_3   0.684626 0.359262 0.671221 -0.380225
H117  H     H_    0.685129 0.373425 0.638054 0.167245
H118  H     H_    0.654518 0.327890 0.671655 0.163750
H119  H     H_    0.741875 0.352002 0.680135 0.209275
O118  O     O_3   0.418325 0.413917 0.277017 -0.578504
C206  C     C_3   0.362986 0.436473 0.254468 -0.237155
H120  H     H_    0.333577 0.460142 0.275510 0.141015
H121  H     H_    0.323985 0.413100 0.239696 0.206324
H122  H     H_    0.388365 0.455185 0.227650 0.174919
O119  O     O_3   0.546086 0.420180 0.727852 -0.582735
C207  C     C_3   0.588171 0.448160 0.754189 -0.241042
H123  H     H_    0.614393 0.474743 0.735259 0.157493
H124  H     H_    0.629900 0.429323 0.772320 0.178840
H125  H     H_    0.551768 0.463655 0.778426 0.173539
O120  O     O_3   0.325735 0.373350 0.312229 -0.599220
C208  C     C_3   0.312381 0.342880 0.345712 -0.367824
H126  H     H_    0.316878 0.357688 0.378493 0.161119
H127  H     H_    0.349327 0.314391 0.342617 0.167395
H128  H     H_    0.255900 0.330603 0.342170 0.210854

loop_
_geom_bond_atom_site_label_1
_geom_bond_atom_site_label_2
_ccdc_geom_bond_type
C97   O25   A    
C198  H96   S    
C8    O16   A    
Cu6   Cu14  S    
C135  O63   A    
C204  H114  S    
C34   C42   A    
Cu8   O32   S    
C10   C154  A    
C79   C87   S    
C112  O120  S    
C200  H102  S    
C54   H46   S    
C107  O111  S    
Cu14  O62   S    
C39   C47   A    
C105  O107  S    
C87   H71   S    
C83   H63   S    
C88   H72   S    
C205  H118  S    
Cu18  O95   S    
Cu23  O81   S    
Cu20  O92   S    
C70   C117  S    
Cu10  O34   S    
Cu1   Cu9   S    
C62   C70   A    
C176  C184  A    
C194  H86   S    
Cu8   O30   S    
Cu20  O71   S    
C99   C147  S    
C8    C168  S    
C90   C138  S    
C22   H18   S    
C94   O38   A    
C18   C26   S    
C82   H58   S    
Cu19  O70   S    
Cu4   Cu12  S    
C37   C109  S    
C24   H24   S    
C184  H8    S    
C179  H3    S    
C39   C111  S    
Cu8   Cu16  S    
Cu23  O78   S    
C85   H65   S    
C121  O81   A    
C73   C81   S    
Cu5   O5    S    
C113  O67   A    
C117  O75   A    
C181  H5    S    
C34   C106  S    
C126  O92   A    
Cu12  O40   S    
Cu1   O1    S    
C20   C28   S    
Cu24  O79   S    
C21   C29   S    
C153  C161  A    
C134  O62   A    
C23   C31   S    
C142  C151  T    
Cu23  Cu24  S    
C24   C32   S    
C27   H31   S    
C46   C134  S    
C129  O57   A    
C133  O53   A    
C12   C20   S    
C1    O1    A    
C98   O26   A    
C19   H13   S    
C3    O11   A    
C62   H54   S    
C33   C73   A    
C199  H99   S    
C206  H121  S    
C63   C71   A    
C169  C177  A    
Cu11  O11   S    
O99   H75   S    
C204  H116  S    
C36   C44   A    
Cu2   O50   S    
C37   C45   A    
O98   H74   S    
C125  O89   A    
O112  C200  S    
C175  C183  A    
C200  H104  S    
Cu13  O61   S    
C40   C48   A    
C15   C191  A    
C86   C110  S    
C97   C145  S    
C87   H69   S    
C177  H1    S    
C83   H61   S    
C140  C145  T    
C44   C132  S    
O101  H77   S    
C45   C133  S    
C59   H51   S    
C17   C25   S    
O108  C196  S    
C104  C152  S    
Cu9   O35   S    
C80   C88   S    
C10   C18   S    
Cu15  O47   S    
Cu13  O43   S    
C43   C131  S    
C159  C167  A    
C160  C168  A    
C35   C107  S    
Cu21  O74   S    
C178  C186  A    
Cu5   O53   S    
C208  H127  S    
O118  C206  S    
C85   H67   S    
C121  O83   A    
C86   H68   S    
C4    O12   A    
Cu17  O93   S    
C170  C178  A    
C5    O13   A    
C91   O19   A    
C97   O41   A    
Cu2   Cu10  S    
Cu16  O46   S    
O109  C197  S    
C66   C113  S    
C16   C160  A    
C25   H27   S    
C137  C148  T    
C69   C77   A    
C126  O90   A    
C105  O105  S    
C2    C162  S    
Cu24  O83   S    
C71   C79   A    
O105  C193  S    
C40   C112  S    
O117  C205  S    
C100  O44   A    
Cu4   O22   S    
C144  C149  T    
C195  H87   S    
C108  O110  S    
C27   H29   S    
C89   C137  S    
C122  C186  S    
C114  O68   A    
O104  H80   S    
C52   H44   S    
C118  O76   A    
C49   C57   A    
C123  O85   A    
C126  C190  S    
C63   H55   S    
Cu13  O13   S    
C64   H56   S    
C59   C67   A    
C53   C61   A    
C199  H101  S    
C176  O104  S    
O116  C204  S    
C84   H62   S    
C56   C64   A    
Cu3   O51   S    
C2    O2    A    
C180  C188  A    
C11   C155  A    
C161  C169  A    
C44   C52   A    
C173  O101  S    
C77   C85   S    
C49   H41   S    
Cu7   O7    S    
Cu8   O8    S    
C171  C179  A    
Cu1   O17   S    
C12   C156  A    
C106  O108  S    
C13   C157  A    
C196  H91   S    
C53   H45   S    
Cu4   O4    S    
C81   C105  S    
Cu17  O66   S    
C94   C142  S    
C207  H123  S    
C131  O59   A    
C157  C165  A    
C124  C188  S    
C50   H42   S    
C155  C163  A    
Cu15  O45   S    
C98   O42   A    
C127  C191  S    
Cu13  O41   S    
C128  C192  S    
C29   H33   S    
C67   C116  S    
Cu2   O2    S    
Cu9   O33   S    
O111  C199  S    
Cu11  O59   S    
Cu17  Cu18  S    
C86   H66   S    
C28   H30   S    
C123  O87   A    
C95   O23   A    
C42   C50   A    
Cu16  O48   S    
C111  O119  S    
Cu6   O6    S    
C197  H93   S    
C164  C172  A    
C67   C75   A    
C163  C171  A    
C108  O112  S    
C167  C175  A    
C193  H81   S    
C168  C176  A    
C7    C167  S    
Cu4   O24   S    
C122  O84   A    
C22   C30   S    
C47   C135  S    
C23   H23   S    
C154  C162  A    
C195  H89   S    
Cu14  O44   S    
C174  O102  S    
C136  O56   A    
C90   O34   A    
Cu15  O63   S    
C103  C151  S    
C114  O66   A    
C182  C190  A    
C118  O74   A    
C31   H39   S    
C120  O78   A    
C14   C22   S    
C99   O27   A    
C72   C80   A    
O103  H79   S    
C87   C111  S    
C17   H11   S    
C205  H119  S    
Cu18  O96   S    
C101  O45   A    
Cu7   O55   S    
C84   H64   S    
C10   C186  A    
C103  O47   A    
C194  H85   S    
Cu20  O72   S    
C130  O50   A    
C115  O69   A    
C173  C181  A    
O115  C203  S    
C14   C190  A    
C52   C60   A    
C197  H95   S    
C183  H7    S    
C32   H38   S    
C171  O99   S    
C34   C74   A    
Cu1   O19   S    
C109  O113  S    
C201  H105  S    
Cu2   O20   S    
C110  O114  S    
C141  C152  T    
C112  O118  S    
Cu10  O58   S    
C128  O94   A    
C6    C166  S    
C139  C146  T    
C95   C143  S    
Cu23  O77   S    
C102  O46   A    
Cu5   Cu13  S    
C134  O54   A    
C207  H125  S    
C76   C84   S    
C172  O100  S    
C181  C189  A    
Cu21  Cu22  S    
C11   C19   S    
O114  C202  S    
C29   H35   S    
C1    O9    A    
C60   H52   S    
C85   C109  S    
C104  O48   A    
Cu19  O90   S    
Cu21  O86   S    
C179  C187  A    
O110  C198  S    
Cu9   O9    S    
Cu24  O80   S    
C69   C118  S    
C177  C185  A    
C30   C158  S    
C28   H32   S    
C41   C49   A    
Cu12  O12   S    
C6    O14   A    
C115  O71   A    
C21   H17   S    
Cu14  O42   S    
C132  O60   A    
C184  C192  A    
C38   C110  S    
C91   O35   A    
Cu18  O67   S    
Cu22  O75   S    
C3    C163  S    
C172  C180  A    
C199  H100  S    
C1    C161  S    
C122  O82   A    
Cu20  O91   S    
C204  H115  S    
C174  C182  A    
C74   C82   S    
C203  H113  S    
C61   H53   S    
O120  C208  S    
C100  O28   A    
C48   C136  S    
C101  O29   A    
C200  H103  S    
C27   C155  S    
C182  H6    S    
C103  O31   A    
C31   H37   S    
C25   C153  S    
C202  H108  S    
C50   C58   A    
C20   H14   S    
Cu7   Cu15  S    
Cu14  O14   S    
Cu6   O26   S    
C205  H117  S    
C203  H111  S    
Cu23  O82   S    
C29   C157  S    
C54   C62   A    
C116  O70   A    
C127  O93   A    
C95   O39   A    
C93   O21   A    
C135  O55   A    
C100  C148  S    
C39   C79   A    
O119  C207  S    
C4    O4    A    
C15   C159  A    
C208  H126  S    
C89   O17   A    
Cu16  O64   S    
C198  H97   S    
Cu19  Cu20  S    
C162  C170  A    
C46   C54   A    
C26   H26   S    
C33   C105  S    
Cu7   O29   S    
C169  O97   S    
Cu2   O18   S    
C119  O79   A    
Cu3   O23   S    
C96   O24   A    
Cu21  O73   S    
C88   C112  S    
Cu8   O56   S    
C25   H25   S    
C26   C154  S    
C124  O86   A    
C11   C187  A    
C68   C76   A    
Cu4   O52   S    
C93   C141  S    
C158  C166  A    
O97   H73   S    
C129  O49   A    
C51   H43   S    
C178  H2    S    
C57   C65   A    
C18   H10   S    
Cu24  O84   S    
O102  H78   S    
Cu11  O39   S    
C38   C78   A    
C166  C174  A    
Cu1   O49   S    
C33   C41   A    
C195  H88   S    
C202  H110  S    
C89   O33   A    
C96   O40   A    
C75   C83   S    
C21   H19   S    
C37   C77   A    
C43   C51   A    
C84   C108  S    
C30   H36   S    
C81   H57   S    
Cu10  O36   S    
C68   C115  S    
C110  O116  S    
Cu6   O54   S    
Cu3   O3    S    
C206  H122  S    
C36   C108  S    
C60   C68   A    
O107  C195  S    
O106  C194  S    
C92   O20   A    
C92   O36   A    
C66   C74   A    
C133  O61   A    
C170  O98   S    
C20   H16   S    
C70   C78   A    
C65   C114  S    
C3    O3    A    
C35   C43   A    
C202  H109  S    
C196  H90   S    
C13   C189  A    
Cu9   O57   S    
O100  H76   S    
C116  O72   A    
C35   C75   A    
C2    O10   A    
Cu17  O65   S    
C71   C120  S    
C55   H47   S    
C56   H48   S    
C207  H124  S    
C208  H128  S    
C9    C185  A    
C23   H21   S    
C127  O95   A    
C96   C144  S    
C165  C173  A    
C12   C188  A    
Cu5   O25   S    
C65   C73   A    
C101  C149  S    
C119  O77   A    
C36   C76   A    
C58   C66   A    
C143  C150  T    
C7    O15   A    
C16   C192  A    
C124  O88   A    
Cu22  O88   S    
C194  H84   S    
C40   C80   A    
C5    C165  S    
Cu17  O94   S    
Cu3   O21   S    
C136  O64   A    
C78   C86   S    
C82   C106  S    
C57   H49   S    
C16   C24   S    
C197  H94   S    
C32   H40   S    
C17   H9    S    
C120  O80   A    
C19   C27   S    
C109  O115  S    
C193  H82   S    
Cu11  O37   S    
C198  H98   S    
Cu10  O10   S    
C38   C46   A    
C13   C21   S    
C104  O32   A    
C131  O51   A    
Cu15  O15   S    
C6    O6    A    
Cu16  O16   S    
C203  H112  S    
C130  O58   A    
C7    O7    A    
C98   C146  S    
C99   O43   A    
C121  C185  S    
C9    C153  A    
C30   H34   S    
C55   C63   A    
C81   H59   S    
Cu5   O27   S    
C82   H60   S    
C107  O109  S    
Cu22  O87   S    
C106  O106  S    
C88   H70   S    
C193  H83   S    
C175  O103  S    
C206  H120  S    
C138  C147  T    
C58   H50   S    
C4    C164  S    
C42   C130  S    
C18   H12   S    
C22   H20   S    
C5    O5    A    
C9    C17   S    
C102  O30   A    
C102  C150  S    
C91   C139  S    
C180  H4    S    
C51   C59   A    
C201  H106  S    
C125  O91   A    
C196  H92   S    
C24   H22   S    
C47   C55   A    
C61   C69   A    
C48   C56   A    
C94   O22   A    
C128  O96   A    
C183  C191  A    
C93   O37   A    
C90   O18   A    
Cu21  O85   S    
Cu19  O69   S    
C111  O117  S    
C113  O65   A    
C132  O52   A    
Cu6   O28   S    
Cu7   O31   S    
C201  H107  S    
Cu12  O38   S    
Cu19  O89   S    
C41   C129  S    
O113  C201  S    
Cu18  O68   S    
Cu12  O60   S    
C72   C119  S    
C15   C23   S    
C8    O8    A    
C83   C107  S    
C26   H28   S    
C64   C72   A    
C123  C187  S    
C31   C159  S    
C14   C158  A    
C45   C53   A    
C156  C164  A    
C28   C156  S    
C125  C189  S    
C19   H15   S    
C117  O73   A    
Cu22  O76   S    
Cu3   Cu11  S    
C32   C160  S    
C92   C140  S    
