data_mof_unit_52573.cif
_audit_creation_date              2012-12-11T15:41:26-0500
_audit_creation_method            fapswitch 2.2
_symmetry_space_group_name_H-M    P1
_symmetry_Int_Tables_number       1
_space_group_crystal_system       triclinic
_cell_length_a                    14.888785
_cell_length_b                    14.868445
_cell_length_c                    14.945265
_cell_angle_alpha                 109.127051
_cell_angle_beta                  109.792258
_cell_angle_gamma                 109.275122
_cell_volume                      2553.66484604

loop_
_atom_site_label
_atom_site_type_symbol
_atom_type_description
_atom_site_fract_x
_atom_site_fract_y
_atom_site_fract_z
_atom_type_partial_charge
C1    C     C_R   0.194809 0.994755 0.904322 -0.116187
C2    C     C_R   0.827807 0.899830 0.418158 -0.116753
C3    C     C_R   0.197236 0.311604 0.957820 -0.231420
C4    C     C_R   0.725961 0.804857 0.342178 -0.196011
C5    C     C_R   0.298036 0.349855 0.049208 -0.025993
C6    C     C_R   0.712422 0.725926 0.247838 -0.036590
C7    C     C_R   0.298093 0.310744 0.123781 0.487528
C8    C     C_R   0.802848 0.743525 0.230432 0.451935
C9    C     C_R   0.198683 0.236221 0.106583 -0.176578
C10   C     C_R   0.904390 0.839196 0.306943 -0.206453
C11   C     C_R   0.099346 0.201071 0.016973 -0.162628
C12   C     C_R   0.751803 0.936167 0.030367 -0.122542
C13   C     C_R   0.916865 0.916941 0.400581 -0.164795
C14   C     C_R   0.405388 0.533475 0.076037 -0.238054
C15   C     C_R   0.598757 0.526510 0.158442 -0.121091
C16   C     C_R   0.753611 0.221585 0.315056 -0.110760
C17   C     C_R   0.195563 0.791602 0.700735 -0.139841
C18   C     C_R   0.505683 0.623549 0.112684 0.037903
C19   C     C_R   0.497567 0.429341 0.093174 0.092861
C20   C     C_R   0.604212 0.625046 0.170626 0.097393
C21   C     C_R   0.400896 0.436474 0.070462 0.081552
C22   C     C_R   0.877922 0.527759 0.430822 -0.137937
C23   C     C_R   0.787882 0.325663 0.327732 0.053720
C24   C     C_R   0.968669 0.522076 0.624169 -0.159573
C25   C     C_R   0.964675 0.622709 0.525328 -0.161674
C26   C     C_R   0.882537 0.427147 0.529624 -0.150742
C27   C     C_R   0.017994 0.616943 0.618894 0.130520
C28   C     C_R   0.845765 0.427715 0.430396 0.145261
C29   C     C_R   0.597443 0.948466 0.570073 -0.149819
C30   C     C_R   0.398800 0.843350 0.375978 -0.155440
C31   C     C_R   0.597993 0.941860 0.476000 -0.181663
C32   C     C_R   0.398297 0.851504 0.470515 -0.152812
C33   C     C_R   0.498679 0.899681 0.381750 0.133430
C34   C     C_R   0.132439 0.698752 0.699810 0.049720
C35   C     C_R   0.497767 0.915073 0.570002 0.144268
C36   C     C_R   0.968720 0.842333 0.947511 -0.154516
C37   C     C_R   0.869748 0.935699 0.842744 -0.175734
C38   C     C_R   0.880804 0.848715 0.954537 -0.136659
C39   C     C_R   0.958771 0.930315 0.836563 -0.153062
C40   C     C_R   0.407961 0.905512 0.208429 -0.108317
C41   C     C_R   0.589882 0.038914 0.774313 -0.114936
C42   C     C_R   0.840421 0.907775 0.913598 0.126775
C43   C     C_R   0.016181 0.895448 0.900000 0.124336
C44   C     C_R   0.588795 0.315463 0.053756 -0.097310
C45   C     C_R   0.499196 0.932848 0.300473 0.045270
C46   C     C_R   0.410727 0.701466 0.007522 -0.123613
C47   C     C_R   0.590910 0.994747 0.299236 -0.132206
C48   C     C_R   0.406684 0.938396 0.684969 -0.122619
C49   C     C_R   0.405862 0.221851 0.969050 -0.114532
C50   C     C_R   0.592939 0.793568 0.097675 -0.107890
C51   C     C_R   0.764832 0.315706 0.225796 -0.122001
C52   C     C_R   0.197232 0.699607 0.791897 -0.118523
C53   C     C_R   0.197362 0.905303 0.997914 -0.109673
C54   C     C_R   0.762166 0.035507 0.946445 -0.127312
C55   C     C_R   0.131788 0.932106 0.933976 0.041633
C56   C     C_R   0.498058 0.959902 0.672439 0.041063
C57   C     C_R   0.784152 0.955324 0.958918 0.039904
C58   C     C_R   0.496488 0.325723 0.042320 0.090499
C59   C     C_R   0.503582 0.702318 0.073531 0.081847
C60   C     C_R   0.098558 0.237426 0.941840 -0.109094
Cl1   Cl    Cl    0.419554 0.357837 0.243150 -0.666344
Cl2   Cl    Cl    0.790184 0.650791 0.111255 -0.727212
H1    H     H_    0.165944 0.017896 0.843520 0.086042
H2    H     H_    0.674471 0.525953 0.196630 0.129936
H3    H     H_    0.844174 0.531947 0.356796 0.115862
H4    H     H_    0.003070 0.516668 0.697222 0.108674
H5    H     H_    0.995970 0.696782 0.520705 0.115120
H6    H     H_    0.853679 0.352439 0.533579 0.108834
H7    H     H_    0.675597 0.989697 0.644261 0.099477
H8    H     H_    0.320503 0.803426 0.302455 0.111328
H9    H     H_    0.676621 0.980309 0.481600 0.102484
H10   H     H_    0.319727 0.817475 0.466335 0.111864
H11   H     H_    0.005917 0.807110 0.990561 0.123616
H12   H     H_    0.759177 0.881402 0.061307 0.114415
H13   H     H_    0.833311 0.973395 0.802529 0.105508
H14   H     H_    0.761202 0.197831 0.376921 0.091953
H15   H     H_    0.167398 0.824611 0.649560 0.086872
H16   H     H_    0.854114 0.818230 0.002605 0.151716
H17   H     H_    0.988907 0.964830 0.792482 0.111552
H18   H     H_    0.323244 0.847029 0.175758 0.082330
H19   H     H_    0.671938 0.085301 0.791181 0.085588
H20   H     H_    0.670921 0.380943 0.091139 0.113237
H21   H     H_    0.326480 0.649444 0.982782 0.084921
H22   H     H_    0.674909 0.017224 0.349956 0.088695
H23   H     H_    0.021267 0.209253 0.871959 0.113295
H24   H     H_    0.321235 0.884086 0.622992 0.095922
H25   H     H_    0.320128 0.197881 0.935466 0.106819
H26   H     H_    0.677763 0.829750 0.156611 0.111172
H27   H     H_    0.794511 0.381143 0.209122 0.094644
H28   H     H_    0.171657 0.647776 0.824960 0.083636
H29   H     H_    0.172331 0.846047 0.023652 0.083317
H30   H     H_    0.790624 0.079838 0.908723 0.082379
H31   H     H_    0.022910 0.146404 0.006578 0.141280
H32   H     H_    0.995620 0.990662 0.459483 0.129658
H33   H     H_    0.837927 0.960125 0.490950 0.110544
H34   H     H_    0.195031 0.340171 0.899515 0.134113
H35   H     H_    0.657652 0.792234 0.356999 0.149119
H36   H     H_    0.198115 0.207165 0.164124 0.159311
H37   H     H_    0.973715 0.853665 0.293611 0.154120
H38   H     H_    0.330069 0.536933 0.048824 0.128372
N1    N     N_R   0.293810 0.002730 0.945950 -0.036468
N2    N     N_R   0.443210 0.997250 0.791090 -0.043148
N3    N     N_R   0.443180 0.152110 0.945950 -0.046225
N4    N     N_R   0.556820 0.847890 0.054050 -0.047634
N5    N     N_R   0.706170 0.208950 0.152090 -0.040577
N6    N     N_R   0.293830 0.791050 0.847910 -0.039492
N7    N     N_R   0.293800 0.945910 0.002760 -0.035332
N8    N     N_R   0.706200 0.054090 0.997240 -0.039582
N9    N     N_R   0.706190 0.997270 0.054050 -0.044672
N10   N     N_R   0.706160 0.152130 0.208910 -0.042986
N11   N     N_R   0.293840 0.847870 0.791090 -0.039732
N12   N     N_R   0.443140 0.945920 0.152090 -0.036150
N13   N     N_R   0.556860 0.054080 0.847910 -0.040171
N14   N     N_R   0.556830 0.208940 0.002760 -0.044483
N15   N     N_R   0.443170 0.791060 0.997240 -0.042332
N16   N     N_R   0.556790 0.002750 0.208910 -0.036605
Ni1   Ni    Ni4+2 0.369690 0.999990 0.869700 0.218150
Ni2   Ni    Ni4+2 0.630310 0.000010 0.130300 0.220340
Ni3   Ni    Ni4+2 0.369670 0.869670 0.000000 0.214387
Ni4   Ni    Ni4+2 0.630330 0.130330 0.000000 0.234478

loop_
_geom_bond_atom_site_label_1
_geom_bond_atom_site_label_2
_ccdc_geom_bond_type
N1    N7    A    
N5    N10   A    
C50   N4    A    
C9    H36   S    
C12   H12   S    
N6    Ni3   S    
C33   C45   S    
C49   H25   S    
C52   H28   S    
C25   H5    S    
C24   C27   A    
N10   Ni2   S    
C16   N10   A    
C41   C56   A    
C15   C19   A    
C46   N15   A    
C50   C59   A    
C14   C21   A    
C2    H33   S    
C19   C21   A    
C24   C26   A    
C38   C42   A    
C44   H20   S    
C46   C59   A    
N4    N15   A    
C1    H1    S    
N8    N9    A    
C48   C56   A    
C45   C47   A    
C37   C42   A    
C2    C13   A    
N8    Ni4   S    
C7    Cl1   S    
C44   C58   A    
C22   C25   A    
C53   H29   S    
C15   H2    S    
C40   H18   S    
N5    Ni4   S    
C3    H34   S    
C29   H7    S    
C24   H4    S    
C3    C60   A    
C11   H31   S    
C31   H9    S    
C37   H13   S    
C44   N14   A    
C27   C34   S    
C22   C28   A    
C4    H35   S    
N3    Ni1   S    
C17   N11   A    
C42   C57   S    
N7    Ni3   S    
C12   N9    A    
C30   H8    S    
N9    Ni2   S    
N4    Ni2   S    
N6    N11   A    
C53   C55   A    
C19   C58   S    
C47   N16   A    
C31   C33   A    
C32   C35   A    
N3    N14   A    
C32   H10   S    
C5    C7    A    
C39   C43   A    
C38   H16   S    
C47   H22   S    
C49   C58   A    
C15   C20   A    
C39   H17   S    
C2    C4    A    
C22   H3    S    
C54   H30   S    
N13   Ni4   S    
C53   N7    A    
C23   C51   A    
C51   N5    A    
C41   H19   S    
C17   H15   S    
C23   C28   S    
C9    C11   A    
N2    Ni1   S    
C12   C57   A    
C43   C55   S    
C16   C23   A    
N15   Ni3   S    
C48   H24   S    
C4    C6    A    
C17   C34   A    
C11   C60   A    
C1    N1    A    
N12   N16   A    
C7    C9    A    
C30   C33   A    
C35   C56   S    
C16   H14   S    
C34   C52   A    
C14   C18   A    
C8    C10   A    
C41   N13   A    
C48   N2    A    
C3    C5    A    
C10   C13   A    
C49   N3    A    
N12   Ni3   S    
C6    C8    A    
C60   H23   S    
C14   H38   S    
C50   H26   S    
C25   C27   A    
C6    C20   S    
C29   C35   A    
C26   C28   A    
C54   N8    A    
C13   H32   S    
N11   Ni1   S    
N1    Ni1   S    
C36   C38   A    
C1    C55   A    
C26   H6    S    
C29   C31   A    
N2    N13   A    
C51   H27   S    
C30   C32   A    
C40   N12   A    
N16   Ni2   S    
C18   C20   A    
C10   H37   S    
C36   H11   S    
C52   N6    A    
C46   H21   S    
C18   C59   S    
C5    C21   S    
C40   C45   A    
C37   C39   A    
C36   C43   A    
N14   Ni4   S    
C8    Cl2   S    
C54   C57   A    
