data_mof_unit_55150.cif
_audit_creation_date              2013-03-05T16:32:41-0500
_audit_creation_method            fapswitch 2.2
_symmetry_space_group_name_H-M    P1
_symmetry_Int_Tables_number       1
_space_group_crystal_system       triclinic
_cell_length_a                    9.546349
_cell_length_b                    10.822317
_cell_length_c                    17.205707
_cell_angle_alpha                 90.230596
_cell_angle_beta                  86.371388
_cell_angle_gamma                 89.784677
_cell_volume                      1773.99146703

loop_
_atom_site_label
_atom_site_type_symbol
_atom_site_description
_atom_site_fract_x
_atom_site_fract_y
_atom_site_fract_z
_atom_type_partial_charge
O1    O     O_R   0.381190 0.680360 0.500000 -0.587022
O2    O     O_R   0.618770 0.680320 0.499990 -0.587610
C1    C     C_R   0.500051 0.737695 0.498204 0.790077
O3    O     O_R   0.367430 0.500040 0.613600 -0.588497
O4    O     O_R   0.605020 0.500000 0.613590 -0.581013
C2    C     C_R   0.482215 0.499349 0.650198 0.791546
Cu1   Cu    Cu3+1 0.359330 0.500020 0.500000 0.954177
Cu2   Cu    Cu3+1 0.640670 0.499980 0.500000 0.938281
O5    O     O_R   0.381230 0.319680 0.500010 -0.581053
O6    O     O_R   0.618810 0.319640 0.500000 -0.582766
O7    O     O_R   0.394980 0.500000 0.386410 -0.546594
O8    O     O_R   0.632570 0.499960 0.386400 -0.594127
C3    C     C_R   0.500461 0.262335 0.498546 0.806693
C4    C     C_R   0.518081 0.502882 0.350068 0.811146
C5    C     C_R   0.474857 0.499484 0.735343 -0.031522
C6    C     C_R   0.594244 0.466807 0.774242 -0.218953
C7    C     C_R   0.591729 0.472922 0.854851 -0.081785
C8    C     C_R   0.470801 0.514594 0.897665 0.190957
C9    C     C_R   0.349316 0.541861 0.859396 -0.163970
C10   C     C_R   0.351267 0.534700 0.778396 -0.200068
C11   C     C_R   0.457163 0.625024 0.150500 0.485314
C12   C     C_R   0.441788 0.603693 0.231158 -0.233951
C13   C     C_R   0.634930 0.456741 0.221016 -0.197402
C14   C     C_R   0.651560 0.477713 0.141424 -0.253393
C15   C     C_R   0.563687 0.561618 0.106278 -0.048349
C16   C     C_2   0.468018 0.525229 0.982702 -0.274950
C17   C     C_2   0.574665 0.572454 0.020685 0.519126
C18   C     C_R   0.529213 0.518564 0.265931 -0.061501
H1    H     H_    0.703669 0.391526 0.247433 0.148359
H2    H     H_    0.373486 0.494193 0.015476 0.119066
H3    H     H_    0.684179 0.444526 0.883585 0.160613
H4    H     H_    0.731716 0.427333 0.106814 0.164269
C19   C     C_R   0.377014 0.936927 0.483518 0.028865
C20   C     C_R   0.501577 0.870721 0.489781 -0.138438
C21   C     C_R   0.629656 0.935009 0.484231 -0.191909
H5    H     H_    0.729234 0.886598 0.483844 0.175702
C22   C     C_R   0.629954 0.063798 0.484451 -0.210784
C23   C     C_R   0.502221 0.129271 0.490507 -0.075695
C24   C     C_R   0.377283 0.064302 0.485050 0.026287
C25   C     C_3   0.241908 0.073246 0.533549 -0.498739
C26   C     C_3   0.239963 0.932528 0.532046 0.359617
H6    H     H_    0.255816 0.112173 0.592465 0.165701
H7    H     H_    0.157270 0.117794 0.502034 0.193707
H8    H     H_    0.252447 0.891667 0.590431 0.083933
C27   C     C_R   0.929582 0.400529 0.471504 0.176456
N1    N     N_R   0.852130 0.499070 0.499500 -0.182086
C28   C     C_R   0.920982 0.589871 0.537439 -0.060242
H9    H     H_    0.861806 0.664080 0.566340 0.151437
C29   C     C_R   0.069821 0.588975 0.538251 -0.043623
H10   H     H_    0.121902 0.661638 0.568442 0.167148
N2    N     N_R   0.148040 0.499110 0.499500 -0.195614
C30   C     C_R   0.076879 0.403546 0.468615 0.136744
C31   C     C_3   0.085264 0.354023 0.386523 0.324334
C32   C     C_3   0.925625 0.342329 0.392781 -0.557006
H11   H     H_    0.138387 0.262434 0.382749 0.085971
H12   H     H_    0.869719 0.397245 0.350174 0.223619
H13   H     H_    0.689775 0.436360 0.742388 0.155258
H14   H     H_    0.729620 0.111261 0.484191 0.162707
O9    O     O_3   0.120521 0.882604 0.497189 -0.575971
C33   C     C_3   0.127171 0.889370 0.414951 -0.305044
H15   H     H_    0.211929 0.828885 0.388761 0.158923
H16   H     H_    0.140944 0.985841 0.394124 0.158790
H17   H     H_    0.026529 0.855163 0.394342 0.166815
O10   O     O_3   0.138590 0.433796 0.325732 -0.540754
C34   C     C_3   0.092717 0.558531 0.331920 -0.241672
H18   H     H_    0.165806 0.613204 0.365584 0.188596
H19   H     H_    0.984463 0.571893 0.357608 0.151039
H20   H     H_    0.094504 0.597817 0.272662 0.140212
H21   H     H_    0.366331 0.656587 0.267265 0.131413
H22   H     H_    0.890300 0.244723 0.396883 0.150706
O11   O     O_3   0.693646 0.617765 0.978893 -0.588208
C35   C     C_3   0.768061 0.702491 0.023113 -0.307117
H23   H     H_    0.826245 0.653873 0.067927 0.158852
H24   H     H_    0.697565 0.775063 0.050249 0.181855
H25   H     H_    0.846815 0.749716 0.983560 0.183848
H26   H     H_    0.254215 0.571312 0.892096 0.136521
O12   O     O_3   0.380178 0.714692 0.114029 -0.584351
C36   C     C_3   0.235366 0.703905 0.134558 -0.355048
H27   H     H_    0.208202 0.752384 0.190509 0.158165
H28   H     H_    0.200050 0.605858 0.136841 0.162056
H29   H     H_    0.176643 0.750429 0.089299 0.192096
H30   H     H_    0.257620 0.559366 0.749495 0.149826

loop_
_geom_bond_atom_site_label_1
_geom_bond_atom_site_label_2
_geom_bond_distance
_ccdc_geom_bond_type
C10   H30   1.083185 S    
C9    C10   1.394435 A    
C8    C16   1.465726 S    
Cu1   Cu2   2.685768 S    
C28   C29   1.421820 A    
C31   C32   1.526727 S    
Cu1   O7    1.962471 S    
C16   C17   1.345458 D    
C19   C24   1.378653 A    
C33   H17   1.109327 S    
C13   H1    1.082668 S    
C9    H26   1.083556 S    
C21   C22   1.393795 A    
C8    C9    1.400465 A    
O3    Cu1   1.960979 S    
C23   C24   1.394874 A    
O7    C4    1.296306 A    
C36   H28   1.114667 S    
C5    C6    1.402621 A    
C33   H16   1.110766 S    
C20   C21   1.407225 A    
C29   H10   1.080637 S    
O5    C3    1.293165 A    
C2    C5    1.462207 S    
C25   H7    1.110821 S    
C21   H5    1.083340 S    
C6    C7    1.386947 A    
C34   H19   1.106708 S    
C13   C14   1.388283 A    
C12   H21   1.081611 S    
C22   H14   1.082715 S    
C25   H6    1.112068 S    
O9    C33   1.414556 S    
C12   C18   1.401834 A    
C11   C12   1.406348 A    
C35   H25   1.109285 S    
C19   C20   1.396229 A    
C31   H11   1.111498 S    
C5    C10   1.403467 A    
C32   H12   1.107295 S    
N2    C30   1.363834 A    
C14   C15   1.398860 A    
C26   O9    1.428395 S    
C35   H24   1.114014 S    
C24   C25   1.495907 S    
C36   H27   1.110213 S    
C1    C20   1.447542 S    
C29   N2    1.369036 A    
O12   C36   1.410397 S    
C33   H15   1.110737 S    
O1    C1    1.294026 A    
C14   H4    1.083503 S    
C22   C23   1.405938 A    
C28   H9    1.081299 S    
C32   H22   1.111205 S    
Cu2   O8    1.960982 S    
C34   H20   1.105423 S    
C7    C8    1.401604 A    
C13   C18   1.398371 A    
C3    C23   1.446066 S    
O3    C2    1.297935 A    
C25   C26   1.523213 S    
O8    C4    1.293325 A    
C27   C32   1.494180 S    
C16   H2    1.088387 S    
C7    H3    1.082668 S    
C26   H8    1.112303 S    
C17   O11   1.396881 S    
C30   C31   1.505967 S    
Cu1   O5    1.962084 S    
C11   C15   1.405901 A    
N1    C28   1.370326 A    
O1    Cu1   1.963601 S    
O2    Cu2   1.962083 S    
C35   H23   1.111375 S    
O6    C3    1.292441 A    
O4    Cu2   1.962471 S    
C15   C17   1.474945 S    
C27   C30   1.404378 A    
C19   C26   1.507871 S    
O10   C34   1.419121 S    
O2    C1    1.292364 A    
Cu1   N2    2.017671 S    
O11   C35   1.411380 S    
C36   H29   1.109267 S    
O4    C2    1.295292 A    
C31   O10   1.428865 S    
C6    H13   1.083362 S    
Cu2   N1    2.018132 S    
C27   N1    1.364138 A    
Cu2   O6    1.963601 S    
C34   H18   1.106300 S    
C11   O12   1.390505 S    
C4    C18   1.455457 S    
