data_mof_unit_14421.cif
_audit_creation_date              2012-12-10T17:44:37-0500
_audit_creation_method            fapswitch 2.2
_symmetry_space_group_name_H-M    P1
_symmetry_Int_Tables_number       1
_space_group_crystal_system       triclinic
_cell_length_a                    9.938872
_cell_length_b                    10.650582
_cell_length_c                    15.443991
_cell_angle_alpha                 91.130413
_cell_angle_beta                  67.792249
_cell_angle_gamma                 89.982173
_cell_volume                      1513.20044833

loop_
_atom_site_label
_atom_site_type_symbol
_atom_type_description
_atom_site_fract_x
_atom_site_fract_y
_atom_site_fract_z
_atom_type_partial_charge
C1    C     C_R   0.502538 0.739236 0.495421 0.950153
C2    C     C_R   0.741344 0.474098 0.027423 0.046028
C3    C     C_R   0.596132 0.441843 0.082709 0.108722
C4    C     C_R   0.408603 0.498108 0.676036 0.937840
C5    C     C_R   0.840022 0.503631 0.069958 -0.154826
C6    C     C_R   0.793657 0.508172 0.167168 -0.182681
C7    C     C_R   0.552108 0.448101 0.179824 -0.145864
C8    C     C_R   0.485161 0.870269 0.332120 0.519736
C9    C     C_R   0.475996 0.937233 0.257815 -0.279749
C10   C     C_R   0.476618 0.067541 0.260006 0.599902
C11   C     C_R   0.485605 0.131827 0.336892 -0.311269
C12   C     C_R   0.427030 0.438964 0.906109 -0.007981
C13   C     C_R   0.493382 0.065849 0.413611 -0.055047
C14   C     C_R   0.493585 0.933818 0.411663 -0.034314
C15   C     C_R   0.506646 0.871685 0.488606 -0.058157
C16   C     C_R   0.500799 0.260699 0.498833 0.851366
C17   C     C_R   0.524612 0.936714 0.562517 -0.241348
C18   C     C_R   0.523997 0.065056 0.563998 -0.164632
C19   C     C_R   0.505477 0.128438 0.491537 -0.010628
C20   C     C_R   0.792002 0.668634 0.619461 -0.023136
C21   C     C_R   0.827524 0.748699 0.679747 -0.099169
C22   C     C_R   0.965321 0.744650 0.681957 -0.196173
C23   C     C_R   0.292741 0.379731 0.954352 -0.004992
C24   C     C_R   0.069059 0.661737 0.622933 -0.107569
C25   C     C_R   0.037476 0.580558 0.560126 0.185293
C26   C     C_R   0.893645 0.582133 0.559222 0.171384
C27   C     C_R   0.962191 0.422141 0.442836 -0.106488
C28   C     C_R   0.591241 0.495783 0.324006 0.943464
C29   C     C_R   0.105280 0.422528 0.442584 -0.081393
C30   C     C_R   0.352906 0.474467 0.776281 -0.340542
C31   C     C_R   0.648228 0.483698 0.222137 -0.048322
C32   C     C_R   0.192229 0.363784 0.911209 -0.327676
C33   C     C_R   0.225038 0.406144 0.820584 0.553719
C34   C     C_R   0.536358 0.439967 0.943919 -0.057337
C35   C     C_R   0.444718 0.500546 0.823599 0.567892
C36   C     C_R   0.496371 0.413511 0.039654 -0.006497
C37   C     C_R   0.358626 0.359469 0.088505 -0.106825
C38   C     C_R   0.260837 0.338541 0.044935 -0.150992
C39   C     C_R   0.685060 0.460716 0.888713 0.712490
C40   C     C_R   0.785560 0.477602 0.930563 -0.308542
F1    F     F_    0.489953 0.744002 0.323131 -0.676661
F2    F     F_    0.471051 0.131835 0.186562 -0.681343
F3    F     F_    0.134513 0.377430 0.775846 -0.634020
F4    F     F_    0.544980 0.592504 0.791744 -0.657216
F5    F     F_    0.737201 0.453410 0.793823 -0.606869
H1    H     H_    0.951603 0.526974 0.028174 0.146514
H2    H     H_    0.186401 0.359121 0.395584 0.139818
H3    H     H_    0.869893 0.534413 0.199116 0.157380
H4    H     H_    0.897709 0.496384 0.887073 0.219762
H5    H     H_    0.326169 0.326997 0.159152 0.172232
H6    H     H_    0.158163 0.293670 0.083295 0.147343
H7    H     H_    0.470464 0.887408 0.197464 0.196457
H8    H     H_    0.936143 0.358446 0.396096 0.142713
H9    H     H_    0.091175 0.314745 0.946188 0.191638
H10   H     H_    0.536039 0.887677 0.620309 0.143071
H11   H     H_    0.488957 0.233144 0.334725 0.160456
H12   H     H_    0.535042 0.115350 0.622698 0.157135
H13   H     H_    0.683552 0.677119 0.623014 0.205399
H14   H     H_    0.746993 0.813694 0.725553 0.167958
H15   H     H_    0.440402 0.431908 0.224061 0.142976
H16   H     H_    0.992254 0.806310 0.729523 0.161186
H17   H     H_    0.172566 0.663524 0.628515 0.192080
N1    N     N_R   0.856800 0.501200 0.500850 -0.119703
N2    N     N_R   0.142390 0.501280 0.500880 -0.111765
O1    O     O_R   0.385310 0.683220 0.500000 -0.604312
O2    O     O_R   0.614640 0.683250 0.500010 -0.658329
O3    O     O_R   0.319840 0.499980 0.632240 -0.587549
O4    O     O_R   0.549160 0.500000 0.632250 -0.576340
O5    O     O_R   0.385360 0.316750 0.499990 -0.605216
O6    O     O_R   0.614690 0.316780 0.500000 -0.619032
O7    O     O_R   0.450840 0.500000 0.367750 -0.584620
O8    O     O_R   0.680160 0.500020 0.367760 -0.629409
Zn1   Zn    Zn3+2 0.346880 0.499980 0.499990 1.002802
Zn2   Zn    Zn3+2 0.653120 0.500020 0.500010 0.969623

loop_
_geom_bond_atom_site_label_1
_geom_bond_atom_site_label_2
_ccdc_geom_bond_type
C10   F2    S    
C12   C23   A    
C6    H3    S    
C30   C35   A    
C29   H2    S    
C36   C37   A    
C21   H14   S    
C3    C7    A    
C5    C6    A    
C27   C29   A    
O4    Zn2   S    
C40   H4    S    
O2    Zn2   S    
O1    Zn1   S    
C18   C19   A    
C8    C9    A    
O6    Zn2   S    
C1    O1    A    
N2    Zn1   S    
O5    Zn1   S    
C1    C15   S    
C9    C10   A    
C17   H10   S    
C39   F5    S    
C6    C31   A    
C29   N2    A    
C13   C14   A    
C28   O8    A    
C9    H7    S    
C32   H9    S    
C1    O2    A    
C7    C31   A    
C13   C19   A    
C34   C39   A    
C33   F3    S    
C16   O6    A    
C8    F1    S    
O8    Zn2   S    
C39   C40   A    
C4    O4    A    
C38   H6    S    
C8    C14   A    
C25   C26   A    
C25   N2    A    
C26   N1    A    
C37   C38   A    
C18   H12   S    
C17   C18   A    
C24   C25   A    
C12   C35   A    
C35   F4    S    
C27   N1    A    
O3    Zn1   S    
C22   C24   A    
C28   O7    A    
C12   C34   A    
C7    H15   S    
O7    Zn1   S    
C15   C17   A    
C24   H17   S    
C30   C33   A    
C28   C31   S    
C16   O5    A    
C4    O3    A    
C27   H8    S    
N1    Zn2   S    
C23   C38   A    
C5    H1    S    
C23   C32   A    
C2    C3    A    
C32   C33   A    
C22   H16   S    
C37   H5    S    
C11   C13   A    
C20   C26   A    
C3    C36   A    
C16   C19   S    
C34   C36   A    
C10   C11   A    
C2    C5    A    
C2    C40   A    
C20   C21   A    
C14   C15   A    
C21   C22   A    
C20   H13   S    
C4    C30   S    
C11   H11   S    
