data_mof_unit_63215.cif
_audit_creation_date              2012-10-26T19:54:10-0400
_audit_creation_method            fapswitch 2.2
_symmetry_space_group_name_H-M    P1
_symmetry_Int_Tables_number       1
_space_group_crystal_system       triclinic
_cell_length_a                    15.882655
_cell_length_b                    15.996814
_cell_length_c                    14.786181
_cell_angle_alpha                 90.008328
_cell_angle_beta                  89.902736
_cell_angle_gamma                 89.991863
_cell_volume                      3756.74728232

loop_
_atom_site_label
_atom_site_type_symbol
_atom_type_description
_atom_site_fract_x
_atom_site_fract_y
_atom_site_fract_z
_atom_type_partial_charge
Br1   Br    Br    0.069669 0.474318 0.293913 -0.396645
Br2   Br    Br    0.930331 0.525682 0.706087 -0.396645
Br3   Br    Br    0.681625 0.505816 0.113129 -0.414785
Br4   Br    Br    0.318375 0.494184 0.886871 -0.414785
C1    C     C_R   0.500024 0.340861 0.499974 0.547535
C2    C     C_1   0.499976 0.748269 0.500035 -0.002828
C3    C     C_R   0.576500 0.502468 0.951974 -0.031290
C4    C     C_R   0.423500 0.497532 0.048026 -0.031290
C5    C     C_R   0.500099 0.500017 0.902841 -0.044151
C6    C     C_R   0.499901 0.499983 0.097159 -0.044151
C7    C     C_R   0.423630 0.497552 0.951851 0.147305
C8    C     C_R   0.576370 0.502448 0.048149 0.147305
C9    C     C_1   0.499990 0.500020 0.802525 0.202773
C10   C     C_1   0.500010 0.499980 0.197475 0.202773
C11   C     C_R   0.339424 0.500001 0.500071 0.548271
C12   C     C_R   0.499975 0.659139 0.500026 0.547535
C13   C     C_R   0.660576 0.499999 0.499928 0.548270
C14   C     C_3   0.972037 0.426410 0.467334 -0.108205
C15   C     C_3   0.027963 0.573590 0.532665 -0.108205
C16   C     C_3   0.028051 0.489504 0.415978 0.189771
C17   C     C_3   0.971949 0.510496 0.584022 0.189771
C18   C     C_1   0.249809 0.500039 0.500292 0.025344
C19   C     C_1   0.750191 0.499961 0.499708 0.025343
C20   C     C_3   0.027975 0.437080 0.552611 -0.105583
C21   C     C_3   0.972025 0.562919 0.447389 -0.105583
C22   C     C_3   0.082775 0.500064 0.500379 0.015905
C23   C     C_R   0.499990 0.912782 0.500016 0.038118
C24   C     C_3   0.917225 0.499936 0.499621 0.015905
C25   C     C_1   0.174341 0.500067 0.500432 0.012961
C26   C     C_1   0.825658 0.499933 0.499568 0.012961
C27   C     C_R   0.502028 0.956399 0.582061 -0.093786
C28   C     C_R   0.497972 0.043601 0.417938 -0.093786
C29   C     C_1   0.655750 0.505029 0.903668 0.268478
C30   C     C_1   0.344250 0.494971 0.096332 0.268478
C31   C     C_R   0.500010 0.087218 0.499984 0.038118
C32   C     C_R   0.497962 0.956354 0.417954 -0.094045
C33   C     C_R   0.502038 0.043646 0.582046 -0.094045
C34   C     C_1   0.499981 0.823321 0.500031 -0.040122
C35   C     C_1   0.500019 0.176678 0.499969 -0.040122
C36   C     C_1   0.500024 0.251730 0.499965 -0.002828
Cu1   Cu    Cu3+1 0.500020 0.500000 0.589220 1.058606
Cu2   Cu    Cu3+1 0.499980 0.500000 0.410780 1.058606
H1    H     H_    0.948166 0.366314 0.439956 0.152752
H2    H     H_    0.051834 0.633686 0.560044 0.152752
H3    H     H_    0.948143 0.614109 0.403715 0.156556
H4    H     H_    0.051857 0.385891 0.596285 0.156556
H5    H     H_    0.503620 0.077059 0.645771 0.129288
H6    H     H_    0.496380 0.922941 0.354228 0.129288
H7    H     H_    0.503603 0.923023 0.645799 0.129524
H8    H     H_    0.496397 0.076977 0.354201 0.129524
N1    N     N_1   0.500030 0.499980 0.276710 -0.167668
N2    N     N_1   0.499970 0.500020 0.723290 -0.167668
N3    N     N_1   0.719092 0.507077 0.864913 -0.179584
N4    N     N_1   0.280908 0.492923 0.135086 -0.179584
O1    O     O_R   0.500040 0.380310 0.575320 -0.490108
O2    O     O_R   0.499960 0.619690 0.424680 -0.490108
O3    O     O_R   0.500000 0.380310 0.424640 -0.489723
O4    O     O_R   0.500000 0.619690 0.575360 -0.489723
O5    O     O_R   0.379100 0.499990 0.575330 -0.478325
O6    O     O_R   0.620900 0.500010 0.424670 -0.478325
O7    O     O_R   0.379060 0.499990 0.424640 -0.486340
O8    O     O_R   0.620940 0.500010 0.575360 -0.486340

loop_
_geom_bond_atom_site_label_1
_geom_bond_atom_site_label_2
_ccdc_geom_bond_type
C31   C35   S    
C12   O2    A    
C32   H6    S    
C18   C25   T    
C23   C32   A    
C33   H5    S    
C9    N2    T    
C5    C7    A    
Cu1   Cu2   S    
Cu1   N2    S    
C10   N1    T    
C1    O3    A    
Cu2   N1    S    
C20   H4    S    
Br2   C17   S    
C24   C26   S    
C11   O7    A    
C4    C30   S    
C14   H1    S    
C21   C24   S    
Cu2   O2    S    
C3    C29   S    
Cu2   O7    S    
C28   H8    S    
C13   C19   S    
C16   C22   S    
Cu1   O8    S    
C27   H7    S    
C4    C7    A    
C14   C20   S    
C28   C32   A    
Cu2   O3    S    
C15   C17   S    
C17   C24   S    
C20   C22   S    
Cu1   O4    S    
C30   N4    T    
C14   C16   S    
C29   N3    T    
C3    C8    A    
C13   O8    A    
C11   O5    A    
C1    C36   S    
C16   C21   S    
C15   C21   S    
C2    C12   S    
C19   C26   T    
C21   H3    S    
C14   C24   S    
C15   H2    S    
Cu1   O5    S    
C22   C25   S    
C4    C6    A    
C6    C10   S    
C17   C20   S    
Cu2   O6    S    
C35   C36   T    
C3    C5    A    
C15   C22   S    
C5    C9    S    
Cu1   O1    S    
Br1   C16   S    
C12   O4    A    
Br3   C8    S    
C23   C34   S    
C31   C33   A    
C2    C34   T    
C6    C8    A    
C23   C27   A    
C1    O1    A    
C11   C18   S    
C28   C31   A    
C13   O6    A    
C27   C33   A    
Br4   C7    S    
