data_mof_unit_28971.cif
_audit_creation_date              2012-12-11T14:03:36-0500
_audit_creation_method            fapswitch 2.2
_symmetry_space_group_name_H-M    P1
_symmetry_Int_Tables_number       1
_space_group_crystal_system       triclinic
_cell_length_a                    6.953178
_cell_length_b                    11.541328
_cell_length_c                    18.731021
_cell_angle_alpha                 90.000367
_cell_angle_beta                  92.40869
_cell_angle_gamma                 89.999985
_cell_volume                      1501.81590306

loop_
_atom_site_label
_atom_site_type_symbol
_atom_type_description
_atom_site_fract_x
_atom_site_fract_y
_atom_site_fract_z
_atom_type_partial_charge
O1    O     O_R   0.330540 0.606360 0.598870 -0.535050
O2    O     O_R   0.669460 0.106360 0.401130 -0.535037
O3    O     O_R   0.026770 0.620470 0.750430 -0.527162
O4    O     O_R   0.973230 0.120470 0.249570 -0.527145
O5    O     O_R   0.856460 0.393640 0.750930 -0.522320
O6    O     O_R   0.143540 0.893640 0.249070 -0.522248
C1    C     C_R   0.198204 0.644675 0.776553 0.713114
C2    C     C_R   0.801797 0.144668 0.223443 0.713145
O7    O     O_R   0.000920 0.620350 0.599420 -0.540850
O8    O     O_R   0.999080 0.120350 0.400580 -0.540886
O9    O     O_R   0.830430 0.393520 0.598850 -0.544190
O10   O     O_R   0.169570 0.893520 0.401150 -0.544180
C3    C     C_R   0.168018 0.649377 0.575597 0.782949
C4    C     C_R   0.831982 0.149375 0.424404 0.782913
O11   O     O_R   0.356570 0.606480 0.750960 -0.545097
O12   O     O_R   0.643430 0.106480 0.249040 -0.545132
O13   O     O_3   0.176990 0.425580 0.674890 -0.375836
O14   O     O_3   0.823010 0.925580 0.325110 -0.375815
V1    V     V_3+5 0.902170 0.513810 0.674910 1.523796
V2    V     V_3+5 0.097830 0.013810 0.325090 1.523856
O15   O     O_R   0.500800 0.379530 0.599380 -0.537981
O16   O     O_R   0.499200 0.879530 0.400620 -0.537954
C5    C     C_R   0.666134 0.354519 0.573517 0.711982
C6    C     C_R   0.333866 0.854525 0.426487 0.712033
O17   O     O_R   0.526650 0.379650 0.750390 -0.537033
O18   O     O_R   0.473350 0.879650 0.249610 -0.537096
C7    C     C_R   0.697252 0.349944 0.772959 0.768783
C8    C     C_R   0.302746 0.849945 0.227039 0.768742
V3    V     V_3+5 0.402160 0.486190 0.674900 1.528099
V4    V     V_3+5 0.597840 0.986190 0.325100 1.528108
O19   O     O_3   0.677210 0.574420 0.674910 -0.378963
O20   O     O_3   0.322790 0.074420 0.325090 -0.378967
C9    C     C_R   0.686685 0.065978 0.870931 -0.009427
C10   C     C_R   0.313420 0.565985 0.129057 -0.009424
C11   C     C_R   0.705997 0.265336 0.830927 -0.050911
C12   C     C_R   0.294000 0.765337 0.169068 -0.050894
C13   C     C_R   0.810285 0.340469 0.174243 -0.134371
C14   C     C_R   0.189768 0.840485 0.825749 -0.134336
C15   C     C_R   0.795287 0.421510 0.119092 0.056900
C16   C     C_R   0.204838 0.921528 0.880899 0.056877
C17   C     C_R   0.755795 0.383700 0.049260 -0.202115
C18   C     C_R   0.244361 0.883718 0.950728 -0.202112
C19   C     C_R   0.734948 0.264848 0.031856 0.087234
C20   C     C_R   0.265097 0.764861 0.968136 0.087257
C21   C     C_R   0.752521 0.182096 0.088397 0.044306
C22   C     C_R   0.247480 0.682111 0.911595 0.044313
C23   C     C_R   0.709912 0.226111 0.959178 0.070051
C24   C     C_R   0.290094 0.726120 0.040814 0.070100
C25   C     C_R   0.693885 0.105427 0.943541 0.072952
C26   C     C_R   0.306171 0.605436 0.056447 0.072989
C27   C     C_R   0.691327 0.027682 0.000633 -0.215628
C28   C     C_R   0.308699 0.527692 0.999351 -0.215645
C29   C     C_R   0.737314 0.062855 0.070279 -0.042901
C30   C     C_R   0.262645 0.562869 0.929710 -0.042900
C31   C     C_R   0.706102 0.304030 0.901115 -0.127358
C32   C     C_R   0.293788 0.804034 0.098880 -0.127378
C33   C     C_R   0.692584 0.147802 0.815870 -0.173740
C34   C     C_R   0.307533 0.647807 0.184122 -0.173739
C35   C     C_R   0.787420 0.222141 0.160512 -0.101896
C36   C     C_R   0.212587 0.722154 0.839482 -0.101870
H1    H     H_    0.840429 0.369477 0.228641 0.147327
H2    H     H_    0.159616 0.869493 0.771352 0.147334
C37   C     C_2   0.826905 0.233542 0.484267 -0.388692
C38   C     C_2   0.173095 0.733537 0.515731 -0.388653
H3    H     H_    0.963836 0.254576 0.511099 0.190393
H4    H     H_    0.036175 0.754527 0.488876 0.190454
C39   C     C_2   0.662393 0.278869 0.509535 -0.189834
C40   C     C_2   0.337605 0.778898 0.490480 -0.189884
H5    H     H_    0.689029 0.120192 0.760492 0.154390
H6    H     H_    0.311154 0.620196 0.239499 0.154395
C41   C     C_2   0.472385 0.263572 0.471543 0.811877
O21   O     O_2   0.341012 0.216409 0.501728 -0.568349
O22   O     O_R   0.443420 0.306064 0.402010 -0.650891
H7    H     H_    0.306712 0.293860 0.382508 0.295142
C42   C     C_2   0.527585 0.763675 0.528510 0.811906
O23   O     O_2   0.659086 0.716619 0.498340 -0.568380
O24   O     O_R   0.556370 0.806116 0.598061 -0.650862
H8    H     H_    0.693065 0.793969 0.617594 0.295150
H9    H     H_    0.669617 0.936216 0.991833 0.182483
H10   H     H_    0.330411 0.436225 0.008144 0.182465
C43   C     C_2   0.684743 0.941714 0.848426 0.726790
O25   O     O_2   0.766261 0.867227 0.884812 -0.563001
O26   O     O_R   0.598783 0.911101 0.782218 -0.655770
H11   H     H_    0.610059 0.825235 0.771685 0.308273
C44   C     C_2   0.315384 0.441721 0.151561 0.726803
O27   O     O_2   0.233881 0.367228 0.115174 -0.563011
O28   O     O_R   0.401333 0.411114 0.217772 -0.655777
H12   H     H_    0.390059 0.325248 0.228307 0.308282
H13   H     H_    0.700165 0.396331 0.907760 0.151003
H14   H     H_    0.299543 0.896337 0.092238 0.151026
H15   H     H_    0.744820 0.450317 0.009419 0.159583
H16   H     H_    0.255491 0.950341 0.990561 0.159503
C45   C     C_2   0.827724 0.546636 0.133092 0.744197
O29   O     O_2   0.843906 0.583123 0.194355 -0.564308
O30   O     O_R   0.844450 0.622791 0.075567 -0.659475
H17   H     H_    0.886456 0.703182 0.090783 0.312826
C46   C     C_2   0.172433 0.046656 0.866901 0.744235
O31   O     O_2   0.156237 0.083143 0.805638 -0.564289
O32   O     O_R   0.155734 0.122812 0.924427 -0.659471
H18   H     H_    0.113676 0.203197 0.909214 0.312833
C47   C     C_2   0.815762 0.971280 0.116614 0.716810
O33   O     O_2   0.986829 0.973108 0.132954 -0.565431
O34   O     O_R   0.700686 0.879753 0.137466 -0.666507
H19   H     H_    0.770862 0.826485 0.172805 0.313638
C48   C     C_2   0.184067 0.471316 0.883385 0.716821
O35   O     O_2   0.012965 0.473164 0.867102 -0.565429
O36   O     O_R   0.299086 0.379807 0.862461 -0.666483
H20   H     H_    0.228825 0.326573 0.827123 0.313643

loop_
_geom_bond_atom_site_label_1
_geom_bond_atom_site_label_2
_ccdc_geom_bond_type
C14   C16   A    
O28   H12   S    
C37   H3    S    
C45   O29   D    
O13   V3    S    
O22   H7    S    
O30   H17   S    
O4    C2    A    
V1    O19   S    
C46   O31   D    
C23   C25   A    
O24   H8    S    
C40   C42   S    
C48   O36   S    
O9    V1    S    
C47   O33   D    
C38   C40   D    
O3    C1    A    
C2    C35   S    
C39   C41   S    
C9    C25   A    
C2    O12   A    
C5    C39   S    
O7    C3    A    
C15   C45   S    
C46   O32   S    
O5    C7    A    
O7    V1    S    
O6    C8    A    
O32   H18   S    
O8    V2    S    
C25   C27   A    
C26   C28   A    
O36   H20   S    
O3    V1    S    
O14   V4    S    
C19   C23   A    
C18   H16   S    
C16   C18   A    
C21   C29   A    
C47   O34   S    
C17   C19   A    
C22   C30   A    
C18   C20   A    
C43   O26   S    
C28   C30   A    
O11   V3    S    
C44   O28   S    
O17   V3    S    
C37   C39   D    
C10   C26   A    
C12   C34   A    
C11   C31   A    
C32   H14   S    
C15   C17   A    
O8    C4    A    
C29   C47   S    
C16   C46   S    
C41   O22   S    
C34   H6    S    
C1    O11   A    
C20   C22   A    
C7    C11   S    
C44   O27   D    
O15   V3    S    
C43   O25   D    
C27   C29   A    
C10   C44   S    
C38   H4    S    
C42   O23   D    
C12   C32   A    
C42   O24   S    
O26   H11   S    
V3    O19   S    
O10   V2    S    
O1    V3    S    
C24   C26   A    
C19   C21   A    
C13   C35   A    
C14   C36   A    
C17   H15   S    
O18   V4    S    
O15   C5    A    
O16   C6    A    
O1    C3    A    
C1    C36   S    
C23   C31   A    
V2    O20   S    
C24   C32   A    
C21   C35   A    
C9    C33   A    
O16   V4    S    
C30   C48   S    
C22   C36   A    
C13   H1    S    
O5    V1    S    
O17   C7    A    
O6    V2    S    
C48   O35   D    
O10   C6    A    
O18   C8    A    
C11   C33   A    
O2    V4    S    
C41   O21   D    
C13   C15   A    
V4    O20   S    
C45   O30   S    
C3    C38   S    
C9    C43   S    
C4    C37   S    
O9    C5    A    
O13   V1    S    
O14   V2    S    
O2    C4    A    
C27   H9    S    
C6    C40   S    
O4    V2    S    
C8    C12   S    
C31   H13   S    
O34   H19   S    
C10   C34   A    
C33   H5    S    
C28   H10   S    
O12   V4    S    
C20   C24   A    
C14   H2    S    
