data_mof_unit_6639.cif
_audit_creation_date              2012-12-10T17:48:55-0500
_audit_creation_method            fapswitch 2.2
_symmetry_space_group_name_H-M    P1
_symmetry_Int_Tables_number       1
_space_group_crystal_system       triclinic
_cell_length_a                    10.724402
_cell_length_b                    14.698164
_cell_length_c                    14.74104
_cell_angle_alpha                 65.036691
_cell_angle_beta                  103.464921
_cell_angle_gamma                 103.052561
_cell_volume                      2027.0764508

loop_
_atom_site_label
_atom_site_type_symbol
_atom_type_description
_atom_site_fract_x
_atom_site_fract_y
_atom_site_fract_z
_atom_type_partial_charge
C1    C     C_R   0.476803 0.119742 0.312313 0.790051
C2    C     C_R   0.448635 0.359938 0.077565 0.089809
C3    C     C_R   0.417853 0.320229 0.001220 0.165924
C4    C     C_R   0.260093 0.000465 0.499859 0.769564
C5    C     C_R   0.461153 0.466415 0.050115 0.063638
C6    C     C_R   0.458310 0.532473 0.946344 0.063587
C7    C     C_R   0.424996 0.489737 0.872356 -0.224170
C8    C     C_R   0.403776 0.385560 0.899625 -0.230938
C9    C     C_R   0.474264 0.508879 0.122664 -0.223427
C10   C     C_R   0.493150 0.613063 0.095258 -0.231396
C11   C     C_R   0.501882 0.678697 0.995240 0.163518
C12   C     C_3   0.878046 0.000804 0.499035 0.125925
C13   C     C_R   0.486246 0.639149 0.919970 0.089923
C14   C     C_R   0.525756 0.783855 0.969536 -0.202725
C15   C     C_R   0.534369 0.850535 0.869670 -0.202212
C16   C     C_R   0.520369 0.880261 0.687692 0.793838
C17   C     C_R   0.501538 0.707882 0.820970 -0.254439
C18   C     C_R   0.718435 0.286358 0.666356 -0.320997
C19   C     C_R   0.683855 0.204095 0.637650 0.070425
C20   C     C_R   0.518257 0.284915 0.509366 0.001768
C21   C     C_R   0.549061 0.371655 0.534472 -0.023846
C22   C     C_R   0.651216 0.370056 0.615486 0.165479
C23   C     C_3   0.922683 0.899665 0.578331 -0.400823
C24   C     C_R   0.482433 0.458707 0.483292 0.078628
C25   C     C_R   0.518753 0.542007 0.515417 0.075550
C26   C     C_R   0.620460 0.535471 0.597370 -0.240472
C27   C     C_R   0.685322 0.451494 0.645778 -0.196922
C28   C     C_R   0.740066 0.999972 0.499894 0.765209
C29   C     C_R   0.381102 0.465443 0.401048 -0.245908
C30   C     C_R   0.316283 0.549461 0.352617 -0.204910
C31   C     C_R   0.349810 0.630594 0.383392 0.165962
C32   C     C_R   0.451810 0.628890 0.464526 -0.023340
C33   C     C_R   0.282150 0.714078 0.332947 -0.323964
C34   C     C_3   0.964424 0.089755 0.524954 -0.369632
C35   C     C_R   0.316081 0.795968 0.362258 0.070082
C36   C     C_R   0.482098 0.715320 0.490129 0.001647
C37   C     C_3   0.041038 0.014821 0.391180 0.022236
C38   C     C_3   0.896680 0.014585 0.392608 -0.370448
C39   C     C_3   0.066333 0.900162 0.577378 -0.434795
C40   C     C_3   0.107474 0.088732 0.527388 -0.365526
C41   C     C_3   0.122039 0.002186 0.497996 0.153937
C42   C     C_3   0.092557 0.109407 0.303517 -0.903792
C43   C     C_R   0.456254 0.187300 0.204847 -0.057375
C44   C     C_R   0.521648 0.812633 0.794835 -0.057244
C45   C     C_R   0.402394 0.215270 0.027324 -0.201055
C46   C     C_R   0.420588 0.149074 0.128626 -0.198943
C47   C     C_R   0.470521 0.291836 0.178908 -0.255900
Cu1   Cu    Cu3+1 0.465900 0.918260 0.475680 0.924258
Cu2   Cu    Cu3+1 0.534100 0.081740 0.524320 0.924016
H1    H     H_    0.046512 0.948022 0.375647 0.153510
H2    H     H_    0.408267 0.068330 0.147143 0.152139
H3    H     H_    0.502785 0.318763 0.239177 0.151603
H4    H     H_    0.410494 0.534653 0.792127 0.146643
H5    H     H_    0.466241 0.463553 0.201201 0.143325
H6    H     H_    0.536573 0.814499 0.026606 0.132433
H7    H     H_    0.763021 0.450167 0.708156 0.141923
H8    H     H_    0.559530 0.721630 0.549348 0.120260
H9    H     H_    0.264582 0.860762 0.322927 0.122595
H10   H     H_    0.238944 0.550983 0.289964 0.143170
H11   H     H_    0.796915 0.284347 0.728347 0.136570
H12   H     H_    0.950829 0.083530 0.600120 0.166468
H13   H     H_    0.735100 0.139185 0.677227 0.120467
H14   H     H_    0.440684 0.278529 0.450248 0.121191
H15   H     H_    0.861879 0.086181 0.335216 0.164586
H16   H     H_    0.652702 0.594271 0.626445 0.129339
H17   H     H_    0.349243 0.406810 0.371717 0.127517
H18   H     H_    0.203810 0.716203 0.270838 0.136993
H19   H     H_    0.836093 0.951719 0.372133 0.152237
H20   H     H_    0.074646 0.835546 0.559543 0.176247
H21   H     H_    0.862643 0.834544 0.561511 0.171923
H22   H     H_    0.160652 0.077153 0.605061 0.167618
H23   H     H_    0.122683 0.888343 0.654165 0.166027
H24   H     H_    0.150378 0.163849 0.475613 0.171775
H25   H     H_    0.936340 0.163661 0.467469 0.174698
H26   H     H_    0.195044 0.108719 0.301436 0.228573
H27   H     H_    0.035036 0.109908 0.230184 0.238152
H28   H     H_    0.084885 0.180333 0.310092 0.242132
H29   H     H_    0.909826 0.888800 0.655230 0.159249
H30   H     H_    0.378384 0.356018 0.840566 0.146399
H31   H     H_    0.500059 0.681690 0.762652 0.147488
H32   H     H_    0.549756 0.931433 0.850964 0.153235
H33   H     H_    0.502351 0.642405 0.153149 0.151219
H34   H     H_    0.377228 0.184470 0.969254 0.130843
N1    N     N_R   0.585360 0.204570 0.560800 -0.175367
N2    N     N_R   0.414550 0.795430 0.439160 -0.175220
O1    O     O_R   0.455060 0.022100 0.338110 -0.586804
O2    O     O_R   0.512640 0.160150 0.379180 -0.586802
O3    O     O_R   0.288900 0.930980 0.479450 -0.592529
O4    O     O_R   0.346480 0.069030 0.520520 -0.588818
O5    O     O_R   0.487360 0.839850 0.620820 -0.587588
O6    O     O_R   0.544940 0.977900 0.661890 -0.588009
O7    O     O_R   0.653520 0.930970 0.479480 -0.587897
O8    O     O_R   0.711100 0.069020 0.520550 -0.589289

loop_
_geom_bond_atom_site_label_1
_geom_bond_atom_site_label_2
_ccdc_geom_bond_type
C1    O2    A    
C16   O5    A    
C40   H22   S    
C11   C13   A    
Cu2   O2    S    
C7    C8    A    
C39   C41   S    
C45   C46   A    
C12   C23   S    
C26   C27   A    
C29   C30   A    
C12   C28   S    
C35   H9    S    
C34   C40   S    
C32   C36   A    
Cu2   N1    S    
C15   C44   A    
C5    C6    A    
C11   C14   A    
C4    C41   S    
C19   H13   S    
C40   H24   S    
C18   C19   A    
C37   C42   S    
C42   H28   S    
C24   C29   A    
C1    C43   S    
C8    H30   S    
C39   H23   S    
C31   C33   A    
C9    C10   A    
C16   C44   S    
C25   C32   A    
C14   H6    S    
Cu1   O5    S    
C21   C22   A    
C37   C41   S    
C23   H21   S    
C45   H34   S    
Cu2   O6    S    
C38   H15   S    
C24   C25   A    
C15   H32   S    
C3    C8    A    
C27   H7    S    
C25   C26   A    
C46   H2    S    
C10   H33   S    
C17   H31   S    
C28   O8    A    
C5    C9    A    
C37   C38   S    
C31   C32   A    
C14   C15   A    
C30   H10   S    
Cu1   O3    S    
C39   H20   S    
C28   O7    A    
C47   H3    S    
C34   H25   S    
C18   H11   S    
C40   C41   S    
C38   H19   S    
C36   H8    S    
C22   C27   A    
C20   N1    A    
C36   N2    A    
Cu1   O1    S    
C2    C5    A    
C7    H4    S    
C12   C34   S    
C19   N1    A    
C42   H26   S    
C33   H18   S    
C4    O4    A    
C1    O1    A    
Cu1   Cu2   S    
C18   C22   A    
C26   H16   S    
Cu2   O4    S    
C6    C7    A    
C4    O3    A    
C2    C47   A    
C42   H27   S    
C13   C17   A    
C20   H14   S    
C2    C3    A    
C17   C44   A    
C6    C13   A    
C37   H1    S    
C35   N2    A    
C30   C31   A    
C23   C39   S    
C33   C35   A    
C3    C45   A    
C34   H12   S    
C23   H29   S    
C12   C38   S    
C43   C46   A    
C10   C11   A    
C29   H17   S    
C20   C21   A    
C16   O6    A    
Cu1   O7    S    
C21   C24   A    
Cu1   N2    S    
C9    H5    S    
Cu2   O8    S    
C43   C47   A    
