data_mof_unit_35461.cif
_audit_creation_date              2012-12-11T14:56:34-0500
_audit_creation_method            fapswitch 2.2
_symmetry_space_group_name_H-M    P1
_symmetry_Int_Tables_number       1
_space_group_crystal_system       triclinic
_cell_length_a                    10.566995
_cell_length_b                    10.630817
_cell_length_c                    17.094144
_cell_angle_alpha                 80.506719
_cell_angle_beta                  89.731034
_cell_angle_gamma                 119.190088
_cell_volume                      1645.36027021

loop_
_atom_site_label
_atom_site_type_symbol
_atom_type_description
_atom_site_fract_x
_atom_site_fract_y
_atom_site_fract_z
_atom_type_partial_charge
C1    C     C_R   0.216339 0.850924 0.127461 0.554083
C2    C     C_R   0.789502 0.394478 0.267687 -0.154024
C3    C     C_R   0.785723 0.392665 0.187979 -0.158486
C4    C     C_R   0.655899 0.354391 0.153369 0.033456
C5    C     C_1   0.669162 0.848409 0.205338 -0.027331
C6    C     C_1   0.680580 0.839100 0.274791 -0.030098
C7    C     C_1   0.150387 0.811069 0.207186 -0.044581
C8    C     C_1   0.102857 0.799341 0.273678 -0.040838
C9    C     C_1   0.644262 0.323992 0.778190 -0.057968
C10   C     C_1   0.651526 0.345550 0.707571 -0.057145
C11   C     C_R   0.624733 0.712301 0.804636 -0.130858
C12   C     C_R   0.637452 0.283772 0.084883 0.570078
C13   C     C_R   0.612770 0.697055 0.726351 -0.126930
C14   C     C_R   0.670654 0.821982 0.665533 0.038175
C15   C     C_R   0.747853 0.962468 0.683175 -0.133835
C16   C     C_R   0.756971 0.978014 0.762095 -0.130019
C17   C     C_R   0.689509 0.852557 0.822830 0.031089
C18   C     C_R   0.286836 0.998004 0.747764 -0.141091
C19   C     C_R   0.250600 0.975491 0.671637 -0.122893
C20   C     C_R   0.183568 0.832747 0.655078 0.024361
C21   C     C_R   0.170119 0.715921 0.712681 -0.134833
C22   C     C_R   0.209479 0.739194 0.788616 -0.118559
C23   C     C_R   0.640707 0.858103 0.125266 0.558696
C24   C     C_R   0.260355 0.879061 0.807462 0.026670
C25   C     C_R   0.686623 0.810074 0.357222 0.544574
C26   C     C_R   0.687391 0.393371 0.395152 0.542803
C27   C     C_R   0.048213 0.788942 0.352548 0.551058
C28   C     C_R   0.677930 0.800231 0.585522 0.543611
C29   C     C_R   0.678692 0.382246 0.624451 0.547063
C30   C     C_R   0.103825 0.804629 0.584817 0.557007
C31   C     C_R   0.288580 0.903115 0.888479 0.554720
C32   C     C_R   0.637498 0.285037 0.861028 0.539781
C33   C     C_R   0.647205 0.866555 0.899555 0.542675
C34   C     C_R   0.534584 0.343218 0.196619 -0.009869
C35   C     C_R   0.536066 0.337623 0.279379 -0.057605
C36   C     C_R   0.664873 0.362817 0.314936 0.005065
Cr1   Cr    Cr6+3 0.402240 0.783890 0.019450 1.066794
Cr2   Cr    Cr6+3 0.382360 0.097900 0.991800 1.059230
Cr3   Cr    Cr6+3 0.715380 0.118170 0.988700 1.029837
Cr4   Cr    Cr6+3 0.936650 0.882420 0.465510 1.051735
Cr5   Cr    Cr6+3 0.605770 0.565620 0.493360 1.043054
Cr6   Cr    Cr6+3 0.921340 0.550490 0.496380 1.029957
H1    H     H_    0.265439 0.068359 0.627335 0.144432
H2    H     H_    0.119936 0.605377 0.700943 0.136829
H3    H     H_    0.192328 0.646075 0.833392 0.145596
H4    H     H_    0.892515 0.422347 0.291895 0.157660
H5    H     H_    0.882330 0.409721 0.154881 0.151535
H6    H     H_    0.573661 0.614642 0.851012 0.146740
H7    H     H_    0.560332 0.587198 0.713445 0.139645
H8    H     H_    0.798673 0.059047 0.636165 0.130968
H9    H     H_    0.806969 0.087553 0.775293 0.144548
H10   H     H_    0.330809 0.107266 0.760723 0.126693
O1    O     O_R   0.521780 0.757110 0.108900 -0.476263
O2    O     O_R   0.513330 0.228330 0.898660 -0.516920
O3    O     O_R   0.739230 0.266130 0.888050 -0.510837
O4    O     O_R   0.712580 0.991850 0.918770 -0.509644
O5    O     O_3   0.499990 0.999980 0.999980 -0.287561
O6    O     O_R   0.083770 0.911170 0.376030 -0.486896
O7    O     O_R   0.808770 0.880340 0.383890 -0.509658
O8    O     O_R   0.584340 0.689460 0.394160 -0.496390
O9    O     O_R   0.614320 0.443940 0.423590 -0.486978
O10   O     O_R   0.805020 0.410040 0.421340 -0.529263
O11   O     O_R   0.049240 0.685450 0.403290 -0.493501
O12   O     O_R   0.275160 0.783810 0.101120 -0.488689
O13   O     O_R   0.077520 0.903010 0.551800 -0.507970
O14   O     O_R   0.802980 0.872780 0.546830 -0.496944
O15   O     O_R   0.578090 0.681300 0.569920 -0.518838
O16   O     O_R   0.608530 0.436370 0.586530 -0.502961
O17   O     O_R   0.798770 0.401880 0.597100 -0.512167
O18   O     O_R   0.043450 0.677890 0.566230 -0.498861
O19   O     O_3   0.821250 0.666180 0.485090 -0.278160
O20   O     O_R   0.237900 0.972600 0.090980 -0.503114
O21   O     O_R   0.511190 0.220540 0.061620 -0.462248
O22   O     O_R   0.736920 0.257720 0.063840 -0.523891
O23   O     O_R   0.710450 0.984050 0.081720 -0.496329
O24   O     O_R   0.524090 0.765520 0.933110 -0.506632
O25   O     O_R   0.277300 0.791600 0.938160 -0.505059
O26   O     O_R   0.240210 0.981010 0.915190 -0.505012
C37   C     C_2   0.408942 0.341222 0.156444 0.263370
H11   H     H_    0.300533 0.283499 0.187850 0.112856
O27   O     O_2   0.426910 0.409845 0.088747 -0.488657
C38   C     C_1   0.406444 0.306391 0.327010 0.209159
N1    N     N_1   0.302965 0.281342 0.364947 -0.279202

loop_
_geom_bond_atom_site_label_1
_geom_bond_atom_site_label_2
_ccdc_geom_bond_type
Cr4   O19   S    
C12   O22   A    
C19   C20   A    
C16   H9    S    
Cr5   O9    S    
C18   H10   S    
C7    C8    T    
Cr5   O15   S    
Cr2   O20   S    
C20   C30   S    
C2    H4    S    
C18   C24   A    
C21   C22   A    
C26   O9    A    
C18   C19   A    
C5    C6    T    
Cr3   O22   S    
C6    C25   S    
C15   C16   A    
C29   O16   A    
Cr6   O18   S    
C34   C35   A    
C15   H8    S    
C9    C32   S    
Cr3   O3    S    
C35   C36   A    
C16   C17   A    
C5    C23   S    
C31   O25   A    
C25   O8    A    
Cr3   O23   S    
C4    C12   S    
C9    C10   T    
Cr6   O10   S    
C32   O3    A    
Cr5   O19   S    
Cr1   O1    S    
C33   O4    A    
Cr4   O7    S    
Cr4   O14   S    
C13   C14   A    
C11   H6    S    
C17   C33   S    
C32   O2    A    
C30   O18   A    
C35   C38   S    
C19   H1    S    
C23   O1    A    
Cr5   O16   S    
C29   O17   A    
C4    C34   A    
C1    O20   A    
Cr4   O6    S    
C28   O15   A    
C37   O27   D    
Cr2   O26   S    
Cr1   O25   S    
Cr6   O17   S    
C28   O14   A    
C34   C37   S    
C21   H2    S    
C33   O24   A    
Cr3   O4    S    
Cr2   O2    S    
C27   O11   A    
C13   H7    S    
C26   C36   S    
Cr1   O24   S    
Cr4   O13   S    
C22   C24   A    
C3    C4    A    
C1    O12   A    
Cr1   O12   S    
C31   O26   A    
C2    C36   A    
C11   C17   A    
C1    C7    S    
Cr5   O8    S    
C23   O23   A    
C27   O6    A    
C2    C3    A    
C26   O10   A    
C24   C31   S    
C11   C13   A    
C10   C29   S    
Cr2   O5    S    
C3    H5    S    
Cr6   O19   S    
C30   O13   A    
C37   H11   S    
C22   H3    S    
C20   C21   A    
C38   N1    T    
C8    C27   S    
C14   C15   A    
C25   O7    A    
C14   C28   S    
C12   O21   A    
Cr6   O11   S    
Cr1   O5    S    
Cr2   O21   S    
Cr3   O5    S    
