data_mof_unit_25112.cif
_audit_creation_date              2012-12-10T18:19:12-0500
_audit_creation_method            fapswitch 2.2
_symmetry_space_group_name_H-M    P1
_symmetry_Int_Tables_number       1
_space_group_crystal_system       triclinic
_cell_length_a                    14.9102
_cell_length_b                    14.0363
_cell_length_c                    11.54531
_cell_angle_alpha                 89.94242
_cell_angle_beta                  89.835974
_cell_angle_gamma                 89.3792
_cell_volume                      2416.09624691

loop_
_atom_site_label
_atom_site_type_symbol
_atom_type_description
_atom_site_fract_x
_atom_site_fract_y
_atom_site_fract_z
_atom_type_partial_charge
C1    C     C_R   0.327070 0.500642 0.500701 0.967358
C2    C     C_R   0.452586 0.202412 0.582493 0.026956
C3    C     C_R   0.453040 0.798535 0.582909 0.019648
C4    C     C_R   0.547546 0.201485 0.417598 0.025316
C5    C     C_R   0.451876 0.899355 0.585473 -0.020887
C6    C     C_R   0.549161 0.100648 0.415338 -0.024378
C7    C     C_R   0.548749 0.898368 0.414932 -0.029875
C8    C     C_R   0.451886 0.101608 0.585548 -0.026805
C9    C     C_R   0.499940 0.949533 0.499849 -0.086519
C10   C     C_R   0.500790 0.050464 0.500676 -0.085967
C11   C     C_R   0.405551 0.950087 0.673006 0.325267
C12   C     C_R   0.672958 0.499535 0.500705 0.872700
C13   C     C_R   0.596484 0.049894 0.328626 0.326614
C14   C     C_R   0.599031 0.948141 0.331046 0.329988
C15   C     C_R   0.402355 0.051789 0.670131 0.330268
C16   C     C_R   0.499954 0.500041 0.281768 0.932741
C17   C     C_R   0.500036 0.499964 0.718231 0.881209
C18   C     C_1   0.499993 0.500107 0.161399 -0.138667
C19   C     C_1   0.499999 0.499913 0.838593 -0.141077
C20   C     C_1   0.500001 0.500069 0.059282 0.035909
C21   C     C_1   0.499990 0.499969 0.940709 0.038532
C22   C     C_R   0.813125 0.516500 0.393864 0.385535
C23   C     C_R   0.906725 0.524451 0.394119 -0.093079
C24   C     C_R   0.186535 0.511535 0.610965 0.345825
C25   C     C_R   0.768586 0.499028 0.499213 -0.283393
C26   C     C_R   0.231586 0.503819 0.504193 -0.217437
C27   C     C_R   0.814021 0.494356 0.605489 0.381292
C28   C     C_R   0.187268 0.508665 0.398468 0.355143
C29   C     C_R   0.905245 0.516325 0.607959 -0.054465
C30   C     C_R   0.094660 0.527319 0.397240 -0.145404
C31   C     C_R   0.952740 0.523741 0.501820 -0.159420
C32   C     C_R   0.046816 0.525638 0.503295 -0.126788
C33   C     C_3   0.079594 0.642239 0.857537 0.136821
C34   C     C_R   0.093032 0.523386 0.610633 -0.071967
C35   C     C_3   0.153912 0.704256 0.806414 -0.349853
C36   C     C_3   0.146516 0.806339 0.851045 -0.909715
C37   C     C_3   0.902885 0.449951 0.134949 0.153247
C38   C     C_3   0.985150 0.419795 0.063335 -0.315049
C39   C     C_3   0.965699 0.332854 0.988644 -0.859243
C40   C     C_R   0.951082 0.528327 0.714124 0.323572
C41   C     C_R   0.048205 0.545999 0.293090 0.294220
C42   C     C_R   0.044444 0.534300 0.715031 0.476853
C43   C     C_R   0.955706 0.535054 0.289539 0.518490
C44   C     C_R   0.547570 0.797555 0.417614 0.031492
H1    H     H_    0.584564 0.756266 0.354019 0.199226
H2    H     H_    0.142945 0.615386 0.216573 0.369111
H3    H     H_    0.086128 0.642370 0.953371 0.209775
H4    H     H_    0.012768 0.674793 0.838179 0.131580
H5    H     H_    0.220551 0.674155 0.830504 0.273823
H6    H     H_    0.148681 0.705327 0.710438 0.217456
H7    H     H_    0.080067 0.837743 0.828650 0.260666
H8    H     H_    0.199317 0.850332 0.810343 0.303439
H9    H     H_    0.155388 0.807918 0.946546 0.272129
H10   H     H_    0.843711 0.453615 0.076747 0.212402
H11   H     H_    0.887606 0.394514 0.201378 0.102955
H12   H     H_    0.415491 0.243668 0.646023 0.192137
H13   H     H_    0.005460 0.479544 0.006456 0.313461
H14   H     H_    0.041801 0.402107 0.122073 0.212547
H15   H     H_    0.945980 0.271759 0.044027 0.249231
H16   H     H_    0.026823 0.312627 0.938870 0.280564
H17   H     H_    0.910942 0.349118 0.926397 0.300614
H18   H     H_    0.364951 0.938378 0.832397 0.351798
H19   H     H_    0.639578 0.062159 0.170415 0.352778
H20   H     H_    0.703476 0.934381 0.231248 0.352772
H21   H     H_    0.298782 0.064970 0.771532 0.347241
H22   H     H_    0.416472 0.758034 0.646972 0.188982
H23   H     H_    0.584220 0.242026 0.353691 0.187843
H24   H     H_    0.706959 0.498265 0.295684 0.316205
H25   H     H_    0.294503 0.484671 0.704830 0.316791
H26   H     H_    0.714020 0.436246 0.691019 0.340147
H27   H     H_    0.197501 0.453514 0.245198 0.361988
H28   H     H_    0.856702 0.582443 0.807573 0.368114
N1    N     N_R   0.500000 0.750030 0.500000 -0.146084
N2    N     N_R   0.500000 0.249970 0.500000 -0.143816
O1    O     O_R   0.367850 0.580280 0.500030 -0.618719
O2    O     O_3   0.231157 0.503986 0.715925 -0.715687
O3    O     O_3   0.771362 0.468129 0.707408 -0.746482
O4    O     O_3   0.236140 0.489558 0.298961 -0.765427
O5    O     O_3   0.906924 0.536496 0.818773 -0.725081
O6    O     O_3   0.090193 0.577500 0.193622 -0.763926
O7    O     O_3   0.088270 0.546407 0.819782 -0.564542
O8    O     O_3   0.913808 0.542132 0.182844 -0.549758
O9    O     O_3   0.366267 0.898811 0.761449 -0.803451
O10   O     O_3   0.637904 0.101191 0.241791 -0.785616
O11   O     O_3   0.651099 0.895905 0.254344 -0.769439
O12   O     O_R   0.632150 0.419720 0.499970 -0.634444
O13   O     O_3   0.350575 0.103883 0.747295 -0.777987
O14   O     O_R   0.632150 0.580280 0.499970 -0.593143
O15   O     O_R   0.367850 0.419720 0.500030 -0.608638
O16   O     O_R   0.500010 0.580270 0.334450 -0.610923
O17   O     O_R   0.499990 0.419730 0.665550 -0.627260
O18   O     O_R   0.499990 0.580270 0.665550 -0.616017
O19   O     O_R   0.500010 0.419730 0.334450 -0.616161
O20   O     O_3   0.766758 0.527784 0.290744 -0.724911
Zn1   Zn    Zn3+2 0.500000 0.607200 0.500000 0.980285
Zn2   Zn    Zn3+2 0.500000 0.392800 0.500000 0.966446

loop_
_geom_bond_atom_site_label_1
_geom_bond_atom_site_label_2
_ccdc_geom_bond_type
C30   C32   A    
H18   O9    S    
C16   O16   A    
C27   C29   A    
C22   O20   S    
C35   C36   S    
C17   O17   A    
C41   O6    S    
O1    Zn1   S    
O16   Zn1   S    
C42   O7    S    
C13   O10   S    
C16   O19   A    
C19   C21   T    
C24   C26   A    
C5    C11   A    
H28   O5    S    
C38   C39   S    
C23   C43   A    
H25   O2    S    
C27   O3    S    
C36   H9    S    
C33   C35   S    
O17   Zn2   S    
C38   H14   S    
C11   C15   A    
C7    C14   A    
C22   C25   A    
C34   C42   A    
C35   H5    S    
C30   C41   A    
C28   O4    S    
C9    C10   A    
C4    N2    A    
C36   H8    S    
C40   C42   A    
O14   Zn1   S    
C13   C14   A    
H26   O3    S    
C41   C43   A    
C17   O18   A    
H21   O13   S    
C39   H17   S    
C12   O14   A    
C1    O1    A    
N2    Zn2   S    
C4    C6    A    
C24   O2    S    
C8    C15   A    
C11   O9    S    
O18   Zn1   S    
C24   C34   A    
C32   C34   A    
C5    C9    A    
C37   C38   S    
C38   H13   S    
C31   C32   A    
C39   H15   S    
C35   H6    S    
C40   O5    S    
C7    C44   A    
C36   H7    S    
O12   Zn2   S    
C37   H10   S    
C16   C18   S    
O19   Zn2   S    
C1    C26   S    
C33   H3    S    
C37   O8    S    
C3    H22   S    
N1    Zn1   S    
H20   O11   S    
C44   H1    S    
C15   O13   S    
C7    C9    A    
C1    O15   A    
C2    C8    A    
C14   O11   S    
C3    C5    A    
C2    N2    A    
C6    C10   A    
C4    H23   S    
C25   C27   A    
C12   C25   S    
C26   C28   A    
C12   O12   A    
H19   O10   S    
O15   Zn2   S    
C28   C30   A    
C29   C31   A    
C2    H12   S    
C6    C13   A    
H2    O6    S    
C39   H16   S    
C29   C40   A    
C17   C19   S    
C18   C20   T    
C44   N1    A    
C3    N1    A    
H24   O20   S    
C37   H11   S    
C20   C21   S    
C8    C10   A    
C33   H4    S    
C22   C23   A    
C33   O7    S    
H27   O4    S    
C43   O8    S    
C23   C31   A    
