data_mof_unit_45134.cif
_audit_creation_date              2012-12-10T19:03:03-0500
_audit_creation_method            fapswitch 2.2
_symmetry_space_group_name_H-M    P1
_symmetry_Int_Tables_number       1
_space_group_crystal_system       triclinic
_cell_length_a                    10.732519
_cell_length_b                    10.826496
_cell_length_c                    9.557241
_cell_angle_alpha                 90.405883
_cell_angle_beta                  90.456682
_cell_angle_gamma                 90.748822
_cell_volume                      1110.35029719

loop_
_atom_site_label
_atom_site_type_symbol
_atom_type_description
_atom_site_fract_x
_atom_site_fract_y
_atom_site_fract_z
_atom_type_partial_charge
C1    C     C_R   0.498327 0.262348 0.499584 0.817711
C2    C     C_3   0.878111 0.492313 0.501233 0.089472
C3    C     C_3   0.929262 0.625174 0.478392 -0.490261
C4    C     C_3   0.926272 0.408024 0.381398 -0.359248
C5    C     C_R   0.477781 0.064358 0.623924 0.119756
C6    C     C_R   0.487414 0.129051 0.498515 -0.094986
C7    C     C_R   0.481466 0.063064 0.371460 -0.195824
C8    C     C_R   0.481042 0.934465 0.371868 -0.225508
C9    C     C_R   0.487814 0.870673 0.499364 -0.101819
C10   C     C_R   0.478495 0.937120 0.624364 0.132100
C11   C     C_3   0.558263 0.933394 0.752990 -0.481221
C12   C     C_R   0.259883 0.496258 0.499661 0.779482
C13   C     C_3   0.556655 0.073522 0.753124 -0.461576
C14   C     C_R   0.557672 0.593264 0.075021 0.242699
C15   C     C_R   0.429086 0.417384 0.071814 0.037725
C16   C     C_R   0.430403 0.416979 0.923200 -0.130296
C17   C     C_R   0.557412 0.593502 0.927902 0.261044
C18   C     C_3   0.691690 0.630302 0.924588 -0.522308
C19   C     C_3   0.691524 0.630413 0.083347 -0.504243
C20   C     C_R   0.498571 0.737628 0.500189 0.796430
C21   C     C_R   0.739993 0.495532 0.500424 0.794021
C22   C     C_3   0.072742 0.445181 0.642026 -0.411947
C23   C     C_3   0.929016 0.443056 0.643423 0.392217
C24   C     C_3   0.072880 0.625634 0.476263 -0.393479
C25   C     C_3   0.069868 0.407043 0.382411 -0.365716
C26   C     C_3   0.121840 0.493531 0.499781 0.091081
Cu1   Cu    Cu3+1 0.499990 0.499980 0.640670 0.939640
Cu2   Cu    Cu3+1 0.500010 0.500020 0.359330 0.943240
H1    H     H_    0.107006 0.505647 0.729290 0.139031
H2    H     H_    0.893446 0.442058 0.278151 0.160022
H3    H     H_    0.105967 0.661426 0.373972 0.179364
H4    H     H_    0.893294 0.662309 0.377723 0.188192
H5    H     H_    0.483609 0.110017 0.271901 0.175016
H6    H     H_    0.481846 0.885811 0.272453 0.164389
H7    H     H_    0.508438 0.892087 0.843205 0.197500
H8    H     H_    0.652072 0.895307 0.732209 0.190644
H9    H     H_    0.505107 0.113291 0.842899 0.193400
H10   H     H_    0.649475 0.116449 0.733516 0.214616
H11   H     H_    0.109476 0.351038 0.661407 0.184071
H12   H     H_    0.375927 0.348882 0.864946 0.141982
H13   H     H_    0.750789 0.557132 0.880444 0.203710
H14   H     H_    0.706678 0.723516 0.879728 0.188626
H15   H     H_    0.751316 0.557602 0.128424 0.208825
H16   H     H_    0.704855 0.723989 0.130140 0.191922
H17   H     H_    0.898577 0.507865 0.727215 0.059796
H18   H     H_    0.109738 0.689096 0.559360 0.164534
H19   H     H_    0.896775 0.687439 0.563445 0.157556
H20   H     H_    0.103965 0.437677 0.278446 0.185663
H21   H     H_    0.102729 0.311171 0.399194 0.182963
H22   H     H_    0.889185 0.312218 0.392916 0.192851
N1    N     N_R   0.500800 0.500930 0.147930 -0.208796
N2    N     N_R   0.500800 0.500890 0.852020 -0.188856
O1    O     O_R   0.500000 0.319640 0.618810 -0.579272
O2    O     O_R   0.500010 0.319680 0.381230 -0.579895
O3    O     O_R   0.317690 0.499960 0.618790 -0.591473
O4    O     O_R   0.317700 0.500000 0.381210 -0.581405
O5    O     O_R   0.499990 0.680320 0.618770 -0.577421
O6    O     O_R   0.500000 0.680360 0.381190 -0.586248
O7    O     O_R   0.682300 0.500000 0.618790 -0.577654
O8    O     O_R   0.682310 0.500040 0.381210 -0.594740
C27   C     C_1   0.349819 0.328662 0.139846 0.262874
N3    N     N_1   0.285250 0.256859 0.192953 -0.343268
O9    O     O_3   0.884068 0.320661 0.664981 -0.578393
C28   C     C_3   0.872496 0.296130 0.809187 -0.356464
H23   H     H_    0.789039 0.342329 0.851812 0.177634
H24   H     H_    0.957412 0.324386 0.869624 0.152073
H25   H     H_    0.859321 0.195199 0.822947 0.188445

loop_
_geom_bond_atom_site_label_1
_geom_bond_atom_site_label_2
_ccdc_geom_bond_type
C2    C4    S    
C1    O2    A    
Cu1   O1    S    
C6    C7    A    
C23   H17   S    
C22   H1    S    
C15   N1    A    
C11   C13   S    
C9    C10   A    
C1    C6    S    
C9    C20   S    
C5    C13   S    
C14   N1    A    
C14   C17   A    
C24   H18   S    
C28   H23   S    
C2    C21   S    
C23   O9    S    
C17   C18   S    
C15   C27   S    
C24   H3    S    
C7    C8    A    
C8    H6    S    
C19   H16   S    
C7    H5    S    
C25   H20   S    
C13   H10   S    
C27   N3    T    
C16   H12   S    
C5    C6    A    
C22   H11   S    
C12   C26   S    
C17   N2    A    
C11   H7    S    
C11   H8    S    
C12   O4    A    
C3    C24   S    
C19   H15   S    
C21   O7    A    
Cu2   O6    S    
Cu2   O8    S    
Cu1   O5    S    
C3    H4    S    
C24   C26   S    
Cu2   N1    S    
Cu1   O3    S    
C12   O3    A    
C10   C11   S    
C20   O6    A    
C15   C16   A    
C28   H25   S    
C4    C25   S    
C5    C10   A    
Cu1   N2    S    
C21   O8    A    
C18   C19   S    
C22   C26   S    
C18   H13   S    
C3    H19   S    
C2    C23   S    
C20   O5    A    
C1    O1    A    
C22   C23   S    
C8    C9    A    
C2    C3    S    
Cu1   O7    S    
C18   H14   S    
C25   C26   S    
Cu2   O2    S    
C13   H9    S    
C14   C19   S    
C4    H2    S    
Cu2   O4    S    
C16   N2    A    
C4    H22   S    
O9    C28   S    
Cu1   Cu2   S    
C25   H21   S    
C28   H24   S    
