data_mof_unit_16743.cif
_audit_creation_date              2012-12-10T17:07:43-0500
_audit_creation_method            fapswitch 2.2
_symmetry_space_group_name_H-M    P1
_symmetry_Int_Tables_number       1
_space_group_crystal_system       triclinic
_cell_length_a                    10.628555
_cell_length_b                    10.691345
_cell_length_c                    10.001641
_cell_angle_alpha                 89.305689
_cell_angle_beta                  89.931202
_cell_angle_gamma                 89.94862
_cell_volume                      1136.43724869

loop_
_atom_site_label
_atom_site_type_symbol
_atom_type_description
_atom_site_fract_x
_atom_site_fract_y
_atom_site_fract_z
_atom_type_partial_charge
C1    C     C_R   0.488263 0.262650 0.500473 0.909524
C2    C     C_2   0.572960 0.572682 0.074940 0.508696
C3    C     C_R   0.257754 0.503463 0.500201 0.846997
C4    C     C_R   0.501772 0.737580 0.499015 0.940183
C5    C     C_R   0.742386 0.501620 0.500134 0.839529
C6    C     C_3   0.071222 0.534715 0.642843 -0.407866
C7    C     C_3   0.928161 0.537300 0.641721 -0.499111
C8    C     C_3   0.071866 0.605267 0.401235 -0.430041
C9    C     C_3   0.073926 0.374128 0.458834 -0.425388
C10   C     C_3   0.121468 0.504607 0.500865 0.126061
C11   C     C_3   0.809452 0.222334 0.347616 0.137510
C12   C     C_3   0.878969 0.502404 0.500491 0.100058
C13   C     C_3   0.893942 0.106178 0.346171 -0.396548
C14   C     C_3   0.818391 0.987749 0.374665 -0.964647
C15   C     C_3   0.641343 0.778039 0.086203 0.064460
C16   C     C_3   0.770580 0.822170 0.037536 -0.352704
C17   C     C_3   0.764790 0.955064 0.980299 -0.972564
C18   C     C_3   0.927731 0.601822 0.398695 -0.356543
C19   C     C_3   0.929239 0.370189 0.464259 0.362952
C20   C     C_2   0.438292 0.929810 0.400185 -0.250042
C21   C     C_2   0.503795 0.869930 0.494697 -0.364320
C22   C     C_2   0.445669 0.064705 0.390727 0.099832
C23   C     C_2   0.447792 0.133892 0.503642 -0.068166
C24   C     C_2   0.584112 0.557407 0.924508 -0.270575
H1    H     H_    0.107450 0.626962 0.676136 0.183418
H2    H     H_    0.892936 0.470087 0.719065 0.192207
H3    H     H_    0.894434 0.632245 0.669376 0.192513
H4    H     H_    0.104458 0.699761 0.431404 0.161548
H5    H     H_    0.889725 0.695324 0.424454 0.151180
H6    H     H_    0.107681 0.352817 0.356096 0.203447
H7    H     H_    0.113211 0.300538 0.526705 0.119026
H8    H     H_    0.903063 0.304732 0.547932 0.038405
H9    H     H_    0.746342 0.219392 0.259263 0.171047
H10   H     H_    0.746644 0.221962 0.436878 0.109327
H11   H     H_    0.939832 0.098955 0.246626 0.229616
H12   H     H_    0.108086 0.588224 0.298565 0.189948
H13   H     H_    0.968789 0.113848 0.423051 0.217913
H14   H     H_    0.780668 0.988846 0.478249 0.260453
H15   H     H_    0.880631 0.905309 0.363811 0.259426
H16   H     H_    0.739129 0.979680 0.303395 0.269995
H17   H     H_    0.541160 0.079290 0.215925 0.165357
H18   H     H_    0.383621 0.095095 0.202100 0.172644
H19   H     H_    0.471179 0.064717 0.693699 0.182345
H20   H     H_    0.336646 0.012636 0.617715 0.204051
H21   H     H_    0.609444 0.840328 0.167565 0.167125
H22   H     H_    0.570956 0.789012 0.004047 0.114260
H23   H     H_    0.895552 0.580225 0.295649 0.234057
H24   H     H_    0.838123 0.819280 0.122273 0.231489
H25   H     H_    0.805745 0.758391 0.958974 0.211546
H26   H     H_    0.700697 0.959038 0.892671 0.260880
H27   H     H_    0.860196 0.984573 0.947488 0.265605
H28   H     H_    0.730917 0.021201 0.057176 0.261232
H29   H     H_    0.387875 0.879559 0.323007 0.164065
H30   H     H_    0.560354 0.917837 0.568222 0.143210
H31   H     H_    0.663634 0.600477 0.874049 0.178852
H32   H     H_    0.420588 0.470552 0.898416 0.152984
H33   H     H_    0.103305 0.462459 0.716452 0.189553
H34   H     H_    0.453134 0.430627 0.101923 0.111393
N1    N     N_2   0.501360 0.501330 0.852150 -0.206612
N2    N     N_2   0.501390 0.501360 0.147810 -0.219243
N3    N     N_3   0.461651 0.119273 0.259803 -0.436173
N4    N     N_3   0.397253 0.088625 0.629491 -0.473960
O1    O     O_R   0.499980 0.319060 0.613040 -0.601079
O2    O     O_3   0.651625 0.655362 0.140322 -0.605613
O3    O     O_R   0.500020 0.319100 0.386900 -0.606734
O4    O     O_R   0.314770 0.499960 0.613070 -0.626865
O5    O     O_R   0.314820 0.500000 0.386930 -0.634255
O6    O     O_R   0.499980 0.680900 0.613100 -0.618116
O7    O     O_R   0.500020 0.680940 0.386960 -0.585747
O8    O     O_R   0.685180 0.500000 0.613070 -0.637635
O9    O     O_R   0.685230 0.500040 0.386930 -0.549612
O10   O     O_3   0.882409 0.332765 0.337506 -0.639218
Zn1   Zn    Zn3+2 0.499970 0.499970 0.650990 0.927786
Zn2   Zn    Zn3+2 0.500030 0.500030 0.349010 0.975680

loop_
_geom_bond_atom_site_label_1
_geom_bond_atom_site_label_2
_ccdc_geom_bond_type
C17   H26   S    
C6    C10   S    
O9    Zn2   S    
C1    O3    A    
C15   O2    S    
C13   H11   S    
C6    C7    S    
C14   H14   S    
C9    C10   S    
N1    Zn1   S    
C13   H13   S    
C6    H33   S    
H32   N1    S    
H17   N3    S    
C18   H23   S    
C17   H27   S    
O8    Zn1   S    
C8    C18   S    
C14   H15   S    
O7    Zn2   S    
C5    O9    A    
O5    Zn2   S    
C13   C14   S    
C20   C21   D    
C22   N3    S    
C4    C21   S    
C11   C13   S    
H18   N3    S    
C16   H24   S    
C19   O10   S    
C5    O8    A    
C7    H2    S    
C9    H6    S    
C24   N1    D    
C19   H8    S    
C1    O1    A    
C12   C19   S    
N2    Zn2   S    
C4    O7    A    
C14   H16   S    
C2    O2    S    
C1    C23   S    
C23   N4    S    
C2    C24   S    
C21   H30   S    
C8    H4    S    
C2    N2    D    
C7    C12   S    
C3    O4    A    
C9    H7    S    
H34   N2    S    
C15   C16   S    
C6    H1    S    
H19   N4    S    
C11   H9    S    
C7    H3    S    
C16   H25   S    
C17   H28   S    
C5    C12   S    
C8    C10   S    
C8    H12   S    
C12   C18   S    
C3    C10   S    
C15   H21   S    
C11   O10   S    
C16   C17   S    
O1    Zn1   S    
C15   H22   S    
H20   N4    S    
O6    Zn1   S    
C22   C23   D    
O4    Zn1   S    
C4    O6    A    
C9    C19   S    
C11   H10   S    
C3    O5    A    
O3    Zn2   S    
C18   H5    S    
C20   C22   S    
C20   H29   S    
C24   H31   S    
