data_mof_unit_29926.cif
_audit_creation_date              2012-12-11T17:29:46-0500
_audit_creation_method            fapswitch 2.2
_symmetry_space_group_name_H-M    P1
_symmetry_Int_Tables_number       1
_space_group_crystal_system       triclinic
_cell_length_a                    18.86214
_cell_length_b                    18.791009
_cell_length_c                    20.383844
_cell_angle_alpha                 107.08335
_cell_angle_beta                  106.326207
_cell_angle_gamma                 110.928885
_cell_volume                      5816.27114565

loop_
_atom_site_label
_atom_site_type_symbol
_atom_type_description
_atom_site_fract_x
_atom_site_fract_y
_atom_site_fract_z
_atom_type_partial_charge
C1    C     C_R   0.085530 0.088257 0.353729 -0.150303
C2    C     C_R   0.758314 0.994561 0.550750 0.079218
C3    C     C_R   0.758219 0.793711 0.273825 0.083687
C4    C     C_R   0.963264 0.219715 0.465422 0.063890
C5    C     C_R   0.229752 0.228926 0.646255 -0.101976
C6    C     C_R   0.920291 0.756229 0.494354 -0.143067
C7    C     C_R   0.175724 0.928394 0.478898 -0.130678
C8    C     C_R   0.034469 0.052483 0.717944 -0.123650
C9    C     C_R   0.966855 0.911333 0.653271 -0.150911
C10   C     C_R   0.245281 0.069834 0.543128 -0.151225
C11   C     C_R   0.151528 0.221761 0.709896 -0.143043
C12   C     C_R   0.761982 0.925849 0.505692 -0.143341
C13   C     C_R   0.997945 0.762694 0.430246 -0.144833
C14   C     C_R   0.227239 0.272639 0.712705 0.089864
C15   C     C_R   0.945486 0.708601 0.449908 0.083877
C16   C     C_R   0.253522 0.997135 0.532858 0.067512
C17   C     C_R   0.023760 0.978292 0.724606 0.111523
C18   C     C_R   0.940230 0.575507 0.371063 -0.216714
C19   C     C_R   0.912819 0.616253 0.420028 0.100914
C20   C     C_R   0.859750 0.569633 0.445468 -0.251965
C21   C     C_R   0.844988 0.487551 0.432243 0.181736
C22   C     C_R   0.882251 0.451110 0.391537 -0.021477
C23   C     C_R   0.839823 0.816906 0.281313 -0.135137
C24   C     C_R   0.925855 0.493056 0.356854 -0.047077
C25   C     C_R   0.800733 0.444875 0.465615 -0.212911
C26   C     C_R   0.801547 0.371211 0.466096 -0.205993
C27   C     C_R   0.847120 0.340306 0.433669 0.159424
C28   C     C_R   0.883666 0.377445 0.392606 0.029836
C29   C     C_R   0.929729 0.346714 0.360058 0.072891
C30   C     C_R   0.964232 0.382720 0.317874 -0.345873
C31   C     C_R   0.960784 0.454706 0.314471 0.538885
C32   C     C_R   0.864868 0.279632 0.449085 -0.255525
C33   C     C_R   0.922255 0.259369 0.427508 0.107993
C34   C     C_R   0.948235 0.195289 0.520312 -0.120731
C35   C     C_R   0.947920 0.286751 0.376984 -0.201718
C36   C     C_R   0.406774 0.069251 0.615835 -0.257061
C37   C     C_R   0.330662 0.993863 0.569576 0.120758
C38   C     C_R   0.330228 0.915592 0.551345 -0.225454
C39   C     C_R   0.405556 0.911901 0.564128 -0.048289
C40   C     C_R   0.482057 0.989375 0.602931 -0.010068
C41   C     C_R   0.482561 0.067664 0.632641 0.183039
C42   C     C_R   0.407049 0.833975 0.535116 0.511907
C43   C     C_R   0.482945 0.835479 0.540143 -0.266004
C44   C     C_R   0.556291 0.912496 0.570399 0.042773
C45   C     C_R   0.761342 0.810992 0.346074 -0.136907
C46   C     C_R   0.557162 0.989481 0.605845 0.031992
C47   C     C_R   0.631481 0.067240 0.637649 0.163742
C48   C     C_R   0.632782 0.143818 0.674066 -0.212617
C49   C     C_R   0.558466 0.144016 0.671639 -0.213125
C50   C     C_R   0.626139 0.914043 0.558883 -0.213087
C51   C     C_R   0.695657 0.991834 0.580877 0.110904
C52   C     C_R   0.700673 0.067779 0.625769 -0.262507
C53   C     C_R   0.283165 0.361513 0.769269 -0.008502
C54   C     C_R   0.288408 0.382721 0.842940 -0.278055
C55   C     C_R   0.339407 0.465064 0.899119 -0.188555
C56   C     C_R   0.026189 0.202004 0.455400 -0.104823
C57   C     C_R   0.387570 0.528950 0.883241 0.198762
C58   C     C_R   0.379876 0.509050 0.809130 -0.350713
C59   C     C_R   0.328884 0.425161 0.751525 0.559496
C60   C     C_R   0.609758 0.676033 0.066062 0.577441
C61   C     C_R   0.683399 0.719382 0.133176 -0.338669
C62   C     C_R   0.535729 0.678231 0.067758 0.060514
C63   C     C_R   0.683475 0.759400 0.202929 0.083453
C64   C     C_R   0.610806 0.762773 0.204350 -0.174399
C65   C     C_R   0.537644 0.722542 0.137118 -0.239620
C66   C     C_R   0.100499 0.029306 0.232533 0.142958
C67   C     C_R   0.831276 0.066012 0.570281 -0.145919
C68   C     C_R   0.106476 0.960905 0.187767 -0.188641
C69   C     C_R   0.133868 0.965570 0.131793 -0.163632
C70   C     C_R   0.155438 0.039030 0.119634 0.227557
C71   C     C_R   0.155858 0.109387 0.168379 -0.188112
C72   C     C_R   0.128383 0.104711 0.224333 -0.176370
C73   C     C_R   0.177910 0.040960 0.922755 0.415967
C74   C     C_R   0.147756 0.039569 0.850698 0.344811
C75   C     C_R   0.134754 0.969071 0.932813 0.062807
C76   C     C_R   0.068767 0.972014 0.792771 -0.082975
C77   C     C_R   0.030639 0.899038 0.802160 -0.231135
C78   C     C_R   0.016785 0.947978 0.289419 -0.129546
C79   C     C_R   0.064840 0.897003 0.871005 -0.253537
C80   C     C_R   0.064075 0.022039 0.286697 0.048500
H1    H     H_    0.133621 0.153245 0.376265 0.096149
H2    H     H_    0.869591 0.732408 0.510001 0.088659
H3    H     H_    0.158518 0.862038 0.456826 0.097366
H4    H     H_    0.074318 0.116540 0.762212 0.144878
H5    H     H_    0.946679 0.844841 0.637389 0.105697
H6    H     H_    0.292609 0.134738 0.580665 0.091338
H7    H     H_    0.122913 0.241655 0.745739 0.101503
H8    H     H_    0.019093 0.745048 0.387026 0.087823
H9    H     H_    0.978304 0.609617 0.348567 0.152156
H10   H     H_    0.835468 0.598816 0.481034 0.113578
H11   H     H_    0.770400 0.471448 0.495711 0.129718
H12   H     H_    0.722439 0.859760 0.489443 0.087944
H13   H     H_    0.771966 0.342226 0.496678 0.130637
H14   H     H_    0.840380 0.255299 0.484353 0.118017
H15   H     H_    0.988297 0.267902 0.356247 0.115984
H16   H     H_    0.997824 0.357982 0.290941 0.160815
H17   H     H_    0.408204 0.130090 0.633724 0.121095
H18   H     H_    0.270788 0.858241 0.522638 0.123503
H19   H     H_    0.482822 0.776018 0.514512 0.161892
H20   H     H_    0.622665 0.854635 0.527113 0.114570
H21   H     H_    0.860875 0.813950 0.237029 0.100381
H22   H     H_    0.755024 0.128305 0.646050 0.115851
H23   H     H_    0.689956 0.203819 0.699929 0.130692
H24   H     H_    0.559436 0.204218 0.695717 0.128538
H25   H     H_    0.738807 0.716284 0.130704 0.138749
H26   H     H_    0.416335 0.558602 0.797120 0.148394
H27   H     H_    0.609672 0.794640 0.257424 0.129156
H28   H     H_    0.344645 0.477155 0.956048 0.142763
H29   H     H_    0.480836 0.722077 0.139496 0.151963
H30   H     H_    0.903174 0.198788 0.542140 0.095505
H31   H     H_    0.254746 0.334727 0.858021 0.156823
H32   H     H_    0.171808 0.166024 0.159390 0.113816
H33   H     H_    0.124932 0.158618 0.258418 0.115297
H34   H     H_    0.971562 0.845188 0.757978 0.151672
H35   H     H_    0.133592 0.910114 0.095620 0.127222
H36   H     H_    0.031509 0.841987 0.878656 0.158810
H37   H     H_    0.088141 0.902910 0.194418 0.115349
H38   H     H_    0.709549 0.801147 0.361515 0.097130
H39   H     H_    0.053370 0.212329 0.416914 0.092595
H40   H     H_    0.856108 0.129086 0.613945 0.088770
H41   H     H_    0.000017 0.884322 0.252236 0.085944
H42   H     H_    0.274272 0.253685 0.624709 0.121779
N1    N     N_R   0.052570 0.055840 0.395080 -0.037974
N2    N     N_R   0.954640 0.834860 0.500130 -0.040038
N3    N     N_R   0.122510 0.958410 0.460270 -0.040337
N4    N     N_R   0.990190 0.031260 0.644790 -0.049553
N5    N     N_R   0.947430 0.944160 0.604920 -0.041446
N6    N     N_R   0.165270 0.045500 0.500140 -0.038680
N7    N     N_R   0.109810 0.150880 0.644800 -0.044680
N8    N     N_R   0.002890 0.838790 0.460260 -0.039857
N9    N     N_2   0.456742 0.606546 0.942473 -0.046963
N10   N     N_2   0.455995 0.620695 0.005833 -0.095424
N11   N     N_2   0.161254 0.039783 0.052087 -0.082426
N12   N     N_R   0.834730 0.954500 0.499860 -0.037516
N13   N     N_2   0.148910 0.971444 0.005464 -0.072717
N14   N     N_R   0.890190 0.849120 0.355200 -0.040692
N15   N     N_R   0.997110 0.161210 0.539740 -0.040785
N16   N     N_R   0.841940 0.845190 0.395070 -0.039583
N17   N     N_R   0.045360 0.165140 0.499870 -0.038243
N18   N     N_R   0.877490 0.041590 0.539730 -0.038987
N19   N     N_R   0.009810 0.968740 0.355210 -0.038039
N20   N     N_R   0.158060 0.154810 0.604930 -0.049775
Ni1   Ni    Ni4+2 0.104370 0.104380 0.500010 0.220531
Ni2   Ni    Ni4+2 0.895630 0.895620 0.499990 0.208869
Ni3   Ni    Ni4+2 0.006290 0.904630 0.408560 0.208535
Ni4   Ni    Ni4+2 0.993710 0.095370 0.591440 0.210377
O1    O     O_3   0.000426 0.492419 0.276911 -0.657910
C81   C     C_3   0.938769 0.467220 0.204300 0.156411
H43   H     H_    0.887735 0.482353 0.208755 0.097344
H44   H     H_    0.910785 0.397738 0.169065 0.106318
C82   C     C_3   0.980022 0.514812 0.164770 -0.234673
H45   H     H_    0.009858 0.584262 0.200434 0.195945
H46   H     H_    0.029812 0.499014 0.158108 0.205339
C83   C     C_3   0.915684 0.491589 0.086550 -1.041061
H47   H     H_    0.885645 0.422508 0.049548 0.271542
H48   H     H_    0.947668 0.526866 0.059250 0.273594
H49   H     H_    0.866354 0.508752 0.092090 0.268994
O2    O     O_3   0.336206 0.755489 0.498333 -0.745463
H50   H     H_    0.289594 0.758931 0.464629 0.308849
O3    O     O_3   0.610415 0.629169 0.999783 -0.663887
C84   C     C_3   0.584061 0.544088 0.988813 0.200575
H51   H     H_    0.545359 0.502499 0.926786 0.132988
H52   H     H_    0.543075 0.523411 0.017120 0.074603
C85   C     C_3   0.660277 0.529963 0.014975 -0.317179
H53   H     H_    0.701325 0.551864 0.987456 0.215921
H54   H     H_    0.697239 0.567144 0.077632 0.190902
C86   C     C_3   0.633076 0.436462 0.994551 -1.002273
H55   H     H_    0.592716 0.413467 0.022234 0.267985
H56   H     H_    0.689570 0.428377 0.014677 0.271503
H57   H     H_    0.597642 0.397712 0.931890 0.265381
O4    O     O_3   0.316681 0.406372 0.676821 -0.670133
C87   C     C_3   0.393836 0.430477 0.670370 0.134486
H58   H     H_    0.389875 0.372910 0.630172 0.114086
H59   H     H_    0.450425 0.456121 0.724534 0.085185
C88   C     C_3   0.405847 0.494757 0.637150 -0.227795
H60   H     H_    0.351657 0.466351 0.580906 0.209508
H61   H     H_    0.407823 0.552147 0.675412 0.198122
C89   C     C_3   0.487080 0.520810 0.627113 -1.021673
H62   H     H_    0.542308 0.551071 0.682956 0.270266
H63   H     H_    0.493666 0.567064 0.602614 0.276401
H64   H     H_    0.485906 0.464552 0.587887 0.265067
O5    O     O_3   0.194782 0.106914 0.839806 -0.680782
C90   C     C_3   0.235036 0.081388 0.795878 0.228926
H65   H     H_    0.191428 0.051115 0.734413 0.119877
H66   H     H_    0.255034 0.035794 0.808587 0.090862
C91   C     C_3   0.313858 0.159681 0.813280 -0.273832
H67   H     H_    0.297793 0.210016 0.809054 0.209666
H68   H     H_    0.361426 0.184310 0.872228 0.195938
C92   C     C_3   0.352042 0.138983 0.758430 -1.026785
H69   H     H_    0.370504 0.090073 0.762870 0.279919
H70   H     H_    0.408757 0.197135 0.772210 0.265277
H71   H     H_    0.305700 0.115196 0.699334 0.271968
O6    O     O_3   0.252222 0.109570 0.981981 -0.647798
C93   C     C_3   0.242147 0.182827 0.006774 0.274483
H72   H     H_    0.238249 0.193746 0.061936 0.090528
H73   H     H_    0.184234 0.178105 0.967062 0.083798
C94   C     C_3   0.319085 0.259930 0.019443 -0.245197
H74   H     H_    0.376845 0.267820 0.061827 0.199091
H75   H     H_    0.324777 0.249835 0.965197 0.214606
C95   C     C_3   0.312274 0.340891 0.047708 -1.060777
H76   H     H_    0.256096 0.335125 0.005091 0.271278
H77   H     H_    0.369193 0.395419 0.056452 0.272829
H78   H     H_    0.307484 0.353424 0.102623 0.273572

loop_
_geom_bond_atom_site_label_1
_geom_bond_atom_site_label_2
_ccdc_geom_bond_type
C45   H38   S    
C7    H3    S    
O4    C87   S    
N4    N5    A    
C6    H2    S    
C73   O6    S    
C94   C95   S    
C73   C74   A    
C66   C68   A    
O1    C81   S    
C81   C82   S    
C6    N2    A    
C38   H18   S    
C2    C12   A    
C49   H24   S    
C89   H62   S    
C53   C59   A    
C8    N4    A    
C86   H56   S    
C53   C54   A    
C40   C46   A    
N15   N17   A    
C52   H22   S    
C26   C27   A    
C9    N5    A    
C74   C76   A    
C23   N14   A    
C18   C24   A    
C85   H53   S    
C43   H19   S    
C90   H66   S    
N12   N18   A    
C38   C39   A    
C11   C14   A    
C59   O4    S    
C93   C94   S    
C4    C33   S    
C1    H1    S    
C13   H8    S    
C60   C62   A    
C18   C19   A    
C82   C83   S    
C94   H75   S    
C78   H41   S    
O5    C90   S    
C30   H16   S    
C9    H5    S    
C6    C15   A    
C46   C47   A    
N17   Ni1   S    
C66   C72   A    
C47   C48   A    
C11   H7    S    
C95   H76   S    
C87   H59   S    
C17   C76   S    
C13   N8    A    
C36   H17   S    
C39   C42   A    
C29   C30   A    
C61   H25   S    
C67   H40   S    
C83   H48   S    
N14   Ni3   S    
C87   C88   S    
N19   Ni3   S    
C16   C37   S    
C31   O1    S    
C26   H13   S    
C93   H72   S    
C22   C28   A    
C21   C22   A    
C4    C56   A    
N8    Ni3   S    
C73   C75   A    
C36   C41   A    
C42   O2    S    
C10   N6    A    
C11   N7    A    
C41   C49   A    
C84   H52   S    
C44   C46   A    
C84   H51   S    
C88   C89   S    
C57   C58   A    
C77   C79   A    
N4    Ni4   S    
C4    C34   A    
C25   H11   S    
C51   C52   A    
C62   N10   S    
N15   Ni4   S    
C76   C77   A    
C83   H49   S    
C88   H61   S    
C2    C67   A    
C78   N19   A    
N18   Ni4   S    
C39   C40   A    
C10   C16   A    
C56   N17   A    
C68   C69   A    
N7    N20   A    
C3    C23   A    
C48   H23   S    
C20   H10   S    
C72   H33   S    
C3    C45   A    
C60   C61   A    
C58   H26   S    
C92   H71   S    
C15   C19   S    
C90   H65   S    
C1    N1    A    
C37   C38   A    
C68   H37   S    
C70   N11   S    
C94   H74   S    
C30   C31   A    
C82   H45   S    
C71   H32   S    
N1    N19   A    
C61   C63   A    
C50   C51   A    
C5    C14   A    
N2    N8    A    
C25   C26   A    
C7    N3    A    
C67   N18   A    
C65   H29   S    
N7    Ni4   S    
C70   C71   A    
C86   H57   S    
N14   N16   A    
C40   C41   A    
C35   H15   S    
C55   C57   A    
C43   C44   A    
O2    H50   S    
C34   H30   S    
C56   H39   S    
C22   C24   A    
C90   C91   S    
C42   C43   A    
C91   H68   S    
C77   H34   S    
C28   C29   A    
C93   H73   S    
C86   H55   S    
C84   C85   S    
C87   H58   S    
C64   H27   S    
C9    C17   A    
C92   H69   S    
C21   C25   A    
C54   C55   A    
C69   H35   S    
C62   C65   A    
C27   C32   A    
C8    H4    S    
C18   H9    S    
C12   H12   S    
C85   C86   S    
C7    C16   A    
C60   O3    S    
C81   H44   S    
C89   H63   S    
C47   C52   A    
C74   O5    S    
C3    C63   S    
C66   C80   S    
C29   C35   A    
C34   N15   A    
C50   H20   S    
C8    C17   A    
C95   H78   S    
C55   H28   S    
O3    C84   S    
C19   C20   A    
C13   C15   A    
C58   C59   A    
C24   C31   A    
C71   C72   A    
C88   H60   S    
N16   Ni2   S    
C32   C33   A    
C10   H6    S    
C5    N20   A    
C23   H21   S    
C75   N13   S    
C91   C92   S    
N3    N6    A    
C48   C49   A    
C5    H42   S    
C64   C65   A    
C85   H54   S    
C45   N16   A    
C33   C35   A    
C54   H31   S    
C57   N9    S    
C78   C80   A    
N5    Ni2   S    
C82   H46   S    
C69   C70   A    
N6    Ni1   S    
C89   H64   S    
C2    C51   S    
N12   Ni2   S    
C63   C64   A    
C83   H47   S    
C14   C53   S    
C20   C21   A    
C44   C50   A    
C36   C37   A    
O6    C93   S    
C32   H14   S    
N1    Ni1   S    
C27   C28   A    
N11   N13   D    
C1    C80   A    
N20   Ni1   S    
N2    Ni2   S    
C12   N12   A    
C92   H70   S    
C91   H67   S    
C79   H36   S    
C75   C79   A    
C81   H43   S    
N3    Ni3   S    
C95   H77   S    
N9    N10   D    
