data_mof_unit_13979.cif
_audit_creation_date              2012-12-10T18:58:12-0500
_audit_creation_method            fapswitch 2.2
_symmetry_space_group_name_H-M    P1
_symmetry_Int_Tables_number       1
_space_group_crystal_system       triclinic
_cell_length_a                    11.041653
_cell_length_b                    10.821488
_cell_length_c                    9.546079
_cell_angle_alpha                 89.72099
_cell_angle_beta                  102.753759
_cell_angle_gamma                 90.166047
_cell_volume                      1112.47641779

loop_
_atom_site_label
_atom_site_type_symbol
_atom_type_description
_atom_site_fract_x
_atom_site_fract_y
_atom_site_fract_z
_atom_type_partial_charge
C1    C     C_R   0.501964 0.262389 0.500830 0.795002
C2    C     C_R   0.513302 0.129384 0.504871 -0.094430
C3    C     C_R   0.544893 0.065379 0.390353 -0.217091
C4    C     C_R   0.544608 0.936583 0.390147 -0.216679
C5    C     C_R   0.512425 0.871016 0.504035 -0.097419
C6    C     C_R   0.497114 0.935943 0.624954 0.099445
C7    C     C_3   0.394312 0.929374 0.703697 -0.467747
C8    C     C_3   0.395438 0.069634 0.704535 -0.468020
C9    C     C_R   0.599461 0.545140 0.098789 0.228084
C10   C     C_R   0.407416 0.444465 0.051072 -0.080592
C11   C     C_R   0.407306 0.444605 0.902239 -0.088314
C12   C     C_R   0.262747 0.500410 0.441712 0.862346
C13   C     C_R   0.600509 0.543641 0.951483 0.223371
C14   C     C_3   0.653325 0.671476 0.958206 -0.245694
C15   C     C_3   0.649687 0.673484 0.116800 -0.542990
C16   C     C_R   0.501768 0.737728 0.500340 0.799496
C17   C     C_R   0.737191 0.499705 0.558206 0.864935
C18   C     C_2   0.127687 0.502330 0.408791 -0.359855
C19   C     C_2   0.067239 0.501732 0.515489 -0.154898
C20   C     C_2   0.872104 0.497792 0.590745 -0.342758
C21   C     C_2   0.932573 0.504791 0.484310 -0.160123
C22   C     C_R   0.497818 0.063179 0.625457 0.135360
Cu1   Cu    Cu3+1 0.499990 0.499980 0.640670 0.938386
Cu2   Cu    Cu3+1 0.500010 0.500020 0.359330 0.936578
H1    H     H_    0.882663 0.512502 0.372833 0.174649
H2    H     H_    0.427354 0.109210 0.813763 0.197951
H3    H     H_    0.331435 0.401177 0.087505 0.136276
H4    H     H_    0.331230 0.401356 0.827592 0.135752
H5    H     H_    0.587117 0.738318 0.893913 0.165299
H6    H     H_    0.741689 0.678089 0.192813 0.193630
H7    H     H_    0.580079 0.739653 0.139391 0.199505
H8    H     H_    0.117184 0.498764 0.627277 0.174440
H9    H     H_    0.922241 0.489186 0.701723 0.164590
H10   H     H_    0.077417 0.504618 0.297250 0.142536
H11   H     H_    0.564741 0.114231 0.298651 0.165629
H12   H     H_    0.564671 0.889271 0.298710 0.155144
H13   H     H_    0.307520 0.889352 0.637615 0.198434
H14   H     H_    0.424781 0.888453 0.812702 0.190614
H15   H     H_    0.309217 0.111366 0.639154 0.192839
N1    N     N_R   0.500780 0.500930 0.148120 -0.178241
N2    N     N_R   0.500790 0.500890 0.852210 -0.192163
O1    O     O_R   0.500000 0.319640 0.618810 -0.579077
O2    O     O_R   0.500010 0.319680 0.381230 -0.585904
O3    O     O_R   0.320680 0.500000 0.575130 -0.587097
O4    O     O_R   0.320690 0.500040 0.337550 -0.586834
O5    O     O_R   0.499990 0.680320 0.618770 -0.586718
O6    O     O_R   0.500000 0.680360 0.381190 -0.580708
O7    O     O_R   0.679310 0.499960 0.662450 -0.576191
O8    O     O_R   0.679320 0.500000 0.424870 -0.583076
C23   C     C_R   0.782938 0.677736 0.929189 0.199248
C24   C     C_R   0.809048 0.766005 0.831371 -0.137155
C25   C     C_R   0.928292 0.775510 0.804709 -0.141852
C26   C     C_R   0.022865 0.697402 0.875726 -0.117353
C27   C     C_R   0.998100 0.608835 0.972661 -0.172021
C28   C     C_R   0.878790 0.598361 0.998985 -0.148149
H16   H     H_    0.737252 0.827894 0.775919 0.117876
H17   H     H_    0.947412 0.843659 0.729041 0.132494
H18   H     H_    0.115083 0.704874 0.854863 0.130647
H19   H     H_    0.071290 0.547821 0.026828 0.129724
H20   H     H_    0.861555 0.528889 0.074247 0.108869

loop_
_geom_bond_atom_site_label_1
_geom_bond_atom_site_label_2
_ccdc_geom_bond_type
C10   H3    S    
C2    C22   A    
C8    C22   S    
C26   H18   S    
C4    H12   S    
C15   H7    S    
C6    C7    S    
C12   O4    A    
C8    H15   S    
C8    H2    S    
C23   C28   A    
Cu1   N2    S    
C17   O7    A    
C3    H11   S    
Cu1   Cu2   S    
C28   H20   S    
C13   N2    A    
C23   C24   A    
C9    C15   S    
Cu2   O4    S    
C7    C8    S    
C12   O3    A    
Cu1   O5    S    
C13   C14   S    
C20   C21   D    
C18   H10   S    
C14   C23   S    
Cu1   O1    S    
C11   H4    S    
C19   H8    S    
C16   O6    A    
C19   C21   S    
C7    H14   S    
C11   N2    A    
C2    C3    A    
C27   H19   S    
C7    H13   S    
C5    C6    A    
C10   C11   A    
C20   H9    S    
C14   H5    S    
C12   C18   S    
C3    C4    A    
C6    C22   A    
C1    O1    A    
C17   C20   S    
C25   C26   A    
C15   H6    S    
C10   N1    A    
C1    C2    S    
C25   H17   S    
C16   O5    A    
Cu2   O8    S    
Cu2   O2    S    
C9    C13   A    
C27   C28   A    
C18   C19   D    
C5    C16   S    
C21   H1    S    
Cu1   O7    S    
Cu2   N1    S    
C14   C15   S    
Cu2   O6    S    
C1    O2    A    
C9    N1    A    
C17   O8    A    
Cu1   O3    S    
C24   C25   A    
C26   C27   A    
C4    C5    A    
C24   H16   S    
