data_mof_unit_14501.cif
_audit_creation_date              2012-12-10T19:44:26-0500
_audit_creation_method            fapswitch 2.2
_symmetry_space_group_name_H-M    P1
_symmetry_Int_Tables_number       1
_space_group_crystal_system       triclinic
_cell_length_a                    18.927122
_cell_length_b                    18.949961
_cell_length_c                    34.235272
_cell_angle_alpha                 89.831295
_cell_angle_beta                  90.225395
_cell_angle_gamma                 90.139352
_cell_volume                      12278.919984

loop_
_atom_site_label
_atom_site_type_symbol
_atom_type_description
_atom_site_fract_x
_atom_site_fract_y
_atom_site_fract_z
_atom_type_partial_charge
C1    C     C_R   0.000060 0.499137 0.894203 1.055405
C2    C     C_R   0.499710 0.000292 0.894181 1.025274
C3    C     C_R   0.499939 0.001004 0.394118 1.065339
C4    C     C_R   0.000651 0.500687 0.394161 1.034525
C5    C     C_R   0.568470 0.012593 0.789553 -0.124637
C6    C     C_R   0.011066 0.563980 0.789030 -0.105009
C7    C     C_R   0.437100 0.990873 0.788792 -0.129689
C8    C     C_R   0.001175 0.434412 0.788855 -0.114347
C9    C     C_R   0.075848 0.514555 0.289614 -0.134540
C10   C     C_R   0.488378 0.068009 0.288498 -0.107761
C11   C     C_R   0.943750 0.511310 0.288461 -0.107556
C12   C     C_R   0.512875 0.939735 0.288659 -0.117736
C13   C     C_R   0.503147 0.000954 0.769578 -0.115404
C14   C     C_R   0.006816 0.499405 0.768925 -0.115216
C15   C     C_R   0.009884 0.510241 0.269270 -0.107191
C16   C     C_R   0.501244 0.004043 0.268815 -0.110739
C17   C     C_R   0.627015 0.038375 0.765635 0.353496
C18   C     C_R   0.019956 0.626697 0.766632 0.378552
C19   C     C_R   0.379905 0.961811 0.765124 0.381374
C20   C     C_R   0.994102 0.372133 0.766137 0.425890
C21   C     C_R   0.137359 0.532120 0.265211 0.356923
C22   C     C_R   0.468991 0.127728 0.264803 0.383730
C23   C     C_R   0.881458 0.507593 0.264999 0.391941
C24   C     C_R   0.526642 0.878965 0.265377 0.436836
C25   C     C_R   0.124875 0.557225 0.226678 0.114976
C26   C     C_R   0.438027 0.114099 0.228158 0.100044
C27   C     C_R   0.886421 0.468343 0.230597 0.089452
C28   C     C_R   0.561277 0.891416 0.229830 0.078475
C29   C     C_R   0.610404 0.068793 0.728965 0.115020
C30   C     C_R   0.994606 0.627715 0.728095 0.098874
C31   C     C_R   0.398105 0.928458 0.729815 0.110455
C32   C     C_R   0.022706 0.372542 0.728437 0.093553
C33   C     C_R   0.065093 0.532807 0.206657 0.060319
C34   C     C_R   0.464002 0.055913 0.207210 0.084396
C35   C     C_R   0.948859 0.476773 0.209099 0.096409
C36   C     C_R   0.537692 0.949758 0.208083 0.096265
C37   C     C_R   0.553340 0.039982 0.708141 0.068784
C38   C     C_R   0.993374 0.563410 0.707450 0.082599
C39   C     C_R   0.454166 0.957545 0.708616 0.064806
C40   C     C_R   0.019495 0.436392 0.707395 0.085345
C41   C     C_R   0.008875 0.505292 0.228259 0.021077
C42   C     C_R   0.501431 0.003689 0.227887 0.026109
C43   C     C_R   0.503674 0.999377 0.728629 0.019307
C44   C     C_R   0.006732 0.499783 0.727823 0.028462
C45   C     C_R   0.058517 0.535841 0.165925 -0.194008
C46   C     C_R   0.457174 0.048807 0.166836 -0.195162
C47   C     C_R   0.951226 0.465959 0.168846 -0.204637
C48   C     C_R   0.543732 0.953893 0.167673 -0.187500
C49   C     C_R   0.545437 0.046712 0.667653 -0.204466
C50   C     C_R   0.983285 0.560494 0.667118 -0.207986
C51   C     C_R   0.460076 0.951101 0.668122 -0.195994
C52   C     C_R   0.023923 0.438845 0.666764 -0.201523
C53   C     C_R   0.003740 0.499654 0.147351 -0.031636
C54   C     C_R   0.500407 0.000914 0.147225 -0.035957
C55   C     C_R   0.501819 0.999373 0.647683 -0.042784
C56   C     C_R   0.001425 0.499336 0.647044 -0.022070
C57   C     C_R   0.000258 0.499841 0.105229 0.773439
C58   C     C_R   0.500116 0.999979 0.105208 0.782206
C59   C     C_R   0.500321 0.999868 0.605343 0.779250
C60   C     C_R   0.000238 0.499742 0.605134 0.772339
C61   C     C_R   0.859783 0.639992 0.000160 0.825781
C62   C     C_R   0.360690 0.859925 0.000527 0.809225
C63   C     C_R   0.139516 0.359903 0.000227 0.848041
C64   C     C_R   0.640440 0.139189 0.999993 0.870190
C65   C     C_R   0.139103 0.640844 0.999203 0.878448
C66   C     C_R   0.638906 0.859510 0.000815 0.867278
C67   C     C_R   0.860073 0.359941 0.999733 0.884266
C68   C     C_R   0.360578 0.140441 0.000507 0.864340
C69   C     C_R   0.360502 0.140528 0.499928 0.835395
C70   C     C_R   0.859645 0.360773 0.499695 0.794937
C71   C     C_R   0.639572 0.859516 0.500103 0.841567
C72   C     C_R   0.140356 0.639321 0.499920 0.856036
C73   C     C_R   0.639416 0.140338 0.499363 0.888872
C74   C     C_R   0.139662 0.360132 0.500496 0.869029
C75   C     C_R   0.360199 0.859841 0.499519 0.880732
C76   C     C_R   0.860517 0.639977 0.500518 0.871465
C77   C     C_R   0.234225 0.718227 0.966652 -0.114130
C78   C     C_R   0.304314 0.254978 0.976956 -0.080194
C79   C     C_R   0.761726 0.286846 0.967665 -0.064604
C80   C     C_R   0.693068 0.746598 0.976654 -0.094811
C81   C     C_R   0.746489 0.697916 0.974997 -0.133504
C82   C     C_R   0.713966 0.232563 0.967667 -0.193397
C83   C     C_R   0.251529 0.304345 0.976127 -0.132535
C84   C     C_R   0.289753 0.764959 0.968188 -0.187553
C85   C     C_R   0.737689 0.212780 0.466378 -0.087545
C86   C     C_R   0.802997 0.750896 0.475925 -0.096724
C87   C     C_R   0.259565 0.789229 0.467380 -0.080606
C88   C     C_R   0.195927 0.248444 0.476413 -0.091967
C89   C     C_R   0.248950 0.199637 0.474911 -0.143556
C90   C     C_R   0.211273 0.735229 0.467471 -0.197595
C91   C     C_R   0.749790 0.799464 0.474502 -0.145534
C92   C     C_R   0.788505 0.264636 0.466822 -0.197930
C93   C     C_R   0.195434 0.696803 0.999824 -0.070541
C94   C     C_R   0.304828 0.196463 0.001972 -0.103730
C95   C     C_R   0.803210 0.304804 0.000487 -0.081749
C96   C     C_R   0.692545 0.802324 0.003108 -0.109318
C97   C     C_R   0.802894 0.695345 0.001896 -0.138522
C98   C     C_R   0.697610 0.193265 0.000843 -0.119091
C99   C     C_R   0.194105 0.303225 0.001449 -0.110043
C100  C     C_R   0.305783 0.803724 0.001699 -0.063000
C101  C     C_R   0.695387 0.196296 0.499157 -0.089401
C102  C     C_R   0.804998 0.695441 0.502433 -0.110245
C103  C     C_R   0.303267 0.804802 0.499845 -0.085792
C104  C     C_R   0.195418 0.304795 0.502254 -0.113400
C105  C     C_R   0.305774 0.197751 0.501104 -0.126664
C106  C     C_R   0.197256 0.693726 0.500376 -0.128236
C107  C     C_R   0.694497 0.802350 0.501452 -0.128921
C108  C     C_R   0.802923 0.306052 0.499856 -0.098654
C109  C     C_R   0.214618 0.730524 0.035450 0.165648
C110  C     C_R   0.247046 0.192545 0.028612 0.171356
C111  C     C_R   0.788868 0.266130 0.035191 0.160319
C112  C     C_R   0.747000 0.801628 0.032007 0.172451
C113  C     C_R   0.801403 0.748987 0.031580 0.162439
C114  C     C_R   0.738832 0.208906 0.035187 0.156522
C115  C     C_R   0.192348 0.244849 0.028404 0.156129
C116  C     C_R   0.266128 0.786388 0.036081 0.151272
C117  C     C_R   0.709073 0.236102 0.533491 0.157960
C118  C     C_R   0.749156 0.693868 0.530495 0.172624
C119  C     C_R   0.290574 0.764405 0.534193 0.163599
C120  C     C_R   0.252821 0.307236 0.529466 0.171648
C121  C     C_R   0.307351 0.254594 0.528943 0.165205
C122  C     C_R   0.240464 0.707464 0.534152 0.154480
C123  C     C_R   0.694577 0.746537 0.530043 0.163823
C124  C     C_R   0.759653 0.292507 0.533507 0.158408
C125  C     C_3   0.294304 0.774310 0.924531 0.441696
C126  C     C_3   0.280320 0.341292 0.940771 0.451320
C127  C     C_3   0.705090 0.232065 0.923979 0.414258
C128  C     C_3   0.719024 0.668694 0.936977 0.445981
C129  C     C_3   0.653644 0.718642 0.941875 0.414767
C130  C     C_3   0.756005 0.298081 0.924138 0.391660
C131  C     C_3   0.347583 0.294011 0.947409 0.407325
C132  C     C_3   0.230153 0.720824 0.922514 0.445174
C133  C     C_3   0.805783 0.257294 0.423907 0.412195
C134  C     C_3   0.773308 0.826839 0.435598 0.450676
C135  C     C_3   0.195188 0.740423 0.424476 0.453460
C136  C     C_3   0.223390 0.171844 0.436427 0.461364
C137  C     C_3   0.157625 0.220540 0.441545 0.399736
C138  C     C_3   0.250161 0.802742 0.423939 0.431467
C139  C     C_3   0.839099 0.777621 0.440137 0.406453
C140  C     C_3   0.747928 0.197439 0.423385 0.446979
C141  C     C_R   0.435988 0.004550 0.829897 0.346949
C142  C     C_R   0.002822 0.433487 0.830329 0.331154
C143  C     C_R   0.567729 0.001173 0.831096 0.295756
C144  C     C_R   0.003112 0.564217 0.830225 0.350791
C145  C     C_R   0.941272 0.514555 0.329505 0.326242
C146  C     C_R   0.508076 0.937872 0.329912 0.310228
C147  C     C_R   0.072470 0.503471 0.331602 0.296539
C148  C     C_R   0.492251 0.068281 0.330155 0.296931
C149  C     C_R   0.501199 0.001603 0.850909 -0.277330
C150  C     C_R   0.001019 0.498815 0.850915 -0.304100
C151  C     C_R   0.004868 0.504358 0.350942 -0.279148
C152  C     C_R   0.500047 0.002533 0.350760 -0.326547
H1    H     H_    0.097062 0.561769 0.147827 0.154605
H2    H     H_    0.423272 0.083148 0.149967 0.163515
H3    H     H_    0.909180 0.438786 0.153541 0.161158
H4    H     H_    0.576165 0.917024 0.151667 0.158844
H5    H     H_    0.576359 0.083639 0.650866 0.167302
H6    H     H_    0.966329 0.606230 0.650620 0.160133
H7    H     H_    0.428213 0.914397 0.651716 0.164444
H8    H     H_    0.039386 0.393085 0.650006 0.156562
O1    O     O_3   0.000000 0.500000 0.999990 -0.537238
O2    O     O_3   0.500000 0.000000 0.999990 -0.557261
O3    O     O_3   0.500000 0.000000 0.499990 -0.536319
O4    O     O_3   0.000000 0.500000 0.499990 -0.550790
O5    O     O_R   0.060740 0.500000 0.912560 -0.606772
O6    O     O_R   0.500000 0.060740 0.912560 -0.531525
O7    O     O_R   0.939260 0.500000 0.912560 -0.556925
O8    O     O_R   0.500000 0.939260 0.912560 -0.534231
O9    O     O_R   0.560740 0.000000 0.412560 -0.600056
O10   O     O_R   0.000000 0.560740 0.412560 -0.541072
O11   O     O_R   0.439260 0.000000 0.412560 -0.563224
O12   O     O_R   0.000000 0.439260 0.412560 -0.544505
O13   O     O_R   0.000000 0.560680 0.087420 -0.646939
O14   O     O_R   0.439320 0.000000 0.087420 -0.645904
O15   O     O_R   0.000000 0.439320 0.087420 -0.650403
O16   O     O_R   0.560680 0.000000 0.087420 -0.648436
O17   O     O_R   0.500000 0.060680 0.587420 -0.651231
O18   O     O_R   0.939320 0.500000 0.587420 -0.640652
O19   O     O_R   0.500000 0.939320 0.587420 -0.652637
O20   O     O_R   0.060680 0.500000 0.587420 -0.645599
O21   O     O_R   0.853840 0.585430 0.977070 -0.570004
O22   O     O_R   0.414570 0.853840 0.977070 -0.581943
O23   O     O_R   0.146160 0.414570 0.977070 -0.583718
O24   O     O_R   0.585430 0.146160 0.977070 -0.558198
O25   O     O_R   0.146160 0.585430 0.977070 -0.639711
O26   O     O_R   0.585430 0.853840 0.977070 -0.542095
O27   O     O_R   0.853840 0.414570 0.977070 -0.573213
O28   O     O_R   0.414570 0.146160 0.977070 -0.542792
O29   O     O_R   0.353840 0.085430 0.477070 -0.574632
O30   O     O_R   0.914570 0.353840 0.477070 -0.603992
O31   O     O_R   0.646160 0.914570 0.477070 -0.576543
O32   O     O_R   0.085430 0.646160 0.477070 -0.557123
O33   O     O_R   0.646160 0.085430 0.477070 -0.586242
O34   O     O_R   0.085430 0.353840 0.477070 -0.534913
O35   O     O_R   0.353840 0.914570 0.477070 -0.572623
O36   O     O_R   0.914570 0.646160 0.477070 -0.540454
O37   O     O_R   0.085450 0.353820 0.022910 -0.668396
O38   O     O_R   0.646180 0.085450 0.022910 -0.668232
O39   O     O_R   0.914550 0.646180 0.022910 -0.660975
O40   O     O_R   0.353820 0.914550 0.022910 -0.663944
O41   O     O_R   0.914550 0.353820 0.022910 -0.637374
O42   O     O_R   0.353820 0.085450 0.022910 -0.649668
O43   O     O_R   0.085450 0.646180 0.022910 -0.627620
O44   O     O_R   0.646180 0.914550 0.022910 -0.649837
O45   O     O_R   0.585450 0.853820 0.522910 -0.665209
O46   O     O_R   0.146180 0.585450 0.522910 -0.670106
O47   O     O_R   0.414550 0.146180 0.522910 -0.666443
O48   O     O_R   0.853820 0.414550 0.522910 -0.660549
O49   O     O_R   0.414550 0.853820 0.522910 -0.636277
O50   O     O_R   0.853820 0.585450 0.522910 -0.655207
O51   O     O_R   0.585450 0.146180 0.522910 -0.637518
O52   O     O_R   0.146180 0.414550 0.522910 -0.653833
Zn1   Zn    Zn3+2 0.000000 0.586730 0.032740 0.964515
Zn2   Zn    Zn3+2 0.413270 0.000000 0.032740 0.952288
Zn3   Zn    Zn3+2 0.000000 0.413270 0.032740 0.962526
Zn4   Zn    Zn3+2 0.586730 0.000000 0.032740 0.971635
Zn5   Zn    Zn3+2 0.500000 0.086730 0.532740 0.960447
Zn6   Zn    Zn3+2 0.913270 0.500000 0.532740 0.955491
Zn7   Zn    Zn3+2 0.500000 0.913270 0.532740 0.963992
Zn8   Zn    Zn3+2 0.086730 0.500000 0.532740 0.964157
Zn9   Zn    Zn3+2 0.913250 0.500000 0.967240 1.141975
Zn10  Zn    Zn3+2 0.500000 0.913250 0.967240 1.152895
Zn11  Zn    Zn3+2 0.086750 0.500000 0.967240 1.104008
Zn12  Zn    Zn3+2 0.500000 0.086750 0.967240 1.175616
Zn13  Zn    Zn3+2 0.413250 0.000000 0.467240 1.141142
Zn14  Zn    Zn3+2 0.000000 0.413250 0.467240 1.147764
Zn15  Zn    Zn3+2 0.586750 0.000000 0.467240 1.123012
Zn16  Zn    Zn3+2 1.000000 0.586750 0.467240 1.172677
N1    N     N_2   0.187632 0.703143 0.071266 -0.304891
H9    H     H_    0.225672 0.686169 0.090729 0.227014
C153  C     C_3   0.129974 0.741099 0.089201 -0.675855
H10   H     H_    0.093724 0.702806 0.103410 0.246155
H11   H     H_    0.099180 0.771784 0.067236 0.242732
H12   H     H_    0.150729 0.776907 0.112174 0.238299
N2    N     N_2   0.243088 0.135196 0.055553 -0.271848
H13   H     H_    0.212123 0.092994 0.047200 0.237985
C154  C     C_3   0.244478 0.150895 0.096914 -0.693296
H14   H     H_    0.282471 0.115054 0.111718 0.239600
H15   H     H_    0.191258 0.142040 0.109654 0.243889
H16   H     H_    0.261099 0.206308 0.102499 0.234589
N3    N     N_2   0.817782 0.291253 0.071144 -0.299687
H17   H     H_    0.781585 0.311673 0.090406 0.228528
C155  C     C_3   0.873597 0.250408 0.089137 -0.660934
H18   H     H_    0.909767 0.286530 0.105088 0.241408
H19   H     H_    0.904941 0.221597 0.066901 0.235159
H20   H     H_    0.850898 0.212907 0.110717 0.242466
N4    N     N_2   0.747321 0.854341 0.061620 -0.279648
H21   H     H_    0.778605 0.897995 0.056576 0.235156
C156  C     C_3   0.740539 0.832073 0.101936 -0.684698
H22   H     H_    0.700551 0.865481 0.116569 0.237813
H23   H     H_    0.791897 0.838744 0.117336 0.249924
H24   H     H_    0.723440 0.776025 0.104195 0.237447
N5    N     N_2   0.852605 0.750951 0.062166 -0.297299
H25   H     H_    0.863042 0.703852 0.076107 0.253242
C157  C     C_3   0.913120 0.796020 0.055183 -0.664876
H26   H     H_    0.948238 0.795423 0.081233 0.226004
H27   H     H_    0.895916 0.851181 0.049891 0.229530
H28   H     H_    0.943393 0.777467 0.029485 0.261853
N6    N     N_2   0.732020 0.167829 0.069921 -0.294135
H29   H     H_    0.680867 0.158269 0.078673 0.243416
C158  C     C_3   0.777468 0.106173 0.071911 -0.678185
H30   H     H_    0.777565 0.084712 0.102132 0.231996
H31   H     H_    0.832555 0.119496 0.063788 0.232146
H32   H     H_    0.759207 0.064162 0.051835 0.262682
N7    N     N_2   0.136620 0.236435 0.055859 -0.302139
H33   H     H_    0.125070 0.279564 0.072935 0.252938
C159  C     C_3   0.076662 0.195786 0.042244 -0.665113
H34   H     H_    0.038527 0.188673 0.066485 0.218980
H35   H     H_    0.093989 0.142813 0.032376 0.236379
H36   H     H_    0.049834 0.223178 0.017610 0.263330
N8    N     N_2   0.276633 0.824019 0.071673 -0.297277
H37   H     H_    0.328511 0.834163 0.078991 0.240792
C160  C     C_3   0.229721 0.883601 0.077564 -0.668501
H38   H     H_    0.224011 0.893554 0.109333 0.232639
H39   H     H_    0.176464 0.873734 0.064977 0.236087
H40   H     H_    0.251153 0.932095 0.063851 0.263412
N9    N     N_2   0.679009 0.212798 0.569490 -0.296583
H41   H     H_    0.714611 0.193696 0.589724 0.221459
C161  C     C_3   0.622023 0.254057 0.585656 -0.678477
H42   H     H_    0.583682 0.218110 0.600058 0.241889
H43   H     H_    0.593524 0.284088 0.562558 0.236528
H44   H     H_    0.643075 0.290635 0.608184 0.239719
N10   N     N_2   0.745389 0.636771 0.557676 -0.279822
H45   H     H_    0.719547 0.592013 0.548156 0.235261
C162  C     C_3   0.740872 0.651771 0.599048 -0.675584
H46   H     H_    0.777057 0.616027 0.615215 0.243852
H47   H     H_    0.686182 0.641933 0.609454 0.243281
H48   H     H_    0.756163 0.707218 0.605495 0.241343
N11   N     N_2   0.321132 0.787687 0.570101 -0.296761
H49   H     H_    0.286006 0.808338 0.589902 0.221827
C163  C     C_3   0.376807 0.745321 0.587138 -0.682716
H50   H     H_    0.415124 0.780466 0.602191 0.238675
H51   H     H_    0.405780 0.715289 0.564417 0.239113
H52   H     H_    0.354351 0.708776 0.609277 0.241451
N12   N     N_2   0.258164 0.365151 0.555852 -0.279598
H53   H     H_    0.283578 0.409580 0.545510 0.234205
C164  C     C_3   0.264320 0.351335 0.597346 -0.675589
H54   H     H_    0.228529 0.387318 0.613351 0.243348
H55   H     H_    0.319352 0.361707 0.607232 0.242249
H56   H     H_    0.249593 0.295997 0.604567 0.240796
N13   N     N_2   0.364057 0.262481 0.556030 -0.300530
H57   H     H_    0.376167 0.219316 0.573107 0.254386
C165  C     C_3   0.423380 0.303765 0.542235 -0.674666
H58   H     H_    0.461743 0.311383 0.566460 0.219157
H59   H     H_    0.405337 0.356529 0.532176 0.237076
H60   H     H_    0.450181 0.276614 0.517737 0.260742
N14   N     N_2   0.234609 0.665585 0.568688 -0.295945
H61   H     H_    0.183926 0.656794 0.578421 0.237429
C166  C     C_3   0.279772 0.603680 0.570069 -0.680224
H62   H     H_    0.284865 0.585151 0.600750 0.231467
H63   H     H_    0.333322 0.615503 0.558739 0.232893
H64   H     H_    0.257678 0.559979 0.552419 0.261462
N15   N     N_2   0.639628 0.740001 0.558123 -0.301304
H65   H     H_    0.628142 0.784316 0.574214 0.252388
C167  C     C_3   0.579702 0.697673 0.546056 -0.671818
H66   H     H_    0.542216 0.692371 0.570750 0.219740
H67   H     H_    0.597271 0.644039 0.537512 0.235383
H68   H     H_    0.552001 0.722618 0.520949 0.263057
N16   N     N_2   0.766377 0.333551 0.568133 -0.294915
H69   H     H_    0.817210 0.342025 0.577954 0.241745
C168  C     C_3   0.720933 0.395144 0.570160 -0.676637
H70   H     H_    0.715373 0.411704 0.601074 0.232000
H71   H     H_    0.667526 0.383836 0.558164 0.231839
H72   H     H_    0.743164 0.440016 0.553369 0.261410
S1    S     S_3+6 0.279223 0.864706 0.909797 0.127807
O53   O     O_2   0.243759 0.866691 0.870554 -0.149037
O54   O     O_2   0.235304 0.904240 0.939054 -0.305691
O55   O     O_3   0.357044 0.905990 0.905687 -0.481009
H73   H     H_    0.362202 0.932850 0.930221 0.341590
S2    S     S_3+6 0.220914 0.322391 0.899906 0.177143
O56   O     O_2   0.226858 0.250301 0.882487 -0.133495
O57   O     O_2   0.147574 0.327660 0.915494 -0.277836
O58   O     O_3   0.231515 0.382354 0.863838 -0.413870
H74   H     H_    0.187940 0.411396 0.863765 0.406237
S3    S     S_3+6 0.736285 0.150967 0.903435 0.149078
O59   O     O_2   0.812348 0.134222 0.911769 -0.152473
O60   O     O_2   0.692700 0.092489 0.920406 -0.313071
O61   O     O_3   0.722791 0.156091 0.854792 -0.428295
H75   H     H_    0.672102 0.144307 0.850510 0.391233
S4    S     S_3+6 0.781526 0.687866 0.898540 0.169519
O62   O     O_2   0.800044 0.764620 0.893906 -0.153281
O63   O     O_2   0.847472 0.650800 0.910003 -0.267696
O64   O     O_3   0.753480 0.654447 0.855485 -0.411110
H76   H     H_    0.775072 0.606574 0.853855 0.395722
S5    S     S_3+6 0.640897 0.782388 0.903542 0.129070
O65   O     O_2   0.568800 0.814249 0.905140 -0.200588
O66   O     O_2   0.694452 0.839769 0.909273 -0.230795
O67   O     O_3   0.650303 0.745813 0.859190 -0.448582
H77   H     H_    0.611491 0.765140 0.842833 0.394247
S6    S     S_3+6 0.841828 0.288898 0.902437 0.127383
O68   O     O_2   0.877327 0.359493 0.900275 -0.283970
O69   O     O_2   0.888506 0.241479 0.926508 -0.264169
O70   O     O_3   0.832657 0.256110 0.857220 -0.361746
H78   H     H_    0.795450 0.285617 0.844993 0.397057
S7    S     S_3+6 0.375423 0.241982 0.906763 0.131098
O71   O     O_2   0.450321 0.218712 0.911967 -0.165565
O72   O     O_2   0.329099 0.178074 0.904995 -0.223522
O73   O     O_3   0.369006 0.288214 0.864880 -0.473667
H79   H     H_    0.397157 0.261246 0.845692 0.406315
S8    S     S_3+6 0.146244 0.755487 0.907336 0.118209
O74   O     O_2   0.090658 0.704081 0.919252 -0.325313
O75   O     O_2   0.128433 0.824480 0.926351 -0.243450
O76   O     O_3   0.147311 0.764415 0.858464 -0.376869
H80   H     H_    0.121562 0.808852 0.852864 0.421767
S9    S     S_3+6 0.788650 0.337251 0.396627 0.150714
O77   O     O_2   0.761635 0.321411 0.356326 -0.117072
O78   O     O_2   0.736903 0.383744 0.417540 -0.281333
O79   O     O_3   0.864260 0.381431 0.391270 -0.462030
H81   H     H_    0.872947 0.401301 0.417392 0.366877
S10   S     S_3+6 0.706763 0.805413 0.399348 0.175893
O80   O     O_2   0.698832 0.728440 0.390319 -0.127193
O81   O     O_2   0.638067 0.828647 0.415890 -0.278580
O82   O     O_3   0.722748 0.850330 0.357698 -0.426442
H82   H     H_    0.689498 0.890708 0.357620 0.394711
S11   S     S_3+6 0.214027 0.660260 0.399012 0.149806
O83   O     O_2   0.288659 0.634989 0.403272 -0.155307
O84   O     O_2   0.166570 0.604397 0.415519 -0.322774
O85   O     O_3   0.194451 0.672505 0.351468 -0.427549
H83   H     H_    0.149189 0.647296 0.347010 0.381958
S12   S     S_3+6 0.287354 0.193425 0.399209 0.171416
O86   O     O_2   0.300493 0.270534 0.392548 -0.140171
O87   O     O_2   0.354878 0.163162 0.413600 -0.272902
O88   O     O_3   0.265276 0.154372 0.356645 -0.427600
H84   H     H_    0.296248 0.112472 0.354441 0.391666
S13   S     S_3+6 0.144505 0.284361 0.403377 0.126617
O89   O     O_2   0.071747 0.314476 0.403790 -0.195699
O90   O     O_2   0.196131 0.343128 0.410222 -0.229256
O91   O     O_3   0.157415 0.247817 0.359245 -0.461103
H85   H     H_    0.124582 0.272250 0.341168 0.399426
S14   S     S_3+6 0.332850 0.788250 0.400335 0.119039
O92   O     O_2   0.374032 0.855788 0.402035 -0.305514
O93   O     O_2   0.375977 0.732856 0.420919 -0.247205
O94   O     O_3   0.318559 0.764974 0.353697 -0.393963
H86   H     H_    0.308897 0.809795 0.339635 0.409423
S15   S     S_3+6 0.850811 0.712171 0.402871 0.124508
O95   O     O_2   0.924943 0.684996 0.402400 -0.224909
O96   O     O_2   0.802135 0.651520 0.411524 -0.231660
O97   O     O_3   0.833162 0.746676 0.358516 -0.438895
H87   H     H_    0.871839 0.730715 0.341312 0.406914
S16   S     S_3+6 0.667897 0.215023 0.397507 0.122492
O98   O     O_2   0.614721 0.161801 0.410829 -0.356607
O99   O     O_2   0.638294 0.286879 0.405590 -0.174362
O100  O     O_3   0.683391 0.205742 0.349418 -0.403791
H88   H     H_    0.662443 0.159853 0.341961 0.410402
S17   S     S_3+6 0.377331 0.743949 0.904425 0.151241
O101  O     O_2   0.371875 0.740286 0.860587 -0.184944
O102  O     O_2   0.436029 0.794042 0.913384 -0.171127
O103  O     O_3   0.398986 0.664485 0.922804 -0.415874
H89   H     H_    0.398284 0.670604 0.951580 0.383999
S18   S     S_3+6 0.291985 0.435328 0.944205 0.171902
O104  O     O_2   0.353181 0.457743 0.919239 -0.136264
O105  O     O_2   0.227021 0.469839 0.927700 -0.213770
O106  O     O_3   0.304812 0.464258 0.990127 -0.470379
H90   H     H_    0.257106 0.474125 0.000645 0.346461
S19   S     S_3+6 0.615866 0.244139 0.906506 0.124232
O107  O     O_2   0.616912 0.278693 0.866867 -0.228642
O108  O     O_2   0.579982 0.174108 0.901764 -0.217636
O109  O     O_3   0.568683 0.292947 0.937686 -0.409171
H91   H     H_    0.594210 0.290774 0.963476 0.360002
S20   S     S_3+6 0.703662 0.575785 0.937783 0.164110
O110  O     O_2   0.646958 0.555507 0.909094 -0.135065
O111  O     O_2   0.770573 0.541767 0.924492 -0.248489
O112  O     O_3   0.683154 0.545585 0.982704 -0.436024
H92   H     H_    0.727283 0.549729 0.998272 0.337898
S21   S     S_3+6 0.570942 0.679356 0.957845 0.130521
O113  O     O_2   0.582083 0.633957 0.993334 -0.214031
O114  O     O_2   0.518818 0.735162 0.968916 -0.256262
O115  O     O_3   0.535650 0.630358 0.921894 -0.379195
H93   H     H_    0.536143 0.661245 0.898482 0.392068
S22   S     S_3+6 0.718726 0.384754 0.913853 0.158151
O116  O     O_2   0.640498 0.390359 0.906962 -0.110385
O117  O     O_2   0.732598 0.426811 0.950057 -0.232810
O118  O     O_3   0.756963 0.420344 0.873652 -0.464547
H94   H     H_    0.797525 0.449098 0.882618 0.412239
S23   S     S_3+6 0.420852 0.332409 0.974470 0.140279
O119  O     O_2   0.394696 0.369907 0.010206 -0.225839
O120  O     O_2   0.468745 0.274705 0.988651 -0.273414
O121  O     O_3   0.466716 0.389832 0.946824 -0.359773
H95   H     H_    0.462737 0.371773 0.919727 0.404186
S24   S     S_3+6 0.246057 0.633854 0.901831 0.192900
O122  O     O_2   0.294130 0.633262 0.867029 -0.107512
O123  O     O_2   0.279492 0.590851 0.933763 -0.215445
O124  O     O_3   0.171461 0.595150 0.886094 -0.435428
H96   H     H_    0.142040 0.591116 0.909420 0.401037
S25   S     S_3+6 0.894314 0.228257 0.415496 0.147801
O125  O     O_2   0.901019 0.200848 0.374505 -0.191234
O126  O     O_2   0.946136 0.286987 0.418884 -0.178085
O127  O     O_3   0.913287 0.165571 0.448900 -0.403506
H97   H     H_    0.903429 0.187059 0.474629 0.356423
S26   S     S_3+6 0.789118 0.919240 0.435185 0.179300
O128  O     O_2   0.845558 0.937775 0.406230 -0.120343
O129  O     O_2   0.722183 0.953310 0.421907 -0.242450
O130  O     O_3   0.811138 0.949774 0.479772 -0.437712
H98   H     H_    0.768074 0.946207 0.495881 0.340195
S27   S     S_3+6 0.105824 0.764081 0.414222 0.127814
O131  O     O_2   0.100713 0.796846 0.374231 -0.218139
O132  O     O_2   0.058329 0.701028 0.413629 -0.192191
O133  O     O_3   0.081378 0.821207 0.449228 -0.410497
H99   H     H_    0.092773 0.798433 0.474514 0.351968
S28   S     S_3+6 0.208662 0.079365 0.435527 0.169520
O134  O     O_2   0.151334 0.061116 0.406879 -0.138440
O135  O     O_2   0.275563 0.046713 0.421152 -0.252767
O136  O     O_3   0.188846 0.046712 0.479995 -0.437465
H100  H     H_    0.233157 0.048102 0.495347 0.343880
S29   S     S_3+6 0.076668 0.179882 0.458339 0.153245
O137  O     O_2   0.089880 0.131432 0.492271 -0.210790
O138  O     O_2   0.027355 0.235275 0.472874 -0.250018
O139  O     O_3   0.038330 0.134212 0.421900 -0.344562
H101  H     H_    0.045706 0.162904 0.398066 0.387145
S30   S     S_3+6 0.219272 0.892316 0.413406 0.179265
O140  O     O_2   0.142571 0.906787 0.406314 -0.062401
O141  O     O_2   0.237296 0.932459 0.449302 -0.236389
O142  O     O_3   0.259733 0.924468 0.373304 -0.492221
H102  H     H_    0.301804 0.950632 0.382103 0.409961
S31   S     S_3+6 0.921706 0.817613 0.454627 0.156350
O143  O     O_2   0.913395 0.868363 0.487772 -0.198321
O144  O     O_2   0.969922 0.761135 0.469167 -0.252965
O145  O     O_3   0.958786 0.859400 0.416405 -0.353126
H103  H     H_    0.958978 0.824482 0.394967 0.390866
S32   S     S_3+6 0.774149 0.105984 0.414841 0.181355
O146  O     O_2   0.846046 0.091237 0.398780 -0.070536
O147  O     O_2   0.770658 0.069974 0.453650 -0.236820
O148  O     O_3   0.719439 0.068362 0.382130 -0.497113
H104  H     H_    0.675519 0.057617 0.396226 0.406993
S33   S     S_3+6 0.359762 0.039460 0.853996 0.149332
O149  O     O_2   0.345566 0.110911 0.836582 -0.175730
O150  O     O_2   0.296793 0.992826 0.848501 -0.135333
O151  O     O_3   0.368299 0.049883 0.902475 -0.567528
H105  H     H_    0.319785 0.046304 0.913177 0.390384
S34   S     S_3+6 0.020522 0.351860 0.854967 0.124141
O152  O     O_2   0.967600 0.296391 0.844540 -0.115614
O153  O     O_2   0.091257 0.326032 0.841604 -0.233016
O154  O     O_3   0.019800 0.359652 0.903895 -0.538773
H106  H     H_    0.009989 0.311691 0.914086 0.413958
S35   S     S_3+6 0.643621 0.971100 0.857614 0.142627
O155  O     O_2   0.658704 0.898563 0.842520 -0.164649
O156  O     O_2   0.706873 0.016847 0.851419 -0.155872
O157  O     O_3   0.632799 0.965637 0.906279 -0.541076
H107  H     H_    0.680961 0.964993 0.917659 0.409484
S36   S     S_3+6 0.976570 0.643959 0.853489 0.116623
O158  O     O_2   0.022683 0.705145 0.843303 -0.155893
O159  O     O_2   0.903669 0.660439 0.838809 -0.231500
O160  O     O_3   0.976893 0.637293 0.902360 -0.541867
H108  H     H_    0.967295 0.685693 0.911861 0.421351
S37   S     S_3+6 0.857322 0.525632 0.353063 0.141170
O161  O     O_2   0.828345 0.596517 0.342792 -0.112735
O162  O     O_2   0.806804 0.470805 0.337866 -0.198066
O163  O     O_3   0.859900 0.521797 0.402084 -0.587888
H109  H     H_    0.810174 0.514994 0.410243 0.406439
S38   S     S_3+6 0.514730 0.854729 0.354618 0.126087
O164  O     O_2   0.453476 0.809104 0.343726 -0.133057
O165  O     O_2   0.580366 0.817727 0.341478 -0.213339
O166  O     O_3   0.513727 0.861490 0.403547 -0.535987
H110  H     H_    0.502796 0.813451 0.413317 0.414377
S39   S     S_3+6 0.146761 0.473898 0.359478 0.140636
O167  O     O_2   0.164683 0.402533 0.343739 -0.174538
O168  O     O_2   0.208896 0.521963 0.355397 -0.158980
O169  O     O_3   0.132966 0.465958 0.407834 -0.537921
H111  H     H_    0.179790 0.471836 0.420466 0.397612
S40   S     S_3+6 0.479911 0.149071 0.356077 0.119816
O170  O     O_2   0.537779 0.200188 0.347305 -0.133161
O171  O     O_2   0.411911 0.181607 0.342583 -0.205271
O172  O     O_3   0.480264 0.138921 0.404839 -0.540580
H112  H     H_    0.484631 0.187290 0.415570 0.409344
S41   S     S_3+6 0.719249 0.016501 0.768608 0.096133
O173  O     O_2   0.733182 0.946721 0.787700 -0.147905
O174  O     O_2   0.749224 0.010798 0.728193 -0.324285
O175  O     O_3   0.763430 0.081536 0.791493 -0.464839
H113  H     H_    0.813833 0.074184 0.784982 0.403639
S42   S     S_3+6 0.098851 0.676581 0.773126 0.115646
O176  O     O_2   0.140571 0.648844 0.807284 -0.123325
O177  O     O_2   0.143873 0.670190 0.737183 -0.318009
O178  O     O_3   0.079624 0.762407 0.780134 -0.482477
H114  H     H_    0.083120 0.785116 0.754046 0.357417
S43   S     S_3+6 0.287668 0.983455 0.765786 0.101624
O179  O     O_2   0.273370 0.055532 0.781744 -0.164817
O180  O     O_2   0.259219 0.983941 0.724729 -0.329151
O181  O     O_3   0.242975 0.921247 0.790844 -0.452663
H115  H     H_    0.192823 0.927418 0.783115 0.396162
S44   S     S_3+6 0.911325 0.327642 0.767811 0.087441
O182  O     O_2   0.865193 0.360144 0.798540 -0.225002
O183  O     O_2   0.874553 0.335091 0.728987 -0.333915
O184  O     O_3   0.923758 0.241114 0.777089 -0.460689
H116  H     H_    0.885910 0.216170 0.762507 0.381089
S45   S     S_3+6 0.230493 0.519208 0.273656 0.094919
O185  O     O_2   0.247547 0.451711 0.294402 -0.153777
O186  O     O_2   0.268546 0.514770 0.235373 -0.318126
O187  O     O_3   0.264105 0.589008 0.297671 -0.454086
H117  H     H_    0.315927 0.581870 0.297704 0.410997
S46   S     S_3+6 0.524413 0.203745 0.262885 0.107745
O188  O     O_2   0.595659 0.186859 0.279815 -0.211364
O189  O     O_2   0.536223 0.226302 0.221284 -0.332143
O190  O     O_3   0.487104 0.271324 0.287034 -0.414651
H118  H     H_    0.481406 0.309666 0.267566 0.383992
S47   S     S_3+6 0.831684 0.586422 0.258021 0.099821
O191  O     O_2   0.869360 0.647912 0.276396 -0.223072
O192  O     O_2   0.823948 0.602927 0.215255 -0.336562
O193  O     O_3   0.750621 0.577560 0.277481 -0.416373
H119  H     H_    0.719381 0.563254 0.255558 0.364207
S48   S     S_3+6 0.455535 0.818264 0.259044 0.083998
O194  O     O_2   0.390214 0.845529 0.278716 -0.248906
O195  O     O_2   0.438775 0.809282 0.216374 -0.330613
O196  O     O_3   0.478068 0.739080 0.277488 -0.453269
H120  H     H_    0.439520 0.706814 0.269339 0.395227
N17   N     N_2   0.166384 0.614262 0.211321 -0.284887
H121  H     H_    0.187515 0.647958 0.231915 0.278189
C169  C     C_3   0.211693 0.602793 0.177836 -0.635056
H122  H     H_    0.267068 0.617302 0.185209 0.268340
H123  H     H_    0.194284 0.637430 0.153534 0.208209
H124  H     H_    0.210903 0.546823 0.168206 0.246882
N18   N     N_2   0.384638 0.160119 0.213079 -0.304171
H125  H     H_    0.354351 0.184085 0.234215 0.262567
C170  C     C_3   0.401052 0.206344 0.180511 -0.650155
H126  H     H_    0.401216 0.262172 0.190355 0.260531
H127  H     H_    0.359803 0.200153 0.157667 0.216422
H128  H     H_    0.453230 0.194662 0.167400 0.258744
N19   N     N_2   0.827480 0.428062 0.216976 -0.303429
H129  H     H_    0.798384 0.404996 0.239038 0.271048
C171  C     C_3   0.783678 0.457089 0.186082 -0.671452
H130  H     H_    0.733219 0.476738 0.198383 0.248769
H131  H     H_    0.771516 0.414822 0.164691 0.229891
H132  H     H_    0.809929 0.500998 0.170271 0.258174
N20   N     N_2   0.612878 0.843453 0.215400 -0.314022
H133  H     H_    0.646297 0.824676 0.236891 0.270553
C172  C     C_3   0.588623 0.787675 0.189789 -0.628005
H134  H     H_    0.569332 0.742178 0.207331 0.280723
H135  H     H_    0.633532 0.769782 0.171598 0.222641
H136  H     H_    0.545938 0.805798 0.169902 0.247820
N21   N     N_2   0.650662 0.127383 0.714431 -0.289359
H137  H     H_    0.673319 0.158597 0.735739 0.270414
C173  C     C_3   0.694537 0.118993 0.680080 -0.647561
H138  H     H_    0.750621 0.130458 0.687491 0.260171
H139  H     H_    0.677506 0.157281 0.657384 0.211137
H140  H     H_    0.691544 0.064682 0.668007 0.251941
N22   N     N_2   0.975875 0.693546 0.710207 -0.299119
H141  H     H_    0.957611 0.731392 0.729284 0.267368
C174  C     C_3   0.021209 0.721742 0.679773 -0.704167
H142  H     H_    0.044533 0.772826 0.689115 0.238701
H143  H     H_    0.988980 0.731799 0.653181 0.232625
H144  H     H_    0.064820 0.685016 0.672339 0.260689
N23   N     N_2   0.362607 0.865089 0.718061 -0.286489
H145  H     H_    0.343339 0.835027 0.740861 0.279444
C175  C     C_3   0.316747 0.865384 0.684017 -0.643117
H146  H     H_    0.261997 0.851089 0.692686 0.262838
H147  H     H_    0.335637 0.825311 0.662942 0.215269
H148  H     H_    0.315047 0.917777 0.669428 0.249272
N24   N     N_2   0.048701 0.308500 0.711861 -0.300851
H149  H     H_    0.072589 0.274958 0.731702 0.272571
C176  C     C_3   0.004639 0.271628 0.683738 -0.659431
H150  H     H_    0.981976 0.223288 0.697266 0.260471
H151  H     H_    0.037753 0.255653 0.658565 0.227342
H152  H     H_    0.960703 0.305034 0.672690 0.254480

loop_
_geom_bond_atom_site_label_1
_geom_bond_atom_site_label_2
_ccdc_geom_bond_type
C169  H122  S    
C157  H27   S    
C64   O38   A    
C156  H24   S    
C33   C45   A    
C172  H134  S    
C36   C42   A    
C163  H50   S    
C34   C42   A    
C128  S20   S    
O38   Zn4   S    
S32   O146  D    
C74   O34   A    
C165  H59   S    
N21   H137  S    
O5    Zn11  S    
C132  S8    S    
S12   O87   D    
S20   O110  D    
C55   C59   S    
C5    C143  A    
C1    O7    A    
O4    Zn6   S    
N8    H37   S    
C160  H40   S    
C30   C38   A    
S42   O176  D    
S21   O113  D    
S43   O181  S    
C138  S30   S    
C11   C15   A    
C75   O49   A    
C92   C133  S    
O175  H113  S    
C143  C149  A    
C5    C13   A    
N9    C161  S    
C47   C53   A    
C73   C101  S    
O1    Zn3   S    
C120  C121  A    
C35   C47   A    
C89   C136  S    
C132  S24   S    
C75   C103  S    
C82   C98   A    
C58   O14   A    
C108  C124  A    
O3    Zn15  S    
O79   H81   S    
C67   O27   A    
C124  N16   S    
C61   C97   S    
O47   Zn5   S    
C156  H23   S    
S2    O56   D    
C68   O42   A    
O136  H100  S    
C84   C100  A    
C91   C107  A    
S4    O62   D    
C144  C150  A    
S3    O60   D    
C69   C105  S    
C3    O9    A    
S14   O93   D    
O52   Zn8   S    
C27   C35   A    
O58   H74   S    
C79   C130  S    
C170  H126  S    
N22   H141  S    
C63   O37   A    
C170  H128  S    
O13   Zn1   S    
O118  H94   S    
N1    H9    S    
C175  H147  S    
S7    O71   D    
C65   O43   A    
C134  S26   S    
O157  H107  S    
O181  H115  S    
O76   H80   S    
C1    C150  S    
O42   Zn2   S    
S5    O67   S    
C125  S17   S    
S18   O106  S    
C87   C103  A    
S48   O194  D    
S28   O135  D    
C7    C19   A    
C66   O26   A    
C81   C128  S    
S21   O115  S    
S9    O79   S    
S34   O152  D    
C83   C126  S    
O88   H84   S    
S32   O148  S    
C135  S11   S    
C130  S6    S    
C110  N2    S    
C70   O30   A    
N5    C157  S    
C76   O50   A    
O193  H119  S    
O19   Zn7   S    
C71   C107  S    
O43   Zn1   S    
S20   O112  S    
O17   Zn5   S    
N6    C158  S    
S11   O83   D    
O169  H111  S    
O94   H86   S    
O127  H97   S    
C119  N11   S    
C9    C15   A    
C101  C117  A    
C162  H47   S    
C10   C16   A    
S9    O77   D    
C172  H136  S    
C99   C115  A    
C9    C21   A    
C78   C94   A    
C140  S16   S    
C11   C23   A    
O151  H105  S    
C153  H12   S    
C51   C55   A    
C171  H130  S    
C161  H43   S    
S25   O125  D    
S22   O117  D    
C98   C114  A    
S3    O59   D    
C7    C13   A    
C32   N24   S    
C88   C89   A    
S35   O155  D    
S40   O171  D    
C168  H70   S    
O25   Zn11  S    
C169  H124  S    
S27   O132  D    
C131  S23   S    
S3    O61   S    
C18   S42   S    
N23   H145  S    
O3    Zn13  S    
C136  C137  S    
C10   C148  A    
S12   O86   D    
S23   O120  D    
O3    Zn7   S    
C52   H8    S    
C39   C51   A    
N16   C168  S    
C147  C151  A    
N24   H149  S    
S4    O64   S    
S39   O169  S    
C128  C129  S    
S45   O187  S    
C176  H150  S    
N12   C164  S    
O2    Zn4   S    
C174  H142  S    
C148  S40   S    
C156  H22   S    
C4    O10   A    
C27   N19   S    
C163  H51   S    
O196  H120  S    
N5    H25   S    
C159  H36   S    
N15   C167  S    
S26   O130  S    
C22   S46   S    
C131  S7    S    
S36   O158  D    
N3    H17   S    
C77   C93   A    
C30   N22   S    
S1    O54   D    
O190  H118  S    
O67   H77   S    
S38   O165  D    
C57   O15   A    
C92   C108  A    
S48   O196  S    
O184  H116  S    
O91   H85   S    
S31   O145  S    
O1    Zn9   S    
O40   Zn2   S    
S19   O108  D    
C34   C46   A    
C116  N8    S    
C114  N6    S    
C66   O44   A    
C168  H72   S    
C65   C93   S    
C45   C53   A    
C111  N3    S    
N9    H41   S    
C67   C95   S    
C164  H55   S    
C49   H5    S    
S6    O68   D    
C109  N1    S    
S8    O74   D    
C88   C104  A    
C85   C92   A    
S29   O137  D    
C166  H63   S    
S9    O78   D    
C76   C102  S    
S37   O162  D    
O133  H99   S    
O35   Zn13  S    
C125  S1    S    
O49   Zn7   S    
C12   C16   A    
O33   Zn15  S    
S46   O190  S    
S35   O156  D    
S17   O103  S    
O6    Zn12  S    
C134  C139  S    
S30   O140  D    
C134  S10   S    
C20   S44   S    
C77   C84   A    
C49   C55   A    
C68   C94   S    
C138  S14   S    
S25   O127  S    
C19   S43   S    
O112  H92   S    
S33   O149  D    
C67   O41   A    
C137  S13   S    
C6    C14   A    
O148  H104  S    
C71   O45   A    
N2    H13   S    
C155  H20   S    
C106  C122  A    
N11   H49   S    
C133  S25   S    
C130  S22   S    
N7    C159  S    
C85   C140  S    
S18   O104  D    
S21   O114  D    
C86   C139  S    
S31   O143  D    
S12   O88   S    
O3    Zn5   S    
C129  S21   S    
S7    O72   D    
C137  S29   S    
C28   N20   S    
C87   C138  S    
C6    C144  A    
S39   O167  D    
C86   C102  A    
C2    O8    A    
C7    C141  A    
C176  H152  S    
O115  H93   S    
C74   C104  S    
C20   C32   A    
S11   O85   S    
C21   C25   A    
O45   Zn7   S    
C167  H68   S    
C127  S3    S    
C80   C129  S    
C4    O12   A    
O30   Zn14  S    
C62   O22   A    
C73   O51   A    
C148  C152  A    
S16   O98   D    
S30   O142  S    
S32   O147  D    
C79   C82   A    
O4    Zn14  S    
O172  H112  S    
C12   C24   A    
S36   O160  S    
C171  H132  S    
S41   O174  D    
O85   H83   S    
C118  N10   S    
C70   C108  S    
C90   C135  S    
C91   C134  S    
O1    Zn11  S    
S48   O195  D    
S29   O138  D    
C36   C48   A    
S35   O157  S    
S42   O177  D    
S43   O180  D    
O26   Zn10  S    
O145  H103  S    
C35   C41   A    
S47   O193  S    
O20   Zn8   S    
C64   O24   A    
C40   C44   A    
O139  H101  S    
C68   O28   A    
O23   Zn11  S    
S41   O175  S    
C89   C105  A    
N10   H45   S    
S13   O90   D    
O154  H106  S    
C141  S33   S    
C72   O32   A    
S8    O76   S    
N6    H29   S    
C25   C33   A    
O163  H109  S    
C112  N4    S    
O106  H90   S    
C73   O33   A    
S42   O178  S    
C17   C29   A    
S26   O129  D    
C100  C116  A    
C107  C123  A    
C19   C31   A    
O70   H78   S    
C10   C22   A    
C3    C152  S    
S28   O134  D    
C133  S9    S    
C126  S18   S    
S44   O182  D    
C117  C124  A    
S4    O63   D    
S33   O151  S    
C86   C91   A    
O2    Zn2   S    
S15   O97   S    
C174  H144  S    
C5    C17   A    
O10   Zn16  S    
C60   O18   A    
C155  H18   S    
C136  S28   S    
S24   O122  D    
O24   Zn12  S    
C160  H39   S    
C170  H127  S    
O121  H95   S    
C76   O36   A    
C109  C116  A    
O12   Zn14  S    
C78   C83   A    
N19   C171  S    
S2    O58   S    
C123  N15   S    
O31   Zn15  S    
C161  H42   S    
S5    O66   D    
C50   C56   A    
C2    O6    A    
C64   C98   S    
C48   H4    S    
C157  H28   S    
N18   H125  S    
C83   C99   A    
O178  H114  S    
C126  S2    S    
C172  H135  S    
C61   O39   A    
S34   O153  D    
S16   O100  S    
O51   Zn5   S    
S10   O80   D    
C165  H60   S    
N4    C156  S    
O48   Zn6   S    
C46   H2    S    
C103  C119  A    
C69   O47   A    
C113  N5    S    
S11   O84   D    
C141  C149  A    
N14   H61   S    
C24   S48   S    
C24   C28   A    
C142  S34   S    
C63   O23   A    
C15   C41   A    
C155  H19   S    
N3    C155  S    
N12   H53   S    
N20   C172  S    
C53   C57   S    
O55   H73   S    
O27   Zn9   S    
S6    O70   S    
O46   Zn8   S    
N17   H121  S    
O22   Zn10  S    
O21   Zn9   S    
C94   C110  A    
C50   H6    S    
C56   C60   S    
C74   O52   A    
O14   Zn2   S    
S34   O154  S    
O15   Zn3   S    
C37   C43   A    
C48   C54   A    
S47   O191  D    
C38   C44   A    
C162  H46   S    
C158  H32   S    
C37   C49   A    
O160  H108  S    
C46   C54   A    
C153  H11   S    
O2    Zn10  S    
S6    O69   D    
S22   O118  S    
C90   C106  A    
N13   C165  S    
C62   C100  S    
N22   C174  S    
O2    Zn12  S    
C169  H123  S    
C135  S27   S    
C45   H1    S    
C72   O46   A    
C13   C43   A    
C66   C96   S    
S13   O89   D    
S27   O131  D    
C84   C125  S    
O44   Zn4   S    
C136  S12   S    
C173  H139  S    
O18   Zn6   S    
S44   O184  S    
N13   H57   S    
O8    Zn10  S    
S39   O168  D    
N21   C173  S    
S10   O81   D    
S15   O95   D    
N24   C176  S    
S14   O92   D    
C60   O20   A    
C174  H143  S    
C61   O21   A    
S24   O124  S    
C159  H34   S    
C33   C41   A    
O34   Zn14  S    
C59   O19   A    
C62   O40   A    
N1    C153  S    
C146  S38   S    
C175  H148  S    
S46   O189  D    
C159  H35   S    
N15   H65   S    
C158  H30   S    
C26   N18   S    
S20   O111  D    
C119  C122  A    
S36   O159  D    
C111  C114  A    
C118  C123  A    
S1    O53   D    
C88   C137  S    
S10   O82   S    
N16   H69   S    
C143  S35   S    
O124  H96   S    
C29   N21   S    
O103  H89   S    
C28   C36   A    
C133  C140  S    
C22   C26   A    
C87   C90   A    
C29   C37   A    
C140  S32   S    
C8    C142  A    
C110  C115  A    
C115  N7    S    
C104  C120  A    
C75   O35   A    
C135  C138  S    
O64   H76   S    
C127  S19   S    
N10   C162  S    
C164  H54   S    
C14   C44   A    
O100  H88   S    
C142  C150  A    
S14   O94   S    
S8    O75   D    
C171  H131  S    
C166  H62   S    
C79   C95   A    
C96   C112  A    
S37   O161  D    
C8    C20   A    
C47   H3    S    
O187  H117  S    
C25   N17   S    
C162  H48   S    
S17   O102  D    
S30   O141  D    
C21   S45   S    
C70   O48   A    
C23   S47   S    
O166  H110  S    
C161  H44   S    
C12   C146  A    
S25   O126  D    
S22   O116  D    
O7    Zn9   S    
C117  N9    S    
S45   O186  D    
C26   C34   A    
O41   Zn3   S    
O11   Zn13  S    
C31   C39   A    
S40   O170  D    
C168  H71   S    
O36   Zn16  S    
S27   O133  S    
C63   C99   S    
S43   O179  D    
O9    Zn15  S    
C18   C30   A    
C23   C27   A    
C80   C96   A    
N7    H33   S    
S18   O105  D    
O37   Zn3   S    
S13   O91   S    
O4    Zn8   S    
C2    C149  S    
S26   O128  D    
C165  H58   S    
N2    C154  S    
O73   H79   S    
C144  S36   S    
C112  C113  A    
C176  H151  S    
N18   C170  S    
N17   C169  S    
C147  S39   S    
C6    C18   A    
C65   O25   A    
C167  H67   S    
C139  S31   S    
C59   O17   A    
C163  H52   S    
C173  H140  S    
S16   O99   D    
C69   O29   A    
C175  H146  S    
C158  H31   S    
C11   C145  A    
C39   C43   A    
S38   O166  S    
C31   N23   S    
O142  H102  S    
C40   C52   A    
C9    C147  A    
C121  N13   S    
C173  H138  S    
N14   C166  S    
C77   C132  S    
S1    O55   S    
C78   C131  S    
S38   O164  D    
S19   O107  D    
S28   O136  S    
C1    O5    A    
O16   Zn4   S    
S45   O185  D    
S2    O57   D    
S19   O109  S    
C105  C121  A    
O4    Zn16  S    
C128  S4    S    
S47   O192  D    
C145  C151  A    
C146  C152  A    
O28   Zn12  S    
C145  S37   S    
N19   H129  S    
C154  H15   S    
C122  N14   S    
C164  H56   S    
C57   O13   A    
C154  H16   S    
N23   C175  S    
C97   C113  A    
C157  H26   S    
C16   C42   A    
C85   C101  A    
O109  H91   S    
C54   C58   S    
C166  H64   S    
N8    C160  S    
C4    C151  S    
O1    Zn1   S    
S37   O163  S    
C8    C14   A    
C58   O16   A    
C120  N12   S    
C72   C106  S    
C80   C81   A    
C102  C118  A    
N4    H21   S    
S46   O188  D    
C38   C50   A    
S31   O144  D    
O50   Zn6   S    
C71   O31   A    
S23   O121  S    
S44   O183  D    
C127  C130  S    
C167  H66   S    
N20   H133  S    
S33   O150  D    
C95   C111  A    
O82   H82   S    
S15   O96   D    
C125  C132  S    
C3    O11   A    
C81   C97   A    
C126  C131  S    
S40   O172  S    
C51   H7    S    
N11   C163  S    
S24   O123  D    
S17   O101  D    
C32   C40   A    
O130  H98   S    
C154  H14   S    
C82   C127  S    
S29   O139  S    
O39   Zn1   S    
S23   O119  D    
O32   Zn16  S    
S7    O73   S    
C17   S41   S    
O61   H75   S    
C93   C109  A    
C153  H10   S    
C139  S15   S    
O97   H87   S    
C129  S5    S    
S5    O65   D    
S41   O173  D    
O29   Zn13  S    
C52   C56   A    
C160  H38   S    
