data_mof_unit_14256.cif
_audit_creation_date              2012-12-11T15:46:48-0500
_audit_creation_method            fapswitch 2.2
_symmetry_space_group_name_H-M    P1
_symmetry_Int_Tables_number       1
_space_group_crystal_system       triclinic
_cell_length_a                    11.546474
_cell_length_b                    11.544453
_cell_length_c                    19.576699
_cell_angle_alpha                 90.416247
_cell_angle_beta                  90.073683
_cell_angle_gamma                 59.940716
_cell_volume                      2258.49961202

loop_
_atom_site_label
_atom_site_type_symbol
_atom_type_description
_atom_site_fract_x
_atom_site_fract_y
_atom_site_fract_z
_atom_type_partial_charge
C1    C     C_R   0.640432 0.117167 0.599320 0.541266
C2    C     C_1   0.641247 0.703998 0.668046 0.004299
C3    C     C_1   0.126416 0.199077 0.859232 0.003307
C4    C     C_1   0.171665 0.170230 0.727740 -0.030436
C5    C     C_1   0.150022 0.182476 0.798930 -0.030539
C6    C     C_1   0.195597 0.160701 0.667455 0.003840
C7    C     C_1   0.678663 0.191538 0.860692 0.003519
C8    C     C_1   0.658675 0.167062 0.729021 -0.030502
C9    C     C_1   0.665794 0.181015 0.800290 -0.030450
C10   C     C_1   0.653068 0.149393 0.668682 0.003363
C11   C     C_R   0.668891 0.671512 0.190984 -0.006268
C12   C     C_R   0.612455 0.746077 0.598683 0.546169
C13   C     C_R   0.543355 0.752731 0.219302 -0.007320
C14   C     C_R   0.530666 0.768715 0.288539 0.000764
C15   C     C_R   0.770603 0.637397 0.303787 0.048583
C16   C     C_R   0.783598 0.621971 0.232852 -0.147058
C17   C     C_3   0.414369 0.752208 0.212424 -0.270407
C18   C     C_3   0.401516 0.768701 0.289182 -0.265026
C19   C     C_R   0.641122 0.703882 0.331779 0.047458
C20   C     C_R   0.124282 0.205075 0.195581 0.018589
C21   C     C_R   0.165585 0.284106 0.228584 0.006787
C22   C     C_R   0.194913 0.267272 0.296442 0.020368
C23   C     C_R   0.241257 0.145141 0.598266 0.547184
C24   C     C_R   0.119579 0.107634 0.305338 -0.176863
C25   C     C_R   0.091779 0.122923 0.235178 -0.159908
C26   C     C_3   0.278747 0.306540 0.211980 -0.287918
C27   C     C_3   0.311605 0.288144 0.287390 -0.241904
C28   C     C_R   0.181485 0.173049 0.335131 0.026434
C29   C     C_R   0.685234 0.194711 0.198650 -0.031983
C30   C     C_R   0.778277 0.075548 0.229392 0.033591
C31   C     C_R   0.774059 0.055787 0.297702 -0.044142
C32   C     C_R   0.598104 0.285293 0.312436 0.104599
C33   C     C_R   0.601295 0.303779 0.241317 -0.152863
C34   C     C_R   0.646482 0.113593 0.403564 0.544287
C35   C     C_3   0.820272 0.933754 0.211398 0.018029
C36   C     C_3   0.813894 0.911844 0.287445 -0.236170
C37   C     C_R   0.676857 0.155062 0.339419 0.028957
C38   C     C_R   0.081504 0.231351 0.928518 0.546005
C39   C     C_R   0.683970 0.604264 0.929442 0.545661
C40   C     C_R   0.708468 0.206828 0.930056 0.544845
C41   C     C_R   0.079821 0.237143 0.126011 0.544089
C42   C     C_R   0.683543 0.612277 0.124923 0.549956
C43   C     C_R   0.709976 0.212784 0.128017 0.544512
C44   C     C_R   0.616584 0.739372 0.402509 0.559250
C45   C     C_R   0.243284 0.141623 0.401809 0.543929
C46   C     C_1   0.670413 0.646258 0.860066 0.004351
C47   C     C_1   0.654768 0.683690 0.728444 -0.030875
C48   C     C_1   0.663449 0.666526 0.799666 -0.030832
Cr1   Cr    Cr6+3 0.404720 0.198220 0.499960 1.038500
Cr2   Cr    Cr6+3 0.698290 0.897110 0.500380 1.025800
Cr3   Cr    Cr6+3 0.396970 0.904720 0.499610 1.016094
Cr4   Cr    Cr6+3 0.926290 0.152010 0.028150 1.041634
Cr5   Cr    Cr6+3 0.921440 0.451830 0.027490 1.015463
Cr6   Cr    Cr6+3 0.626370 0.446880 0.028730 1.020906
H1    H     H_    0.356491 0.225754 0.179363 0.136901
H2    H     H_    0.408518 0.196553 0.298611 0.153154
H3    H     H_    0.294166 0.381352 0.313299 0.155731
H4    H     H_    0.539313 0.402285 0.219848 0.127462
H5    H     H_    0.745538 0.923775 0.179701 0.136513
H6    H     H_    0.731585 0.892754 0.300823 0.134817
H7    H     H_    0.912226 0.843189 0.311194 0.139187
H8    H     H_    0.882564 0.559334 0.211493 0.142004
H9    H     H_    0.426070 0.654952 0.195341 0.155719
H10   H     H_    0.337134 0.841317 0.184689 0.140554
H11   H     H_    0.317722 0.865799 0.306178 0.156985
H12   H     H_    0.408779 0.681040 0.315837 0.133254
H13   H     H_    0.099765 0.040357 0.334795 0.117898
H14   H     H_    0.046077 0.070346 0.212054 0.146304
H15   H     H_    0.243596 0.410180 0.194266 0.132050
O1    O     O_R   0.267750 0.231960 0.575440 -0.502795
O2    O     O_R   0.685950 0.784660 0.430010 -0.495378
O3    O     O_R   0.502510 0.767000 0.423980 -0.537020
O4    O     O_R   0.288320 0.026340 0.429250 -0.508746
O5    O     O_3   0.499990 0.000020 0.499980 -0.259549
O6    O     O_R   0.821590 0.119350 0.952850 -0.503370
O7    O     O_R   0.037230 0.162540 0.957390 -0.493942
O8    O     O_R   0.056530 0.344750 0.951370 -0.504860
O9    O     O_R   0.798000 0.560370 0.957490 -0.494162
O10   O     O_R   0.596230 0.579400 0.952760 -0.504829
O11   O     O_R   0.639160 0.321170 0.958690 -0.494399
O12   O     O_R   0.527290 0.186640 0.570530 -0.496315
O13   O     O_R   0.821370 0.124220 0.104400 -0.487455
O14   O     O_R   0.037020 0.167050 0.097880 -0.507938
O15   O     O_R   0.056310 0.349620 0.102920 -0.520780
O16   O     O_R   0.797790 0.564880 0.097980 -0.520415
O17   O     O_R   0.596000 0.584270 0.104310 -0.521078
O18   O     O_R   0.638950 0.325690 0.099180 -0.510459
O19   O     O_3   0.824700 0.350240 0.028120 -0.255510
O20   O     O_R   0.728110 0.003450 0.576380 -0.505037
O21   O     O_R   0.682980 0.789190 0.570500 -0.490411
O22   O     O_R   0.499300 0.771880 0.575540 -0.508167
O23   O     O_R   0.285350 0.030870 0.569740 -0.493359
O24   O     O_R   0.270960 0.227070 0.423890 -0.509120
O25   O     O_R   0.530270 0.182120 0.430040 -0.476777
O26   O     O_R   0.731320 0.998570 0.424830 -0.529335
N1    N     N_3   0.886474 0.577656 0.347110 -0.618824
H16   H     H_    0.902639 0.653999 0.364696 0.238617
H17   H     H_    0.971396 0.513224 0.318663 0.227068
N2    N     N_2   0.510900 0.394964 0.355116 -0.511584
H18   H     H_    0.435478 0.474473 0.329322 0.225679
C49   C     C_3   0.578198 0.435888 0.403740 -0.271247
H19   H     H_    0.641399 0.468178 0.376459 0.152055
H20   H     H_    0.641922 0.352617 0.438650 0.155885
H21   H     H_    0.502774 0.520750 0.435079 0.155377
N3    N     N_2   0.955610 0.862518 0.184026 -0.488683
H22   H     H_    0.024819 0.876689 0.210623 0.247092
C50   C     C_3   0.004626 0.723910 0.166218 -0.300989
H23   H     H_    0.101509 0.683356 0.138767 0.136809
H24   H     H_    0.932719 0.714638 0.132078 0.170442
H25   H     H_    0.020902 0.664234 0.213166 0.124055

loop_
_geom_bond_atom_site_label_1
_geom_bond_atom_site_label_2
_ccdc_geom_bond_type
C21   C26   S    
C49   H19   S    
C34   C37   S    
C14   C18   S    
C12   O22   A    
C35   C36   S    
Cr3   O5    S    
Cr4   O6    S    
C2    C12   S    
C26   H1    S    
C20   C41   S    
C38   O7    A    
C18   H11   S    
C15   C19   A    
N3    C50   S    
C26   C27   S    
C33   H4    S    
C30   C35   S    
C44   O2    A    
Cr5   O15   S    
C12   O21   A    
Cr2   O5    S    
C17   H10   S    
C30   C31   A    
Cr2   O26   S    
C20   C25   A    
C1    O12   A    
C15   C16   A    
C41   O14   A    
C29   C33   A    
C11   C42   S    
C35   H5    S    
Cr1   O12   S    
C24   H13   S    
Cr3   O22   S    
Cr2   O21   S    
N2    H18   S    
C3    C38   S    
C8    C9    S    
N1    H17   S    
C50   H23   S    
C40   O11   A    
C42   O17   A    
Cr1   O25   S    
C24   C28   A    
C31   C36   S    
C45   O24   A    
C49   H20   S    
C22   C28   A    
C21   C22   A    
C29   C43   S    
C50   H24   S    
C23   O1    A    
C25   H14   S    
C16   H8    S    
Cr6   O11   S    
C26   H15   S    
C46   C48   T    
C28   C45   S    
C39   O9    A    
C34   O25   A    
Cr4   O19   S    
C45   O4    A    
C34   O26   A    
C4    C6    T    
C27   H3    S    
C15   N1    S    
Cr6   O17   S    
C27   H2    S    
C3    C5    T    
C41   O15   A    
C31   C37   A    
C39   O10   A    
Cr4   O14   S    
Cr5   O8    S    
Cr2   O2    S    
C29   C30   A    
C35   N3    S    
Cr3   O23   S    
C11   C16   A    
Cr2   O20   S    
C47   C48   S    
C7    C40   S    
N1    H16   S    
C17   C18   S    
C42   O16   A    
C32   C37   A    
C24   C25   A    
Cr4   O13   S    
C39   C46   S    
N2    C49   S    
C49   H21   S    
Cr1   O1    S    
Cr4   O7    S    
C50   H25   S    
Cr3   O3    S    
C36   H7    S    
C19   C44   S    
Cr6   O10   S    
C7    C9    T    
C1    O20   A    
Cr1   O5    S    
C14   C19   A    
C1    C10   S    
Cr3   O4    S    
C4    C5    S    
C36   H6    S    
C32   N2    S    
C38   O8    A    
C2    C47   T    
C18   H12   S    
N3    H22   S    
C40   O6    A    
C13   C17   S    
C22   C27   S    
C43   O18   A    
C32   C33   A    
Cr5   O9    S    
C17   H9    S    
Cr6   O19   S    
C11   C13   A    
Cr6   O18   S    
C6    C23   S    
C44   O3    A    
Cr5   O19   S    
C20   C21   A    
C8    C10   T    
C43   O13   A    
C23   O23   A    
Cr5   O16   S    
Cr1   O24   S    
C13   C14   A    
