data_mof_unit_66716.cif
_audit_creation_date              2013-03-05T15:39:24-0500
_audit_creation_method            fapswitch 2.2
_symmetry_space_group_name_H-M    P1
_symmetry_Int_Tables_number       1
_space_group_crystal_system       triclinic
_cell_length_a                    20.424488
_cell_length_b                    22.178719
_cell_length_c                    8.670096
_cell_angle_alpha                 90.000023
_cell_angle_beta                  103.681707
_cell_angle_gamma                 89.958569
_cell_volume                      3816.01403731

loop_
_atom_site_label
_atom_site_type_symbol
_atom_site_description
_atom_site_fract_x
_atom_site_fract_y
_atom_site_fract_z
_atom_type_partial_charge
P1    P     P_3+3 0.859590 0.433890 0.993820 1.167228
P2    P     P_3+3 0.859590 0.566110 0.493820 1.166647
P3    P     P_3+3 0.359590 0.933890 0.993820 1.167050
P4    P     P_3+3 0.359590 0.066110 0.493820 1.167110
O1    O     O_2   0.866180 0.413660 0.823810 -0.481756
O2    O     O_2   0.866180 0.586340 0.323810 -0.483110
O3    O     O_2   0.366180 0.913660 0.823810 -0.483035
O4    O     O_2   0.366180 0.086340 0.323810 -0.481796
O5    O     O_3   0.922050 0.469730 0.097400 -0.404532
O6    O     O_3   0.922050 0.530270 0.597400 -0.403389
O7    O     O_3   0.422050 0.969730 0.097400 -0.403179
O8    O     O_3   0.422050 0.030270 0.597400 -0.404467
O9    O     O_3   0.976760 0.360270 0.628090 -0.391019
O10   O     O_3   0.976760 0.639730 0.128090 -0.394796
O11   O     O_3   0.476760 0.860270 0.628090 -0.394589
O12   O     O_3   0.476760 0.139730 0.128090 -0.391239
O13   O     O_2   0.864864 0.308170 0.682048 -0.475214
O14   O     O_2   0.865120 0.692388 0.181924 -0.472375
O15   O     O_2   0.365211 0.807556 0.682123 -0.472564
O16   O     O_2   0.364784 0.191802 0.181980 -0.475072
O17   O     O_3   0.778462 0.467386 0.959113 -0.536372
O18   O     O_3   0.778413 0.532839 0.459446 -0.536826
O19   O     O_3   0.278410 0.967273 0.959280 -0.536416
O20   O     O_3   0.278461 0.032725 0.459289 -0.536742
O21   O     O_3   0.945612 0.233882 0.578945 -0.577242
O22   O     O_3   0.946116 0.766287 0.078245 -0.577851
O23   O     O_3   0.446284 0.733743 0.578095 -0.578284
O24   O     O_3   0.445400 0.266111 0.078827 -0.577140
H1    H     H_    0.986787 0.249509 0.816649 0.105173
H2    H     H_    0.986356 0.751197 0.316573 0.102991
H3    H     H_    0.486135 0.748645 0.816663 0.103242
H4    H     H_    0.486624 0.250474 0.316549 0.105370
C1    C     C_3   0.011903 0.160020 0.749097 -0.230060
C2    C     C_3   0.012223 0.840333 0.248162 -0.225884
C3    C     C_3   0.512125 0.659520 0.748200 -0.225759
C4    C     C_3   0.511521 0.339990 0.248956 -0.229913
H5    H     H_    0.051579 0.155095 0.860375 0.135445
H6    H     H_    0.051372 0.845285 0.360288 0.136351
H7    H     H_    0.551200 0.654451 0.860428 0.136566
H8    H     H_    0.551176 0.344914 0.360251 0.135579
H9    H     H_    0.965033 0.138196 0.764218 0.210044
H10   H     H_    0.965284 0.862678 0.261217 0.205707
H11   H     H_    0.465141 0.637240 0.760967 0.205764
H12   H     H_    0.464597 0.361784 0.264038 0.210276
P5    P     P_3+3 0.140130 0.433190 0.695710 1.054257
P6    P     P_3+3 0.140130 0.566810 0.195710 1.057876
P7    P     P_3+3 0.640130 0.933190 0.695710 1.056715
P8    P     P_3+3 0.640130 0.066810 0.195710 1.055409
P9    P     P_3+3 0.085039 0.304793 0.129047 1.025679
P10   P     P_3+3 0.085090 0.695126 0.628962 1.060242
P11   P     P_3+3 0.584965 0.804699 0.129192 1.059971
P12   P     P_3+3 0.584987 0.195190 0.629033 1.025614
O25   O     O_2   0.133470 0.412980 0.865660 -0.479362
O26   O     O_2   0.133470 0.587020 0.365660 -0.421313
O27   O     O_2   0.633470 0.912980 0.865660 -0.421320
O28   O     O_2   0.633470 0.087020 0.365660 -0.479044
O29   O     O_3   0.022720 0.360150 0.061220 -0.441192
O30   O     O_3   0.022720 0.639850 0.561220 -0.443592
O31   O     O_3   0.522720 0.860150 0.061220 -0.443719
O32   O     O_3   0.522720 0.139850 0.561220 -0.441184
O33   O     O_2   0.133507 0.307164 0.016185 -0.418984
O34   O     O_2   0.133638 0.692591 0.516329 -0.389538
O35   O     O_2   0.633670 0.807178 0.016923 -0.388704
O36   O     O_2   0.633443 0.192832 0.516133 -0.419041
O37   O     O_3   0.206679 0.485398 0.729501 -0.610304
O38   O     O_3   0.211796 0.520733 0.235397 -0.642254
O39   O     O_3   0.711801 0.979142 0.735485 -0.642408
O40   O     O_3   0.707415 0.015296 0.230212 -0.609438
O41   O     O_3   0.044881 0.234872 0.087011 -0.613858
O42   O     O_3   0.045148 0.765132 0.586591 -0.621213
O43   O     O_3   0.544979 0.734776 0.086601 -0.621011
O44   O     O_3   0.544724 0.265112 0.586987 -0.613800
C5    C     C_3   0.001876 0.226288 0.190636 0.242239
C6    C     C_3   0.001940 0.773832 0.689655 0.237059
C7    C     C_3   0.501840 0.726073 0.189810 0.237794
C8    C     C_3   0.501866 0.273778 0.690947 0.242684
H13   H     H_    0.969809 0.266341 0.191862 -0.010035
H14   H     H_    0.968864 0.734302 0.687939 -0.012532
H15   H     H_    0.468755 0.765630 0.188238 -0.013130
H16   H     H_    0.469961 0.233703 0.692857 -0.010209
H17   H     H_    0.031788 0.218290 0.313467 0.031690
H18   H     H_    0.031633 0.780634 0.813250 0.026219
H19   H     H_    0.531580 0.719206 0.313351 0.025839
H20   H     H_    0.531889 0.281958 0.813556 0.031765
C9    C     C_3   0.955268 0.172251 0.137996 0.890372
C10   C     C_3   0.956795 0.828962 0.638853 0.889094
C11   C     C_3   0.456720 0.670990 0.139039 0.889076
C12   C     C_3   0.455054 0.327713 0.638064 0.890602
C13   C     C_3   0.201013 0.467510 0.311016 0.275701
C14   C     C_3   0.219509 0.507265 0.885248 0.355230
C15   C     C_3   0.718062 0.991253 0.383829 0.361248
C16   C     C_3   0.700934 0.032405 0.810929 0.276326
H21   H     H_    0.174518 0.476450 0.406394 -0.018804
H22   H     H_    0.235284 0.470101 0.971089 0.072072
H23   H     H_    0.732575 0.027278 0.474268 0.069731
H24   H     H_    0.674648 0.023479 0.906683 -0.019165
H25   H     H_    0.171117 0.436074 0.221823 -0.061605
H26   H     H_    0.173461 0.528362 0.906013 -0.129455
H27   H     H_    0.671347 0.969347 0.398495 -0.138195
H28   H     H_    0.670792 0.063745 0.721730 -0.062254
C17   C     C_3   0.269556 0.439012 0.385695 0.685488
C18   C     C_3   0.276099 0.553842 0.912704 0.671206
C19   C     C_3   0.774976 0.944965 0.411051 0.672425
C20   C     C_3   0.769412 0.061074 0.884869 0.685925
H29   H     H_    0.262624 0.395525 0.442066 -0.051834
H30   H     H_    0.279151 0.576963 0.027558 -0.005226
H31   H     H_    0.777838 0.921341 0.525132 -0.010339
H32   H     H_    0.762373 0.104662 0.940726 -0.052721
Ba1   Ba    Ba6+2 0.999900 0.456810 0.844860 1.897669
Ba2   Ba    Ba6+2 0.999900 0.543190 0.344860 1.919537
Ba3   Ba    Ba6+2 0.499900 0.956810 0.844860 1.919219
Ba4   Ba    Ba6+2 0.499900 0.043190 0.344860 1.897815
C21   C     C_3   0.780973 0.529999 0.975131 0.568827
C22   C     C_3   0.780798 0.470204 0.475017 0.568559
C23   C     C_3   0.280784 0.029897 0.975027 0.568924
C24   C     C_3   0.280968 0.970099 0.475088 0.568690
H33   H     H_    0.819389 0.543924 0.080398 0.047637
H34   H     H_    0.819274 0.456066 0.580038 0.047343
H35   H     H_    0.319235 0.043950 0.080129 0.047267
H36   H     H_    0.319448 0.956064 0.580187 0.047525
C25   C     C_3   0.711083 0.556669 0.976760 0.220221
C26   C     C_3   0.710875 0.443758 0.476853 0.220320
C27   C     C_3   0.210846 0.056420 0.976824 0.220657
C28   C     C_3   0.211099 0.943510 0.476868 0.220187
H37   H     H_    0.676064 0.551983 0.858816 0.159650
H38   H     H_    0.675728 0.448799 0.359162 0.160351
H39   H     H_    0.175757 0.051567 0.859010 0.159937
H40   H     H_    0.176001 0.948360 0.359060 0.159945
O45   O     O_3   0.077880 0.530130 0.092320 -0.453594
O46   O     O_3   0.077880 0.469870 0.592320 -0.430567
O47   O     O_3   0.577880 0.030130 0.092320 -0.431710
O48   O     O_3   0.577880 0.969870 0.592320 -0.454054
P13   P     P_3+3 0.912069 0.693132 0.065320 1.090642
P14   P     P_3+3 0.911805 0.307153 0.565460 1.091279
P15   P     P_3+3 0.411733 0.192833 0.065419 1.091390
P16   P     P_3+3 0.412092 0.806885 0.565357 1.090357
C29   C     C_3   0.999157 0.227360 0.712756 0.619078
C30   C     C_3   0.999264 0.772943 0.212808 0.617561
C31   C     C_3   0.499232 0.726947 0.713040 0.617466
C32   C     C_3   0.498931 0.272648 0.212637 0.618971
C33   C     C_R   0.126244 0.640681 0.926969 -0.164755
C34   C     C_R   0.125847 0.359046 0.427575 -0.208017
C35   C     C_R   0.625781 0.141042 0.927712 -0.208521
C36   C     C_R   0.625646 0.858866 0.427531 -0.166248
C37   C     C_R   0.133927 0.691586 0.840243 0.020496
C38   C     C_R   0.133983 0.308406 0.340233 -0.019217
C39   C     C_R   0.633956 0.191619 0.840242 -0.019599
C40   C     C_R   0.633609 0.808102 0.340632 0.018306
C41   C     C_R   0.176211 0.738991 0.915886 -0.064269
C42   C     C_R   0.176325 0.260987 0.415654 -0.078951
C43   C     C_R   0.676319 0.239004 0.915553 -0.078731
C44   C     C_R   0.676074 0.760768 0.416158 -0.063978
C45   C     C_R   0.222189 0.729779 0.066793 0.086206
C46   C     C_R   0.222137 0.270059 0.566750 0.077121
C47   C     C_R   0.722128 0.229927 0.066720 0.076625
C48   C     C_R   0.722090 0.770054 0.566919 0.085436
C49   C     C_R   0.212275 0.675396 0.150920 -0.104450
C50   C     C_R   0.212430 0.324532 0.650771 -0.082190
C51   C     C_R   0.712368 0.175480 0.150808 -0.083254
C52   C     C_R   0.712188 0.824466 0.650943 -0.105177
C53   C     C_R   0.159206 0.634849 0.085872 0.033381
C54   C     C_R   0.159836 0.365482 0.585429 0.027971
C55   C     C_R   0.659703 0.134622 0.085604 0.030190
C56   C     C_R   0.658976 0.864952 0.586120 0.033307
C57   C     C_R   0.807377 0.281453 0.296804 -0.108712
C58   C     C_R   0.807703 0.718862 0.796724 -0.116395
C59   C     C_R   0.307714 0.781041 0.296702 -0.115980
C60   C     C_R   0.307279 0.218415 0.796817 -0.108891
C61   C     C_R   0.866059 0.314880 0.355292 0.043765
C62   C     C_R   0.866371 0.685350 0.855200 0.046040
C63   C     C_R   0.366281 0.814627 0.355219 0.046180
C64   C     C_R   0.366042 0.185052 0.855293 0.043772
C65   C     C_R   0.855788 0.358805 0.094484 0.103635
C66   C     C_R   0.856002 0.641290 0.594445 0.100692
C67   C     C_R   0.355884 0.858695 0.094441 0.100518
C68   C     C_R   0.355848 0.141180 0.594472 0.103943
C69   C     C_R   0.804017 0.317039 0.031986 -0.098576
C70   C     C_R   0.804295 0.683181 0.531927 -0.096246
C71   C     C_R   0.304222 0.816803 0.031901 -0.095948
C72   C     C_R   0.304064 0.182972 0.531972 -0.098586
C73   C     C_R   0.778405 0.276330 0.132115 0.028238
C74   C     C_R   0.778659 0.723882 0.632086 0.025711
C75   C     C_R   0.278660 0.776027 0.132028 0.026093
C76   C     C_R   0.278384 0.223617 0.632141 0.028102
C77   C     C_R   0.892482 0.350601 0.251633 0.141570
C78   C     C_R   0.892793 0.649533 0.751558 0.140831
C79   C     C_R   0.392614 0.850457 0.251573 0.140399
C80   C     C_R   0.392536 0.149352 0.751637 0.141887
H41   H     H_    0.785456 0.259932 0.383247 0.110553
H42   H     H_    0.785831 0.740569 0.883096 0.110395
H43   H     H_    0.285923 0.759308 0.383110 0.110227
H44   H     H_    0.285240 0.239834 0.883241 0.110935
H45   H     H_    0.784301 0.317928 0.905420 0.110511
H46   H     H_    0.784525 0.682305 0.405377 0.112939
H47   H     H_    0.284472 0.817704 0.905348 0.113002
H48   H     H_    0.284361 0.182138 0.405393 0.110610
H49   H     H_    0.095347 0.604294 0.868609 0.104905
H50   H     H_    0.094286 0.395191 0.370200 0.093816
H51   H     H_    0.594286 0.104900 0.870363 0.093619
H52   H     H_    0.594377 0.895046 0.369276 0.106967
Cl1   Cl    Cl    0.316686 0.425037 0.241497 -0.509898
Cl2   Cl    Cl    0.260714 0.608807 0.758539 -0.562917
Cl3   Cl    Cl    0.760282 0.890663 0.255324 -0.562861
Cl4   Cl    Cl    0.816256 0.074822 0.739979 -0.507260
Cl5   Cl    Cl    0.318331 0.487453 0.531966 -0.380519
Cl6   Cl    Cl    0.355380 0.518424 0.923159 -0.334702
Cl7   Cl    Cl    0.854107 0.980915 0.423619 -0.333093
Cl8   Cl    Cl    0.818516 0.012934 0.031678 -0.379147
Cl9   Cl    Cl    0.800415 0.557239 0.805379 -0.815066
Cl10  Cl    Cl    0.799941 0.443039 0.304794 -0.815621
Cl11  Cl    Cl    0.299975 0.057097 0.804928 -0.815685
Cl12  Cl    Cl    0.300259 0.942922 0.305081 -0.814756
C81   C     C_1   0.715649 0.621328 0.013457 0.272796
N1    N     N_1   0.718661 0.672412 0.040966 -0.236925
C82   C     C_1   0.715243 0.379031 0.512756 0.274042
N2    N     N_1   0.718087 0.327901 0.539715 -0.243016
C83   C     C_1   0.215232 0.121101 0.013206 0.273451
N3    N     N_1   0.218091 0.172199 0.040527 -0.242943
C84   C     C_1   0.215663 0.878812 0.513170 0.272997
N4    N     N_1   0.218675 0.827702 0.540388 -0.237484
Cl13  Cl    Cl    0.670870 0.520243 0.110671 -0.531278
Cl14  Cl    Cl    0.671053 0.480037 0.611762 -0.534115
Cl15  Cl    Cl    0.170883 0.020027 0.111233 -0.533501
Cl16  Cl    Cl    0.171024 0.979834 0.611257 -0.531502
Cl17  Cl    Cl    0.074001 0.259600 0.678828 -0.751188
Cl18  Cl    Cl    0.074241 0.740132 0.181163 -0.761105
Cl19  Cl    Cl    0.574346 0.759686 0.682296 -0.759895
Cl20  Cl    Cl    0.573846 0.240467 0.178710 -0.751342
C85   C     C_1   0.034718 0.127590 0.623415 0.500155
N5    N     N_1   0.053095 0.101827 0.525482 -0.098723
C86   C     C_1   0.036200 0.872150 0.123291 0.495876
N6    N     N_1   0.055506 0.897440 0.026039 -0.102418
C87   C     C_1   0.536189 0.627738 0.623358 0.495905
N7    N     N_1   0.555558 0.602476 0.526120 -0.102673
C88   C     C_1   0.534299 0.372452 0.123311 0.500539
N8    N     N_1   0.552651 0.398238 0.025415 -0.098550
Cl21  Cl    Cl    0.913215 0.153481 0.287617 -0.582439
Cl22  Cl    Cl    0.914662 0.847881 0.788266 -0.602710
Cl23  Cl    Cl    0.414520 0.652134 0.288363 -0.603566
Cl24  Cl    Cl    0.412970 0.346523 0.787624 -0.582995
C89   C     C_1   0.163369 0.799116 0.852385 0.302073
N9    N     N_1   0.152725 0.847714 0.804502 -0.147459
C90   C     C_1   0.163231 0.200840 0.352412 0.312203
N10   N     N_1   0.152295 0.152253 0.304732 -0.150160
C91   C     C_1   0.663243 0.299129 0.852045 0.312233
N11   N     N_1   0.652300 0.347700 0.804127 -0.150263
C92   C     C_1   0.663340 0.700629 0.352797 0.302349
N12   N     N_1   0.652781 0.652022 0.305028 -0.147511
C93   C     C_1   0.255484 0.657810 0.300985 0.412365
N13   N     N_1   0.289126 0.642931 0.421924 -0.076964
C94   C     C_1   0.254995 0.341371 0.801844 0.385402
N14   N     N_1   0.288213 0.355332 0.923936 -0.133242
C95   C     C_1   0.755043 0.158460 0.301616 0.388242
N15   N     N_1   0.788335 0.144291 0.423469 -0.130232
C96   C     C_1   0.755606 0.842156 0.800596 0.412845
N16   N     N_1   0.789422 0.857113 0.921208 -0.076248
Cl25  Cl    Cl    0.966410 0.391060 0.325831 -0.682976
Cl26  Cl    Cl    0.966872 0.609097 0.825671 -0.685925
Cl27  Cl    Cl    0.466469 0.891015 0.325799 -0.686417
Cl28  Cl    Cl    0.466467 0.108821 0.825914 -0.682709
Cl29  Cl    Cl    0.892556 0.190761 0.964215 -0.659334
Cl30  Cl    Cl    0.894076 0.812435 0.463693 -0.633110
Cl31  Cl    Cl    0.394055 0.687563 0.963778 -0.632848
Cl32  Cl    Cl    0.392403 0.308986 0.464460 -0.659878
Cl33  Cl    Cl    0.000839 0.106825 0.105019 -0.441785
Cl34  Cl    Cl    0.004245 0.893542 0.609114 -0.446271
Cl35  Cl    Cl    0.504229 0.606365 0.109464 -0.446505
Cl36  Cl    Cl    0.500380 0.393178 0.604675 -0.441737

loop_
_geom_bond_atom_site_label_1
_geom_bond_atom_site_label_2
_geom_bond_distance
_ccdc_geom_bond_type
O12   Ba4   2.813959 S    
C50   C54   1.417903 A    
O43   C7    1.409792 S    
C35   H51   1.073780 S    
C33   C53   1.388930 A    
H2    C30   1.106288 S    
C14   H22   1.106015 S    
C11   Cl31  1.778070 S    
O24   P15   1.758260 S    
C34   H50   1.073872 S    
O9    P14   1.761882 S    
C34   C38   1.386276 A    
P3    O19   1.774922 S    
C2    C86   1.470102 S    
C58   C74   1.414631 A    
P8    O28   1.576481 D    
O44   C8    1.410171 S    
P10   C37   1.868741 S    
Ba2   O45   3.010602 S    
C8    H20   1.109393 S    
P6    O45   1.595059 S    
C45   C75   1.547717 S    
C94   N14   1.156406 T    
P8    C55   1.874706 S    
C71   H47   1.075933 S    
C81   N1    1.156487 T    
C4    C88   1.470269 S    
P1    O17   1.774954 S    
C70   H46   1.075971 S    
C65   C77   1.402832 A    
C93   N13   1.157289 T    
C69   H45   1.075940 S    
O14   P13   1.549332 D    
P1    O1    1.576667 D    
O23   P16   1.758766 S    
C52   C56   1.418805 A    
C52   C96   1.442232 S    
O19   C23   1.395369 S    
C19   Cl7   1.782761 S    
C46   C50   1.448288 A    
P3    O3    1.576667 D    
O4    Ba4   2.858121 S    
C95   N15   1.156335 T    
P4    O20   1.775021 S    
P5    Ba1   3.449604 S    
O25   Ba1   2.860671 S    
C90   N10   1.157013 T    
C12   Cl24  1.766636 S    
C16   H24   1.107994 S    
O40   C15   1.402984 S    
P9    O29   1.765495 S    
C26   C82   1.467112 S    
O26   Ba2   2.862012 S    
O6    Ba1   2.858029 S    
C31   Cl19  1.773990 S    
C89   N9    1.156861 T    
C5    H17   1.109458 S    
C30   Cl18  1.773998 S    
C41   C89   1.442665 S    
C41   C45   1.433160 A    
O42   C6    1.409718 S    
C14   C18   1.526857 S    
C44   C92   1.442701 S    
C29   Cl17  1.774516 S    
O24   C32   1.400903 S    
P12   O32   1.765813 S    
C3    C31   1.536248 S    
C38   C42   1.418704 A    
O30   Ba2   2.814213 S    
C27   H39   1.105623 S    
C59   C75   1.415005 A    
C44   C48   1.432975 A    
C1    C29   1.535673 S    
C2    H10   1.108219 S    
C60   C76   1.414706 A    
P14   C61   1.848518 S    
C46   C76   1.546722 S    
O7    Ba4   2.859340 S    
P2    O18   1.774916 S    
O31   Ba3   2.813700 S    
C88   N8    1.157070 T    
P8    O47   1.595059 S    
O41   C5    1.410144 S    
C3    C87   1.470091 S    
C43   C47   1.432945 A    
P4    O8    1.588192 S    
C3    H11   1.108254 S    
C87   N7    1.156997 T    
C8    C12   1.531752 S    
C13   C17   1.532481 S    
P6    O26   1.576481 D    
C72   H48   1.075997 S    
P4    O4    1.576721 D    
C28   H40   1.105548 S    
P1    Ba1   3.448464 S    
P4    Ba4   3.447850 S    
C28   C84   1.467194 S    
O9    Ba1   2.814478 S    
P5    O46   1.594122 S    
O16   P15   1.549128 D    
P9    O41   1.752373 S    
C91   N11   1.157023 T    
C36   C56   1.389083 A    
C17   H29   1.105487 S    
O2    Ba2   2.858121 S    
C62   C78   1.399466 A    
P2    O2    1.576721 D    
C33   H49   1.074811 S    
C6    H18   1.109755 S    
C1    C85   1.470235 S    
P7    O39   1.750366 S    
P11   O43   1.751431 S    
C68   C80   1.402963 A    
O38   C13   1.392987 S    
C71   C75   1.434972 A    
C57   C61   1.398945 A    
O37   C14   1.400032 S    
C10   Cl30  1.778216 S    
O29   Ba1   2.813700 S    
C32   Cl20  1.774413 S    
C23   C27   1.547914 S    
C47   C51   1.448654 A    
P10   O30   1.766074 S    
C9    Cl33  1.782588 S    
C4    H8    1.108799 S    
P11   O35   1.548616 D    
C50   C94   1.439688 S    
O17   C21   1.395357 S    
P12   O36   1.548734 D    
C15   C19   1.526232 S    
C84   N4    1.156488 T    
C16   H28   1.111031 S    
C48   C74   1.546693 S    
C12   Cl36  1.782597 S    
C59   C63   1.399044 A    
O11   P16   1.762009 S    
C83   N3    1.156452 T    
C42   C46   1.432666 A    
C27   Cl15  1.768233 S    
C2    C30   1.536279 S    
C13   H21   1.107926 S    
O23   C31   1.400830 S    
C24   H36   1.098077 S    
C13   H25   1.110953 S    
C58   H42   1.072415 S    
O20   C24   1.395400 S    
C25   C81   1.467172 S    
C26   H38   1.105625 S    
O21   C29   1.400888 S    
P5    C54   1.874139 S    
P7    Ba3   3.449604 S    
Ba1   O45   2.858577 S    
C25   H37   1.105517 S    
C85   N5    1.157059 T    
O32   Ba4   2.814213 S    
O11   Ba3   2.814478 S    
C18   Cl6   1.782141 S    
C57   H41   1.071939 S    
C36   H52   1.074021 S    
P16   C63   1.848701 S    
C65   C69   1.414263 A    
P3    C67   1.891960 S    
P1    C65   1.890287 S    
P12   O44   1.752256 S    
C80   Cl28  1.743832 S    
C11   Cl23  1.767007 S    
P4    C68   1.889656 S    
P1    O5    1.589114 S    
C22   H34   1.098233 S    
P15   C64   1.848150 S    
P8    O40   1.756908 S    
O21   P14   1.758254 S    
C4    C32   1.535659 S    
C5    C9    1.531965 S    
C70   C74   1.434414 A    
C17   Cl5   1.777319 S    
C35   C55   1.387619 A    
C21   H33   1.098005 S    
P7    C56   1.874461 S    
C20   Cl4   1.776345 S    
C77   Cl25  1.743981 S    
C42   C90   1.443198 S    
P8    Ba4   3.450233 S    
C35   C39   1.386153 A    
P12   C39   1.869054 S    
C23   H35   1.098221 S    
P6    Ba2   3.450233 S    
P13   C62   1.848133 S    
C26   Cl14  1.768098 S    
P10   O34   1.548552 D    
C51   C55   1.418275 A    
C4    H12   1.108111 S    
P11   O31   1.766164 S    
C51   C95   1.439519 S    
H3    C31   1.106258 S    
C96   N16   1.157271 T    
P2    O6    1.588192 S    
C49   C53   1.419112 A    
C20   H32   1.105663 S    
C86   N6    1.157002 T    
H1    C29   1.106340 S    
C79   Cl27  1.743978 S    
C12   Cl32  1.779084 S    
C1    H5    1.108811 S    
P7    O27   1.576538 D    
C60   C64   1.398547 A    
Ba3   O47   2.858577 S    
O5    Ba2   2.859340 S    
O10   Ba2   2.813959 S    
C66   C70   1.414244 A    
P2    Ba2   3.447850 S    
C5    H13   1.104839 S    
P6    C53   1.874078 S    
Ba3   Ba4   4.739508 S    
O27   Ba3   2.860671 S    
Ba4   O48   2.857268 S    
C2    H6    1.108563 S    
C40   C44   1.418852 A    
C9    Cl29  1.779209 S    
O22   C30   1.400851 S    
C49   C93   1.442256 S    
C34   C54   1.387832 A    
C67   C71   1.414715 A    
C8    H16   1.104924 S    
C47   C73   1.547643 S    
P6    O38   1.750663 S    
H4    C32   1.106354 S    
O10   P13   1.761341 S    
C33   C37   1.385916 A    
C6    C10   1.531487 S    
C10   Cl34  1.782545 S    
C59   H43   1.072252 S    
O18   C22   1.395409 S    
C60   H44   1.071911 S    
C23   Cl11  1.722302 S    
P7    O48   1.594122 S    
C57   C73   1.415018 A    
C37   C41   1.419425 A    
C22   Cl10  1.722382 S    
C67   C79   1.403037 A    
P3    Ba3   3.448464 S    
C18   Cl2   1.781052 S    
C1    H9    1.108105 S    
C24   Cl12  1.722075 S    
O22   P13   1.758806 S    
C17   Cl1   1.776105 S    
Ba1   Ba2   4.739508 S    
C66   C78   1.403426 A    
P5    O37   1.757264 S    
P9    O33   1.548726 D    
C7    H19   1.109746 S    
P10   O42   1.751452 S    
O1    Ba1   2.859443 S    
P11   C40   1.868674 S    
C64   C80   1.398873 A    
C69   C73   1.434579 A    
P5    O25   1.576538 D    
C78   Cl26  1.744877 S    
O28   Ba4   2.862012 S    
O39   C16   1.393171 S    
C10   Cl22  1.766802 S    
C58   C62   1.398788 A    
O3    Ba3   2.859443 S    
P9    C38   1.868837 S    
Ba2   O46   2.857268 S    
C9    Cl21  1.766763 S    
C20   Cl8   1.777780 S    
Ba4   O47   3.010602 S    
C45   C49   1.448471 A    
C48   C52   1.448205 A    
C27   C83   1.467067 S    
C19   Cl3   1.781099 S    
P3    O7    1.589114 S    
C43   C91   1.443152 S    
C16   C20   1.532501 S    
C61   C77   1.398811 A    
C22   C26   1.547848 S    
O15   P16   1.549369 D    
Ba3   O48   3.010824 S    
C68   C72   1.413820 A    
C3    H7    1.108559 S    
C21   C25   1.547910 S    
C15   H23   1.109719 S    
Ba1   O46   3.010824 S    
C82   N2    1.156459 T    
C6    H14   1.105135 S    
C18   H30   1.108670 S    
C39   C43   1.418985 A    
O13   P14   1.549155 D    
C28   Cl16  1.768277 S    
C25   Cl13  1.768418 S    
C19   H31   1.108539 S    
C15   H27   1.104819 S    
C24   C28   1.547934 S    
O12   P15   1.761432 S    
C7    H15   1.105123 S    
C63   C79   1.399119 A    
C14   H26   1.102445 S    
O8    Ba3   2.858029 S    
P2    C66   1.891245 S    
C7    C11   1.531430 S    
C72   C76   1.434152 A    
C92   N12   1.156858 T    
C11   Cl35  1.782504 S    
C21   Cl9   1.722103 S    
C36   C40   1.385430 A    
