data_mof_unit_59494.cif
_audit_creation_date              2012-12-10T16:52:04-0500
_audit_creation_method            fapswitch 2.2
_symmetry_space_group_name_H-M    P1
_symmetry_Int_Tables_number       1
_space_group_crystal_system       triclinic
_cell_length_a                    7.858767
_cell_length_b                    8.541446
_cell_length_c                    14.885121
_cell_angle_alpha                 92.035557
_cell_angle_beta                  85.232598
_cell_angle_gamma                 93.721057
_cell_volume                      993.155247674

loop_
_atom_site_label
_atom_site_type_symbol
_atom_type_description
_atom_site_fract_x
_atom_site_fract_y
_atom_site_fract_z
_atom_type_partial_charge
Br1   Br    Br    0.386126 0.167599 0.252316 -0.431693
Br2   Br    Br    0.613874 0.832401 0.747684 -0.431693
Br3   Br    Br    0.716504 0.956118 0.108190 -0.430517
Br4   Br    Br    0.283496 0.043882 0.891810 -0.430517
Br5   Br    Br    0.036847 0.301862 0.396362 -0.292284
Br6   Br    Br    0.963153 0.698138 0.603638 -0.292284
C1    C     C_R   0.545431 0.794311 0.497542 0.965985
C2    C     C_R   0.556050 0.642264 0.813706 0.259782
C3    C     C_R   0.497062 0.495239 0.232289 -0.117759
C4    C     C_R   0.502938 0.504760 0.767711 -0.117759
C5    C     C_R   0.555503 0.631093 0.188213 -0.220232
C6    C     C_R   0.444497 0.368907 0.811787 -0.220232
C7    C     C_R   0.559678 0.634651 0.095102 0.064835
C8    C     C_R   0.440322 0.365349 0.904898 0.064835
C9    C     C_R   0.499926 0.498766 0.046943 -0.003282
C10   C     C_R   0.500074 0.501234 0.953057 -0.003282
C11   C     C_R   0.441223 0.360000 0.092638 0.024602
C12   C     C_R   0.454569 0.205689 0.502458 0.965986
C13   C     C_R   0.558777 0.640000 0.907362 0.024602
C14   C     C_R   0.621698 0.770401 0.049097 0.266366
C15   C     C_R   0.378302 0.229599 0.950903 0.266366
C16   C     C_R   0.619485 0.772450 0.956169 -0.144248
C17   C     C_R   0.380515 0.227550 0.043831 -0.144248
C18   C     C_2   0.569175 0.958091 0.496252 -0.290787
C19   C     C_2   0.430825 0.041909 0.503747 -0.290787
C20   C     C_R   0.501229 0.501867 0.672465 0.919309
C21   C     C_R   0.498770 0.498133 0.327534 0.919309
C22   C     C_R   0.443950 0.357736 0.186293 0.259782
H1    H     H_    0.597327 0.733143 0.227805 0.198834
H2    H     H_    0.402672 0.266857 0.772195 0.198834
H3    H     H_    0.668030 0.878620 0.922948 0.229086
H4    H     H_    0.331970 0.121380 0.077051 0.229086
H5    H     H_    0.699919 0.009071 0.489252 0.210267
H6    H     H_    0.300081 0.990929 0.510748 0.210267
N1    N     N_2   0.950330 0.457950 0.475660 0.071896
N2    N     N_2   0.049670 0.542050 0.524340 0.071896
O1    O     O_R   0.389250 0.738570 0.505970 -0.606608
O2    O     O_R   0.610750 0.261430 0.494030 -0.606608
O3    O     O_R   0.678390 0.711620 0.490370 -0.593642
O4    O     O_R   0.321610 0.288380 0.509630 -0.593642
O5    O     O_R   0.355420 0.513510 0.639950 -0.592461
O6    O     O_R   0.644580 0.486490 0.360050 -0.592461
O7    O     O_R   0.644560 0.486560 0.624350 -0.585638
O8    O     O_R   0.355440 0.513440 0.375650 -0.585638
Zn1   Zn    Zn3+2 0.306940 0.517990 0.510420 1.098188
Zn2   Zn    Zn3+2 0.693060 0.482010 0.489580 1.098188

loop_
_geom_bond_atom_site_label_1
_geom_bond_atom_site_label_2
_ccdc_geom_bond_type
Br1   C22   S    
C3    C5    A    
N1    Zn2   S    
N1    N2    D    
C6    C8    A    
C19   H6    S    
C17   H4    S    
C4    C20   S    
C7    C9    A    
C1    C18   S    
C12   O2    A    
N2    Zn1   S    
C18   C19   D    
Br4   C15   S    
C5    C7    A    
C21   O6    A    
C5    H1    S    
C11   C17   A    
C12   C19   S    
C4    C6    A    
O3    Zn2   S    
Br5   N1    S    
C8    C15   A    
Br6   N2    S    
C20   O7    A    
C15   C17   A    
C10   C13   A    
O4    Zn1   S    
O7    Zn2   S    
C8    C10   A    
O2    Zn2   S    
C2    C13   A    
C16   H3    S    
C20   O5    A    
O1    Zn1   S    
C9    C10   A    
Br3   C14   S    
C13   C16   A    
C12   O4    A    
O8    Zn1   S    
C3    C21   S    
C2    C4    A    
O6    Zn2   S    
C9    C11   A    
O5    Zn1   S    
C1    O3    A    
C7    C14   A    
C6    H2    S    
C11   C22   A    
C21   O8    A    
Br2   C2    S    
C18   H5    S    
C3    C22   A    
C14   C16   A    
C1    O1    A    
