data_mof_unit_11448.cif
_audit_creation_date              2013-03-05T15:50:13-0500
_audit_creation_method            fapswitch 2.2
_symmetry_space_group_name_H-M    P1
_symmetry_Int_Tables_number       1
_space_group_crystal_system       triclinic
_cell_length_a                    15.063364
_cell_length_b                    15.049719
_cell_length_c                    34.739138
_cell_angle_alpha                 90.578723
_cell_angle_beta                  89.658618
_cell_angle_gamma                 60.171675
_cell_volume                      6831.11765985

loop_
_atom_site_label
_atom_site_type_symbol
_atom_site_description
_atom_site_fract_x
_atom_site_fract_y
_atom_site_fract_z
_atom_type_partial_charge
O1    O     O_R   0.502070 0.323090 0.541280 -0.479911
O2    O     O_R   0.338340 0.520690 0.539540 -0.435276
C1    C     C_R   0.300771 0.608887 0.555967 0.557011
O3    O     O_R   0.324760 0.674070 0.543580 -0.513858
O4    O     O_R   0.522400 0.640310 0.540110 -0.506585
C2    C     C_R   0.611161 0.589356 0.555115 0.559686
O5    O     O_R   0.675940 0.500630 0.542210 -0.441063
O6    O     O_R   0.641790 0.337020 0.538150 -0.497594
C3    C     C_R   0.589860 0.300272 0.553485 0.538091
O7    O     O_R   0.500260 0.324550 0.456580 -0.471798
O8    O     O_R   0.336660 0.522040 0.461020 -0.445841
C4    C     C_R   0.297273 0.611359 0.446705 0.571705
O9    O     O_R   0.322940 0.675540 0.458880 -0.463476
O10   O     O_R   0.520720 0.641670 0.461580 -0.500043
C5    C     C_R   0.608511 0.590515 0.445626 0.548933
O11   O     O_R   0.674120 0.502090 0.457500 -0.496213
O12   O     O_R   0.640110 0.338380 0.459630 -0.504292
C6    C     C_R   0.588758 0.301691 0.443952 0.540951
Cr1   Cr    Cr6+3 0.421670 0.426920 0.499620 1.191413
Cr2   Cr    Cr6+3 0.427030 0.651190 0.500980 1.105814
Cr3   Cr    Cr6+3 0.651280 0.421870 0.499380 1.110880
O13   O     O_3   0.499990 0.499990 0.499990 -0.294906
N1    N     N_R   0.577007 0.698873 0.770272 -0.092283
N2    N     N_R   0.571947 0.697692 0.732057 -0.163137
C7    C     C_R   0.633087 0.628439 0.591216 -0.058412
C8    C     C_R   0.724863 0.570105 0.611732 0.186393
C9    C     C_R   0.730851 0.595735 0.650334 0.201472
C10   C     C_R   0.647177 0.681953 0.667973 -0.053173
C11   C     C_R   0.561652 0.748171 0.645881 -0.038281
C12   C     C_R   0.555118 0.719821 0.607899 -0.117506
N3    N     N_R   0.726404 0.698719 0.727155 -0.137538
N4    N     N_R   0.731549 0.699779 0.765345 -0.141865
C13   C     C_R   0.657503 0.698891 0.787508 0.408203
C14   C     C_R   0.646817 0.697008 0.709873 0.318592
C15   C     C_R   0.757621 0.609749 0.845601 -0.025073
C16   C     C_R   0.777854 0.614388 0.884865 0.158683
C17   C     C_R   0.611091 0.769414 0.893345 -0.045522
C18   C     C_R   0.592759 0.766856 0.853604 0.201972
C19   C     C_R   0.668828 0.691186 0.829539 -0.005557
C20   C     C_R   0.708688 0.698653 0.908326 -0.048690
H1    H     H_    0.486601 0.767471 0.591731 0.216163
C21   C     C_R   0.715956 0.091106 0.908662 -0.003013
C22   C     C_R   0.619053 0.133971 0.890686 -0.022138
C23   C     C_R   0.613450 0.145196 0.850434 0.187180
C24   C     C_R   0.701938 0.123631 0.829146 0.020976
C25   C     C_R   0.792574 0.102500 0.848048 0.154749
C26   C     C_R   0.799168 0.088758 0.888159 -0.033513
C27   C     C_R   0.687009 0.219603 0.771050 0.005916
C28   C     C_R   0.683274 0.232973 0.731393 0.008349
C29   C     C_R   0.691990 0.153247 0.706937 -0.003348
C30   C     C_R   0.707648 0.059517 0.722402 0.019418
C31   C     C_R   0.709268 0.047958 0.762916 0.037802
C32   C     C_R   0.697844 0.129994 0.786885 0.077926
C33   C     C_R   0.572519 0.205527 0.651176 0.001075
C34   C     C_R   0.551315 0.237036 0.613137 -0.141672
C35   C     C_R   0.722860 0.208020 0.603245 -0.072423
C36   C     C_R   0.748654 0.171035 0.640824 0.006762
C37   C     C_R   0.671787 0.173837 0.665478 0.015355
C38   C     C_R   0.623679 0.243759 0.589721 -0.016068
H2    H     H_    0.679702 0.280304 0.790214 0.206991
H3    H     H_    0.474725 0.263823 0.602646 0.180367
H4    H     H_    0.779135 0.211828 0.584823 0.199187
C39   C     C_R   0.116416 0.683966 0.916079 -0.003102
C40   C     C_R   0.145514 0.743941 0.893408 -0.049306
C41   C     C_R   0.171220 0.718193 0.854138 0.194517
C42   C     C_R   0.177719 0.628193 0.838835 0.023112
C43   C     C_R   0.168969 0.559732 0.863314 -0.039423
C44   C     C_R   0.143589 0.584274 0.902434 0.193115
C45   C     C_R   0.283422 0.558497 0.777779 0.234434
C46   C     C_R   0.287244 0.560946 0.737485 0.002299
C47   C     C_R   0.197977 0.611402 0.715778 -0.003643
C48   C     C_R   0.101008 0.656886 0.734159 0.036408
C49   C     C_R   0.096061 0.655957 0.774869 0.240275
C50   C     C_R   0.186778 0.609162 0.796656 -0.000630
C51   C     C_R   0.210574 0.705428 0.658537 -0.020300
C52   C     C_R   0.226189 0.710414 0.618460 -0.065038
C53   C     C_R   0.224979 0.550186 0.608185 0.153876
C54   C     C_R   0.210372 0.544028 0.648100 -0.032300
C55   C     C_R   0.209368 0.618679 0.673540 -0.050631
C56   C     C_R   0.244396 0.626948 0.593811 -0.034446
H5    H     H_    0.360701 0.525048 0.722652 0.174591
H6    H     H_    0.181846 0.487179 0.851654 0.204666
C57   C     C_R   0.687503 0.711913 0.088953 -0.000721
C58   C     C_R   0.596593 0.790365 0.106246 0.142470
C59   C     C_R   0.575635 0.784886 0.145505 0.202295
C60   C     C_R   0.647227 0.701169 0.167357 -0.018156
C61   C     C_R   0.730272 0.616366 0.148669 0.093225
C62   C     C_R   0.745523 0.619146 0.109011 0.302336
C63   C     C_R   0.623426 0.625427 0.227859 0.246982
C64   C     C_R   0.626184 0.619520 0.267758 -0.056092
C65   C     C_R   0.639007 0.689204 0.290364 -0.085938
C66   C     C_R   0.648961 0.768454 0.273355 0.043517
C67   C     C_R   0.646661 0.775426 0.232640 0.262779
C68   C     C_R   0.636420 0.702073 0.209871 0.046452
C69   C     C_R   0.549158 0.738709 0.354081 0.194202
C70   C     C_R   0.544870 0.715256 0.392531 -0.097391
C71   C     C_R   0.717726 0.571743 0.388336 -0.076501
C72   C     C_R   0.725839 0.595535 0.350007 -0.023645
C73   C     C_R   0.639265 0.676587 0.332307 -0.058619
C74   C     C_R   0.626172 0.628611 0.409147 -0.042300
H7    H     H_    0.617550 0.559990 0.281611 0.209993
H8    H     H_    0.473972 0.760490 0.408495 0.194634
H9    H     H_    0.781317 0.506174 0.401480 0.200520
C75   C     C_R   0.691870 0.115189 0.085594 -0.027084
C76   C     C_R   0.765800 0.133617 0.103280 0.187678
C77   C     C_R   0.752308 0.167053 0.142165 -0.031114
C78   C     C_R   0.668567 0.173784 0.163443 -0.054235
C79   C     C_R   0.586101 0.174899 0.143814 0.198648
C80   C     C_R   0.595009 0.153513 0.103970 -0.030617
C81   C     C_R   0.596735 0.264884 0.227048 0.240330
C82   C     C_R   0.599065 0.265060 0.267475 0.201546
C83   C     C_R   0.672498 0.178589 0.287266 -0.073821
C84   C     C_R   0.746734 0.090732 0.266975 0.019684
C85   C     C_R   0.744453 0.090075 0.226201 -0.035882
C86   C     C_R   0.669093 0.176724 0.206340 -0.059986
C87   C     C_R   0.725852 0.218364 0.348792 -0.007801
C88   C     C_R   0.706005 0.248524 0.387229 -0.088601
C89   C     C_R   0.573764 0.201450 0.389062 -0.042826
C90   C     C_R   0.593781 0.169746 0.350257 0.039566
C91   C     C_R   0.667438 0.183219 0.329703 0.058459
C92   C     C_R   0.626122 0.245521 0.407080 -0.005667
H10   H     H_    0.782288 0.228887 0.333114 0.171138
H11   H     H_    0.748196 0.281496 0.400432 0.158957
H12   H     H_    0.513746 0.196819 0.404662 0.209881
C93   C     C_R   0.098393 0.701818 0.090919 -0.011640
C94   C     C_R   0.111111 0.613202 0.109728 -0.059042
C95   C     C_R   0.129919 0.603912 0.149574 0.217586
C96   C     C_R   0.133733 0.683637 0.169974 0.011530
C97   C     C_R   0.131735 0.766147 0.150009 -0.009358
C98   C     C_R   0.131372 0.764265 0.109408 0.203359
C99   C     C_R   0.233682 0.661748 0.229354 0.194789
C100  C     C_R   0.242697 0.658036 0.269701 -0.006153
C101  C     C_R   0.158418 0.672815 0.292767 -0.093983
C102  C     C_R   0.065801 0.690055 0.275917 0.003881
C103  C     C_R   0.058052 0.692345 0.235409 0.188752
C104  C     C_R   0.141665 0.679185 0.212432 -0.016398
C105  C     C_R   0.207485 0.570369 0.351090 -0.022943
C106  C     C_R   0.234858 0.554536 0.389584 0.170763
C107  C     C_R   0.184237 0.735882 0.396524 0.186748
C108  C     C_R   0.151639 0.751923 0.357792 -0.010604
C109  C     C_R   0.170406 0.666395 0.334849 -0.067124
C110  C     C_R   0.233212 0.635178 0.411694 -0.032378
H13   H     H_    0.215882 0.506864 0.333351 0.222247
O14   O     O_R   0.017640 0.822070 0.960410 -0.477002
O15   O     O_R   0.822000 0.989470 0.960340 -0.478285
C111  C     C_R   0.734205 0.030279 0.944408 0.592998
O16   O     O_R   0.666920 0.007430 0.955290 -0.464532
O17   O     O_R   0.694410 0.812480 0.959650 -0.534184
C112  C     C_R   0.744706 0.721837 0.945262 0.571448
O18   O     O_R   0.831550 0.656950 0.958960 -0.371934
O19   O     O_R   0.998590 0.685540 0.963930 -0.454156
C113  C     C_R   0.043994 0.731037 0.949677 0.578507
O20   O     O_R   0.008220 0.831200 0.045060 -0.438013
O21   O     O_R   0.813270 0.997930 0.038810 -0.462555
C114  C     C_R   0.721009 0.042958 0.051883 0.574862
O22   O     O_R   0.657500 0.016560 0.039940 -0.450778
O23   O     O_R   0.685680 0.820940 0.038120 -0.491320
C115  C     C_R   0.731561 0.732493 0.053880 0.647757
O24   O     O_R   0.822130 0.666070 0.043610 -0.336217
O25   O     O_R   0.989860 0.694000 0.042400 -0.495870
C116  C     C_R   0.032773 0.741892 0.056452 0.575529
Cr4   Cr    Cr6+3 0.910810 0.908010 0.001130 1.209956
Cr5   Cr    Cr6+3 0.682800 0.909890 0.998370 1.167976
Cr6   Cr    Cr6+3 0.908370 0.682300 0.002180 1.313208
O26   O     O_3   0.833990 0.833400 0.000560 -0.349271
N5    N     N_R   0.810548 0.482088 0.594355 0.121749
O27   O     O_R   0.855849 0.492594 0.564162 -0.244232
O28   O     O_R   0.846953 0.392415 0.609843 -0.237089
C117  C     C_2   0.893922 0.071244 0.907581 0.348337
H14   H     H_    0.967742 0.025402 0.893512 0.138804
O29   O     O_2   0.889698 0.112507 0.938520 -0.361255
C118  C     C_2   0.854630 0.133522 0.654556 0.288040
H15   H     H_    0.876530 0.102979 0.683256 0.142127
O30   O     O_2   0.919317 0.135694 0.633852 -0.422350
C119  C     C_2   0.666818 0.332151 0.716026 0.293380
H16   H     H_    0.655338 0.348391 0.685571 0.107725
O31   O     O_2   0.666129 0.397546 0.737340 -0.378080
N6    N     N_R   0.518842 0.175869 0.830919 0.078898
O32   O     O_R   0.475905 0.119396 0.832826 -0.219128
O33   O     O_R   0.481143 0.253969 0.808110 -0.236710
C120  C     C_2   0.716067 0.976288 0.696302 0.253816
H17   H     H_    0.683442 0.929275 0.704746 0.119318
O34   O     O_2   0.760607 0.958553 0.665274 -0.479654
C121  C     C_2   0.727064 0.949005 0.779440 0.318919
H18   H     H_    0.761321 0.879666 0.761973 0.169895
O35   O     O_2   0.703934 0.942755 0.812615 -0.448252
C122  C     C_2   0.485862 0.213036 0.674747 0.270361
H19   H     H_    0.415898 0.227464 0.660621 0.160853
O36   O     O_2   0.489205 0.206108 0.709730 -0.430366
N7    N     N_R   0.877651 0.095609 0.826425 0.069171
O37   O     O_R   0.913927 0.155738 0.834921 -0.244997
O38   O     O_R   0.914807 0.034052 0.796743 -0.249139
C123  C     C_2   0.159161 0.827098 0.910733 0.319034
H20   H     H_    0.149139 0.891272 0.893714 0.173572
O39   O     O_2   0.188472 0.821352 0.943792 -0.377832
N8    N     N_R   0.152078 0.506037 0.928268 0.128768
O40   O     O_R   0.159840 0.421506 0.914676 -0.203635
O41   O     O_R   0.175304 0.508551 0.964139 -0.209134
C124  C     C_2   0.191663 0.461381 0.662272 0.299480
H21   H     H_    0.155746 0.430327 0.643716 0.207008
O42   O     O_2   0.217545 0.425480 0.694302 -0.453673
N9    N     N_R   0.378013 0.509654 0.798807 0.126028
O43   O     O_R   0.381775 0.475557 0.833361 -0.273641
O44   O     O_R   0.462980 0.493139 0.782474 -0.249816
N10   N     N_R   0.189676 0.783741 0.829632 0.080267
O45   O     O_R   0.277134 0.748812 0.811772 -0.206506
O46   O     O_R   0.117276 0.877111 0.823669 -0.238567
C125  C     C_2   0.006483 0.705572 0.710531 0.308491
H22   H     H_    0.010243 0.722730 0.680525 0.112612
O47   O     O_2   0.923505 0.724842 0.723793 -0.425748
N11   N     N_R   0.999243 0.710075 0.794566 0.107487
O48   O     O_R   0.952867 0.809424 0.797317 -0.275527
O49   O     O_R   0.964867 0.660049 0.814157 -0.310190
C126  C     C_2   0.190022 0.793913 0.684242 0.311538
H23   H     H_    0.144042 0.871615 0.674098 0.171023
O50   O     O_2   0.225686 0.781300 0.716497 -0.410727
N12   N     N_R   0.869847 0.533380 0.900651 0.084645
O51   O     O_R   0.957784 0.524070 0.891318 -0.286513
O52   O     O_R   0.865489 0.470863 0.925178 -0.118505
C127  C     C_2   0.222221 0.803164 0.602026 0.262381
H24   H     H_    0.183754 0.832959 0.574953 0.163682
O53   O     O_2   0.264140 0.845042 0.617778 -0.431476
N13   N     N_R   0.219614 0.478413 0.582011 0.078585
O54   O     O_R   0.158200 0.511490 0.552845 -0.248887
O55   O     O_R   0.279500 0.380353 0.586038 -0.340055
N14   N     N_R   0.522952 0.872407 0.083439 0.136042
O56   O     O_R   0.515890 0.961971 0.085465 -0.289550
O57   O     O_R   0.477139 0.852692 0.055799 -0.202894
N15   N     N_R   0.823298 0.527680 0.090207 0.996050
O58   O     O_R   0.805051 0.495290 0.057969 -1.040277
O59   O     O_R   0.805051 0.495290 0.057969 -1.040277
C128  C     C_2   0.823733 0.533565 0.328371 0.292188
H25   H     H_    0.832620 0.553004 0.299154 0.159199
O60   O     O_2   0.896318 0.460178 0.343035 -0.417757
N16   N     N_R   0.610541 0.550901 0.206138 0.146889
O61   O     O_R   0.648246 0.458191 0.218893 -0.269223
O62   O     O_R   0.558310 0.575642 0.174498 -0.167774
N17   N     N_R   0.482442 0.863877 0.163227 0.136882
O63   O     O_R   0.450708 0.960126 0.157068 -0.166161
O64   O     O_R   0.431051 0.840080 0.187114 -0.207848
C129  C     C_2   0.665351 0.839778 0.298535 0.293376
H26   H     H_    0.649029 0.845073 0.329166 0.139994
O65   O     O_2   0.700042 0.891569 0.285849 -0.509450
N18   N     N_R   0.820921 0.531386 0.671921 0.128880
O66   O     O_R   0.815669 0.480544 0.701088 -0.203171
O67   O     O_R   0.909569 0.517424 0.660637 -0.244642
N19   N     N_R   0.651470 0.858279 0.214485 0.114693
O68   O     O_R   0.718051 0.840536 0.187239 -0.322180
O69   O     O_R   0.583140 0.952359 0.223023 -0.207128
N20   N     N_R   0.459852 0.822825 0.337401 0.082630
O70   O     O_R   0.430342 0.814828 0.303045 -0.271064
O71   O     O_R   0.400375 0.903148 0.358411 -0.232866
N21   N     N_R   0.799678 0.526679 0.169727 0.078406
O72   O     O_R   0.821454 0.435965 0.157495 -0.140640
O73   O     O_R   0.842670 0.534914 0.200863 -0.253333
N22   N     N_R   0.855078 0.116251 0.082010 0.144965
O74   O     O_R   0.845403 0.166551 0.050609 -0.107463
O75   O     O_R   0.944988 0.042853 0.091691 -0.210225
C130  C     C_2   0.502996 0.171460 0.082208 0.396526
H27   H     H_    0.443366 0.162068 0.095895 0.203022
O76   O     O_2   0.490931 0.201297 0.049070 -0.365872
C131  C     C_2   0.534432 0.127787 0.330975 0.325363
H28   H     H_    0.548691 0.104178 0.300914 0.170089
O77   O     O_2   0.469053 0.118485 0.348488 -0.399254
N23   N     N_R   0.529046 0.355312 0.288904 0.117913
O78   O     O_R   0.438970 0.369760 0.298202 -0.270253
O79   O     O_R   0.562980 0.409489 0.306110 -0.326871
N24   N     N_R   0.521443 0.354419 0.207279 0.155748
O80   O     O_R   0.427710 0.405083 0.220187 -0.158979
O81   O     O_R   0.544369 0.383059 0.175289 -0.192907
C132  C     C_2   0.479307 0.847289 0.662083 0.311229
H29   H     H_    0.482801 0.870230 0.691467 0.145901
O82   O     O_2   0.407376 0.906228 0.642462 -0.401553
C133  C     C_2   0.823855 0.195371 0.161181 0.401432
H30   H     H_    0.818122 0.211265 0.191880 0.126661
O83   O     O_2   0.887679 0.205328 0.142878 -0.273146
C134  C     C_2   0.823488 0.997829 0.287819 0.326643
H31   H     H_    0.859063 0.923374 0.273765 0.163127
O84   O     O_2   0.848805 0.002582 0.320726 -0.474046
C135  C     C_2   0.821759 0.000018 0.203528 0.271427
H32   H     H_    0.799152 0.974618 0.177958 0.177341
O85   O     O_2   0.912099 0.957437 0.211911 -0.509374
N25   N     N_R   0.492862 0.199660 0.164083 0.092331
O86   O     O_R   0.406707 0.278389 0.154063 -0.215524
O87   O     O_R   0.494439 0.147533 0.193929 -0.217294
C136  C     C_2   0.114319 0.526419 0.087648 0.345141
H33   H     H_    0.090171 0.476737 0.100666 0.193288
O88   O     O_2   0.148531 0.506753 0.054781 -0.367007
N26   N     N_R   0.175361 0.814183 0.086985 0.151401
O89   O     O_R   0.197523 0.790130 0.050718 -0.206633
O90   O     O_R   0.219060 0.859658 0.103930 -0.160599
C137  C     C_2   0.099541 0.855990 0.340620 0.344938
H34   H     H_    0.095590 0.864605 0.309611 0.110164
O91   O     O_2   0.057118 0.933490 0.360646 -0.356275
C138  C     C_2   0.829052 0.517546 0.822067 0.358320
H35   H     H_    0.908151 0.470124 0.830301 0.194566
O92   O     O_2   0.799467 0.490889 0.793916 -0.383693
C139  C     C_2   0.340417 0.637255 0.288237 0.359886
H36   H     H_    0.341116 0.659566 0.317954 0.101326
O93   O     O_2   0.422076 0.592646 0.270922 -0.360030
N27   N     N_R   0.315809 0.653316 0.205350 0.117477
O94   O     O_R   0.348366 0.718146 0.209859 -0.232819
O95   O     O_R   0.349673 0.589461 0.176245 -0.179158
N28   N     N_R   0.141966 0.515615 0.169715 0.092451
O96   O     O_R   0.067972 0.494637 0.170424 -0.236759
O97   O     O_R   0.221298 0.463692 0.191239 -0.182438
C140  C     C_2   0.974673 0.710433 0.299942 0.297080
H37   H     H_    0.898657 0.752014 0.288077 0.165632
O98   O     O_2   0.982550 0.680177 0.332878 -0.456654
N29   N     N_R   0.966329 0.705340 0.217504 0.086573
O99   O     O_R   0.926277 0.650353 0.228345 -0.259135
O100  O     O_R   0.927839 0.764818 0.188095 -0.314361
N30   N     N_R   0.266136 0.455500 0.405259 0.104508
O101  O     O_R   0.324665 0.373173 0.385056 -0.275266
O102  O     O_R   0.219558 0.448183 0.435709 -0.232882
C141  C     C_2   0.120150 0.857464 0.171672 0.389799
H38   H     H_    0.144753 0.851690 0.201204 0.133829
O103  O     O_2   0.076611 0.942414 0.157476 -0.345326
N31   N     N_R   0.171457 0.820655 0.419935 0.134198
O104  O     O_R   0.219462 0.869573 0.410951 -0.237885
O105  O     O_R   0.119871 0.842583 0.452160 -0.267223
C142  C     C_2   0.528829 0.846138 0.919170 0.348670
H39   H     H_    0.522854 0.826313 0.948658 0.156973
O106  O     O_2   0.469069 0.932454 0.908304 -0.381580
N32   N     N_R   0.497301 0.841734 0.837485 0.133672
O107  O     O_R   0.412993 0.842919 0.846911 -0.196798
O108  O     O_R   0.495051 0.906149 0.812273 -0.223726
C143  C     C_2   0.522617 0.173663 0.913721 0.357163
H40   H     H_    0.453601 0.181721 0.900966 0.195998
O109  O     O_2   0.517828 0.202921 0.946990 -0.379935

loop_
_geom_bond_atom_site_label_1
_geom_bond_atom_site_label_2
_geom_bond_distance
_ccdc_geom_bond_type
C142  O106  1.221052 D    
C94   C95   1.408921 A    
C70   H8    1.083321 S    
C15   C138  1.494288 S    
N13   O54   1.301314 A    
C28   C119  1.491262 S    
C9    N18   1.435522 S    
C85   C86   1.421301 A    
C119  O31   1.221457 D    
N27   O94   1.300321 A    
O23   C115  1.285795 A    
Cr5   O26   1.978234 S    
C17   C18   1.413417 A    
C34   C38   1.400349 A    
O4    C2    1.282128 A    
C107  C110  1.423871 A    
C69   C73   1.414072 A    
C2    C7    1.486986 S    
C77   C78   1.417065 A    
N20   O71   1.301415 A    
C132  H29   1.084215 S    
C79   C80   1.408280 A    
C133  H30   1.084080 S    
C63   C68   1.413180 A    
C81   C82   1.405034 A    
N29   O99   1.300352 A    
C53   N13   1.438028 S    
C57   C62   1.418298 A    
C124  H21   1.084566 S    
Cr3   O13   1.977312 S    
C75   C76   1.416511 A    
O15   C111  1.280652 A    
C107  N31   1.434931 S    
C120  O34   1.220894 D    
N17   O64   1.300101 A    
N9    O43   1.300677 A    
C30   C31   1.418754 A    
C108  C109  1.409465 A    
C83   C91   1.474902 S    
N8    O40   1.301628 A    
C30   C120  1.491570 S    
C120  H17   1.084697 S    
N2    C14   1.357906 A    
O20   C116  1.271962 A    
C141  H38   1.082473 S    
C3    C38   1.471637 S    
C80   C130  1.486524 S    
C22   C23   1.408178 A    
C22   C143  1.490184 S    
Cr4   O26   1.972981 S    
C119  H16   1.083671 S    
C128  O60   1.221275 D    
C45   C50   1.415977 A    
C89   H12   1.083295 S    
O21   C114  1.283072 A    
C71   H9    1.083428 S    
N9    O44   1.301478 A    
C72   C128  1.487859 S    
N24   O81   1.301224 A    
C33   C122  1.491930 S    
C115  O24   1.272043 A    
C35   H4    1.083544 S    
C139  H36   1.084062 S    
O21   Cr4   1.914896 S    
C65   C66   1.408985 A    
C111  O16   1.277960 A    
C97   C141  1.491458 S    
C10   C11   1.411343 A    
O9    Cr2   2.048966 S    
O2    Cr1   1.915155 S    
C54   C55   1.416453 A    
C31   C121  1.497015 S    
C48   C49   1.416346 A    
C130  O76   1.221350 D    
C16   N12   1.431515 S    
C107  C108  1.416440 A    
C2    O5    1.273848 A    
C35   C38   1.398623 A    
C137  O91   1.220481 D    
C7    C8    1.416648 A    
N4    C13   1.357142 A    
C136  O88   1.221167 D    
O7    C6    1.273439 A    
C45   C46   1.402219 A    
C39   C113  1.501180 S    
O3    Cr2   2.028963 S    
C72   C73   1.417355 A    
C114  O22   1.274630 A    
C129  O65   1.218281 D    
C51   C55   1.419023 A    
N31   O105  1.301146 A    
N7    O37   1.301170 A    
C82   C83   1.408875 A    
C96   C97   1.415740 A    
C47   C55   1.487741 S    
C71   C72   1.402598 A    
N30   O101  1.301284 A    
C48   C125  1.492052 S    
O4    Cr2   1.931885 S    
C59   C60   1.415636 A    
N18   O66   1.301256 A    
C100  C139  1.495535 S    
C17   C20   1.424457 A    
N21   O72   1.301201 A    
C126  O50   1.220719 D    
N30   O102  1.301435 A    
C41   N10   1.436007 S    
C42   C50   1.482531 S    
C121  H18   1.082237 S    
C129  H26   1.083888 S    
N32   O108  1.301115 A    
C128  H25   1.084878 S    
C67   N19   1.436317 S    
N3    N4    1.329787 A    
C121  O35   1.220009 D    
N22   O75   1.300849 A    
C78   C79   1.413505 A    
C12   H1    1.083365 S    
N28   O97   1.300472 A    
C42   C43   1.397707 A    
C24   C32   1.471855 S    
C45   N9    1.444115 S    
C134  H31   1.081487 S    
N22   O74   1.301151 A    
N5    O28   1.301333 A    
C117  O29   1.221191 D    
C69   N20   1.441507 S    
C127  H24   1.085326 S    
C26   C117  1.484151 S    
C118  O30   1.221316 D    
N26   O89   1.302053 A    
N10   O46   1.300350 A    
C27   C32   1.394640 A    
C11   C132  1.488151 S    
C135  H32   1.085044 S    
C82   N23   1.434083 S    
C99   C104  1.409492 A    
C23   N6    1.437723 S    
C95   N28   1.438296 S    
N12   O51   1.299508 A    
C87   C91   1.398795 A    
C11   C12   1.401667 A    
C66   C129  1.491811 S    
C57   C58   1.413364 A    
O19   C113  1.284710 A    
O12   C6    1.274251 A    
N3    C14   1.355479 A    
N23   O79   1.300665 A    
C123  H20   1.082886 S    
C94   C136  1.487627 S    
C1    O3    1.279606 A    
C71   C74   1.399487 A    
C31   C32   1.418938 A    
C97   C98   1.410529 A    
C33   C34   1.392865 A    
C49   N11   1.433080 S    
C52   C56   1.420949 A    
C143  H40   1.083049 S    
N13   O55   1.300993 A    
C131  H28   1.084813 S    
O18   Cr6   2.046259 S    
C63   N16   1.437445 S    
C47   C48   1.412538 A    
O14   C113  1.272963 A    
O16   Cr5   2.037432 S    
C36   C37   1.419457 A    
C34   H3    1.082438 S    
C98   N26   1.452965 S    
N17   O63   1.300436 A    
N18   O67   1.301498 A    
C142  H39   1.085478 S    
C133  O83   1.220236 D    
C75   C114  1.496429 S    
C39   C40   1.425102 A    
C4    O9    1.275354 A    
O19   Cr6   1.913283 S    
N25   O86   1.301265 A    
O24   Cr6   2.029565 S    
C65   C73   1.471078 S    
C61   C62   1.399810 A    
C49   C50   1.414865 A    
C15   C16   1.407987 A    
C5    C74   1.472354 S    
C17   C142  1.488637 S    
C81   N24   1.442683 S    
C103  C104  1.413969 A    
C53   C54   1.413849 A    
O8    Cr1   1.929452 S    
C8    C9    1.407392 A    
O11   Cr3   2.033541 S    
C87   H10   1.083782 S    
O25   Cr6   1.928850 S    
Cr6   O26   1.974427 S    
C96   C104  1.480027 S    
C90   C131  1.485550 S    
C141  O103  1.220774 D    
C39   C44   1.419729 A    
O22   Cr5   2.036127 S    
C125  H22   1.084313 S    
N16   O61   1.301081 A    
C46   C47   1.400452 A    
C21   C22   1.420925 A    
C36   C118  1.487478 S    
N19   O69   1.300075 A    
C62   N15   1.436146 S    
C10   C14   1.470379 S    
C139  O93   1.219475 D    
C1    C56   1.507747 S    
C99   N27   1.439205 S    
N6    O32   1.300956 A    
N29   O100  1.300158 A    
N27   O95   1.301003 A    
O1    Cr1   2.046193 S    
C140  H37   1.081971 S    
C29   C37   1.477638 S    
O10   Cr2   1.912466 S    
O1    C3    1.266619 A    
C58   C59   1.410527 A    
C138  O92   1.221093 D    
C106  C110  1.419330 A    
C138  H35   1.083092 S    
C60   C61   1.414406 A    
N20   O70   1.301227 A    
O5    Cr3   2.041008 S    
C43   C44   1.404484 A    
C15   C19   1.412220 A    
C108  C137  1.492115 S    
N11   O48   1.299980 A    
O7    Cr1   2.031888 S    
N19   O68   1.300067 A    
C29   C30   1.421240 A    
C44   N8    1.442595 S    
C13   C19   1.470115 S    
C102  C103  1.412079 A    
C79   N25   1.438563 S    
N8    O41   1.301596 A    
C27   C28   1.391696 A    
Cr2   O13   1.974114 S    
C93   C94   1.416751 A    
C35   C36   1.403759 A    
C95   C96   1.413156 A    
C21   C111  1.494091 S    
C84   C134  1.496072 S    
C106  N30   1.435565 S    
C23   C24   1.407827 A    
C84   C85   1.417125 A    
C53   C56   1.419690 A    
C7    C12   1.405553 A    
C105  C109  1.391403 A    
C25   C26   1.407602 A    
N7    O38   1.301046 A    
C93   C116  1.486629 S    
N6    O33   1.300777 A    
C90   C91   1.413944 A    
C76   C77   1.414411 A    
C101  C109  1.472309 S    
O20   Cr4   2.047734 S    
C40   C41   1.412398 A    
C18   N32   1.435760 S    
C122  H19   1.085964 S    
N15   O59   1.301267 A    
C112  O18   1.279576 A    
C64   C65   1.393024 A    
C18   C19   1.407109 A    
C57   C115  1.491108 S    
C52   C127  1.487082 S    
C66   C67   1.418694 A    
C4    C110  1.489177 S    
C20   C112  1.500048 S    
N32   O107  1.301059 A    
O12   Cr3   1.921448 S    
C6    C92   1.472508 S    
N31   O104  1.301476 A    
C61   N21   1.440588 S    
N24   O80   1.300218 A    
C124  O42   1.220573 D    
C76   N22   1.434382 S    
C63   C64   1.389343 A    
C81   C86   1.413721 A    
C67   C68   1.421734 A    
N25   O87   1.299687 A    
C117  H14   1.083918 S    
C69   C70   1.394323 A    
C77   C133  1.496412 S    
C51   C52   1.419522 A    
C58   N14   1.431937 S    
C127  O53   1.220017 D    
N10   O45   1.300613 A    
N15   O58   1.301267 A    
C137  H34   1.084734 S    
C135  O85   1.219951 D    
C59   N17   1.441409 S    
C136  H33   1.082296 S    
O15   Cr4   1.930458 S    
C5    O11   1.274916 A    
C70   C74   1.402984 A    
C87   C88   1.387923 A    
C28   C29   1.414236 A    
C46   H5    1.083822 S    
C88   C92   1.403706 A    
C89   C90   1.405275 A    
C60   C68   1.484066 S    
C103  N29   1.441519 S    
C93   C98   1.413728 A    
O6    C3    1.277856 A    
N1    C13   1.355645 A    
N23   O78   1.300962 A    
O23   Cr5   1.918602 S    
C85   C135  1.486877 S    
C105  H13   1.084464 S    
N16   O62   1.301115 A    
C25   N7    1.439488 S    
C83   C84   1.412979 A    
C27   H2    1.084751 S    
C16   C20   1.418660 A    
Cr1   O13   1.972772 S    
O17   C112  1.279962 A    
C143  O109  1.221431 D    
N21   O73   1.300068 A    
C126  H23   1.084847 S    
C100  C101  1.416545 A    
C131  O77   1.221209 D    
C123  O39   1.221242 D    
C140  O98   1.220218 D    
C89   C92   1.404154 A    
C64   H7    1.083988 S    
C102  C140  1.495758 S    
N1    N2    1.330624 A    
C40   C123  1.487590 S    
O6    Cr3   1.918099 S    
C78   C86   1.490586 S    
N28   O96   1.300964 A    
N11   O49   1.300798 A    
N14   O56   1.299418 A    
N14   O57   1.300792 A    
C134  O84   1.219855 D    
N5    O27   1.301131 A    
C130  H27   1.084175 S    
C118  H15   1.084657 S    
C33   C37   1.419315 A    
C132  O82   1.220796 D    
C8    N5    1.434827 S    
O14   Cr4   2.031952 S    
O10   C5    1.272199 A    
O17   Cr5   1.921282 S    
O8    C4    1.276663 A    
N12   O52   1.300937 A    
C105  C106  1.389358 A    
C51   C126  1.493036 S    
O25   C116  1.278976 A    
O2    C1    1.281139 A    
C88   H11   1.083104 S    
C101  C102  1.417413 A    
N26   O90   1.301105 A    
C21   C26   1.422847 A    
C122  O36   1.219970 D    
C24   C25   1.406872 A    
C43   H6    1.083228 S    
C125  O47   1.220049 D    
C41   C42   1.407029 A    
C54   C124  1.492752 S    
C9    C10   1.412647 A    
C75   C80   1.418916 A    
C99   C100  1.407964 A    
