data_mof_unit_61879.cif
_audit_creation_date              2013-03-05T16:20:43-0500
_audit_creation_method            fapswitch 2.2
_symmetry_space_group_name_H-M    P1
_symmetry_Int_Tables_number       1
_space_group_crystal_system       triclinic
_cell_length_a                    15.799689
_cell_length_b                    15.789226
_cell_length_c                    15.006203
_cell_angle_alpha                 89.449768
_cell_angle_beta                  89.358435
_cell_angle_gamma                 90.017688
_cell_volume                      3743.11271836

loop_
_atom_site_label
_atom_site_type_symbol
_atom_site_description
_atom_site_fract_x
_atom_site_fract_y
_atom_site_fract_z
_atom_type_partial_charge
O1    O     O_R   0.500080 0.377210 0.574260 -0.583174
O2    O     O_R   0.499910 0.377070 0.425800 -0.608060
C1    C     C_R   0.500002 0.338034 0.500487 0.891611
O3    O     O_R   0.376870 0.500060 0.574220 -0.615486
O4    O     O_R   0.376690 0.499920 0.425760 -0.584170
C2    C     C_R   0.337731 0.500035 0.500472 0.891810
Zn1   Zn    Zn3+2 0.500120 0.500090 0.599130 1.109071
Zn2   Zn    Zn3+2 0.499880 0.499910 0.400870 1.103620
O5    O     O_R   0.500090 0.622930 0.574200 -0.593450
O6    O     O_R   0.499920 0.622790 0.425740 -0.590167
O7    O     O_R   0.623310 0.500080 0.574240 -0.581193
O8    O     O_R   0.623130 0.499940 0.425780 -0.593442
C3    C     C_R   0.499948 0.661970 0.499522 0.887753
C4    C     C_R   0.662266 0.500051 0.499499 0.886913
C5    C     C_3   0.971854 0.431235 0.532103 0.271663
C6    C     C_3   0.029643 0.439943 0.449384 0.284204
C7    C     C_1   0.249362 0.501524 0.501299 -0.074971
C8    C     C_1   0.750637 0.501125 0.498245 -0.064010
C9    C     C_3   0.025819 0.496253 0.581580 0.269700
C10   C     C_3   0.084248 0.504904 0.498967 -0.152045
C11   C     C_3   0.970389 0.568677 0.545536 0.286081
C12   C     C_3   0.915812 0.503584 0.496123 -0.153438
C13   C     C_3   0.028335 0.577298 0.462839 0.103825
C14   C     C_3   0.974138 0.512341 0.413430 0.101691
C15   C     C_1   0.174528 0.503144 0.500796 0.240717
C16   C     C_1   0.825488 0.502282 0.497138 0.245758
C17   C     C_3   0.535629 0.046462 0.593939 0.512876
C18   C     C_3   0.554429 0.052487 0.423215 0.115206
C19   C     C_3   0.557631 0.952491 0.418976 0.342705
H1    H     H_    0.594115 0.921304 0.598305 0.247357
H2    H     H_    0.524767 0.076855 0.361112 0.176598
C20   C     C_1   0.499009 0.750459 0.498373 -0.043027
C21   C     C_3   0.497153 0.082878 0.503570 -0.299924
C22   C     C_3   0.529449 0.947101 0.589641 0.216720
C23   C     C_3   0.497157 0.917078 0.496400 -0.309113
C24   C     C_3   0.404887 0.950416 0.480325 0.084070
C25   C     C_3   0.403238 0.050280 0.487125 0.542065
C26   C     C_1   0.498048 0.825484 0.497165 0.198277
C27   C     C_1   0.498100 0.174519 0.502934 0.147246
C28   C     C_1   0.499121 0.249554 0.501701 -0.050976
H3    H     H_    0.385902 0.931379 0.412523 0.217741
C29   C     C_3   0.473774 0.413828 0.054986 0.060530
C30   C     C_3   0.595060 0.523523 0.053424 0.662704
C31   C     C_3   0.596066 0.529467 0.944909 0.306672
N1    N     N_1   0.498320 0.498630 0.731150 -0.058730
C32   C     C_3   0.502728 0.502691 0.090048 -0.219091
C33   C     C_3   0.478481 0.411379 0.949972 -0.056016
C34   C     C_3   0.505146 0.500171 0.909664 -0.306945
C35   C     C_3   0.435442 0.562863 0.945754 0.154288
C36   C     C_3   0.438176 0.570850 0.051507 0.449377
C37   C     C_1   0.500668 0.499070 0.808990 0.403559
C38   C     C_1   0.502097 0.501866 0.190931 0.387684
N2    N     N_1   0.501700 0.501360 0.268850 -0.066534
H4    H     H_    0.373807 0.536236 0.924371 0.144096
H5    H     H_    0.406092 0.405753 0.075156 0.175678
H6    H     H_    0.411855 0.400577 0.928949 0.143589
O9    O     O_3   0.061862 0.372775 0.399385 -0.640215
H7    H     H_    0.011552 0.342885 0.376419 0.384080
O10   O     O_3   0.636342 0.087958 0.425415 -0.601943
H8    H     H_    0.633958 0.145157 0.397428 0.357069
N3    N     N_R   0.644783 0.918778 0.429701 0.259102
O11   O     O_R   0.668640 0.852641 0.384715 -0.266786
O12   O     O_R   0.697493 0.949894 0.486841 -0.232079
N4    N     N_R   0.528770 0.927167 0.329130 0.214096
O13   O     O_R   0.563898 0.962510 0.259185 -0.235538
O14   O     O_R   0.486510 0.857443 0.317290 -0.334418
O15   O     O_3   0.348318 0.077101 0.556388 -0.606950
H9    H     H_    0.356568 0.042358 0.610508 0.381428
N5    N     N_R   0.369729 0.088831 0.404080 0.223860
O16   O     O_R   0.332709 0.162438 0.407262 -0.264391
O17   O     O_R   0.376794 0.052253 0.326913 -0.353271
O18   O     O_3   0.345621 0.912423 0.539268 -0.693525
H10   H     H_    0.330929 0.855876 0.515447 0.379056
N6    N     N_R   0.495363 0.079040 0.676646 0.190746
O19   O     O_R   0.452397 0.149357 0.676947 -0.319699
O20   O     O_R   0.521541 0.050085 0.753065 -0.212479
O21   O     O_3   0.483568 0.909346 0.660903 -0.645174
H11   H     H_    0.428170 0.937447 0.667423 0.393230
N7    N     N_R   0.526214 0.339670 0.912258 0.283179
O22   O     O_R   0.495765 0.300193 0.843938 -0.281756
O23   O     O_R   0.595563 0.311254 0.947524 -0.248913
O24   O     O_3   0.941128 0.355061 0.567987 -0.665593
H12   H     H_    0.992090 0.322257 0.584770 0.389711
O25   O     O_3   0.518205 0.347277 0.096220 -0.660821
H13   H     H_    0.484803 0.294793 0.087273 0.395506
O26   O     O_3   0.621271 0.600348 0.091038 -0.649988
H14   H     H_    0.682613 0.607163 0.077426 0.410085
O27   O     O_3   0.651593 0.461662 0.087001 -0.651736
H15   H     H_    0.647342 0.409199 0.052569 0.416294
N8    N     N_R   0.666030 0.476398 0.909504 0.213823
O28   O     O_R   0.658621 0.435433 0.835148 -0.296853
O29   O     O_R   0.742464 0.490580 0.937403 -0.262055
N9    N     N_R   0.613226 0.616497 0.910087 0.262276
O30   O     O_R   0.596012 0.684674 0.954836 -0.179261
O31   O     O_R   0.639667 0.626106 0.828088 -0.281602
N10   N     N_R   0.352752 0.558405 0.091904 0.185072
O32   O     O_R   0.293133 0.517691 0.051087 -0.360721
O33   O     O_R   0.336845 0.585296 0.172119 -0.318958
O34   O     O_3   0.465165 0.653712 0.071636 -0.585257
H16   H     H_    0.469917 0.658831 0.137216 0.386419
N11   N     N_R   0.947953 0.520933 0.321014 0.271958
O35   O     O_R   0.004810 0.527345 0.257999 -0.226505
O36   O     O_R   0.868122 0.522319 0.300940 -0.300903
O37   O     O_3   0.441738 0.642524 0.903323 -0.613101
H17   H     H_    0.388164 0.673175 0.916227 0.396277
N12   N     N_R   0.057191 0.657711 0.425016 0.272401
O38   O     O_R   0.002190 0.713072 0.397566 -0.228538
O39   O     O_R   0.137568 0.674651 0.418432 -0.320764
O40   O     O_3   0.938129 0.635736 0.595663 -0.638619
H18   H     H_    0.988422 0.665605 0.618697 0.381992
O41   O     O_3   0.054025 0.488020 0.669181 -0.673060
H19   H     H_    0.001958 0.483982 0.706436 0.393268
O42   O     O_3   0.622269 0.067621 0.597972 -0.628352
H20   H     H_    0.626651 0.129499 0.608224 0.379393

loop_
_geom_bond_atom_site_label_1
_geom_bond_atom_site_label_2
_geom_bond_distance
_ccdc_geom_bond_type
C31   C34   1.605790 S    
N9    O30   1.301407 A    
C25   N5    1.484650 S    
C4    C8    1.396247 S    
C3    C20   1.397207 S    
C23   C24   1.570496 S    
C8    C16   1.182696 T    
C33   N7    1.474548 S    
C35   O37   1.407282 S    
O9    H7    0.991129 S    
O21   H11   0.985738 S    
C17   C21   1.594635 S    
C5    C9    1.536334 S    
C36   O34   1.412416 S    
N11   O35   1.300187 A    
N6    O20   1.302231 A    
C30   O27   1.416640 S    
Zn1   N1    1.980917 S    
C18   C19   1.581541 S    
C9    C11   1.538352 S    
C14   N11   1.456744 S    
C22   O21   1.412289 S    
O4    C2    1.272958 A    
O7    C4    1.273311 A    
N12   O38   1.300176 A    
N1    C37   1.169174 T    
C35   H4    1.112373 S    
C32   C38   1.513720 S    
N3    O12   1.301539 A    
C22   C23   1.572040 S    
C29   C32   1.572857 S    
N5    O17   1.302652 A    
O5    C3    1.273795 A    
C31   N9    1.489158 S    
C34   C37   1.513454 S    
C33   C34   1.576860 S    
C10   C15   1.427237 S    
N10   O33   1.302107 A    
C13   C14   1.537259 S    
C20   C26   1.184659 T    
C17   N6    1.484748 S    
C6    C10   1.542216 S    
C6    O9    1.397809 S    
C19   N4    1.486459 S    
O10   H8    0.993227 S    
C6    C14   1.538246 S    
C11   C12   1.542103 S    
C24   H3    1.108233 S    
N3    O11   1.302433 A    
O3    Zn1   1.986972 S    
O37   H17   0.993271 S    
C5    O24   1.397695 S    
C5    C12   1.542706 S    
C17   C22   1.573814 S    
C19   N3    1.486296 S    
N6    O19   1.301542 A    
H1    C22   1.108553 S    
O15   H9    0.985565 S    
C23   C26   1.446206 S    
C29   O25   1.406245 S    
O25   H13   0.993328 S    
O3    C2    1.273762 A    
C27   C28   1.184810 T    
N7    O23   1.300239 A    
O26   H14   0.993825 S    
C13   N12   1.456716 S    
C21   C25   1.593022 S    
O1    C1    1.273331 A    
N4    O14   1.302042 A    
Zn1   O7    1.977764 S    
C30   C31   1.630103 S    
C29   H5    1.115046 S    
N8    O29   1.302592 A    
O34   H16   0.991882 S    
C10   C13   1.542837 S    
Zn2   O8    1.986972 S    
N10   O32   1.302232 A    
C21   C27   1.446958 S    
C17   O42   1.411062 S    
Zn2   O6    1.979267 S    
C34   C35   1.575935 S    
O8    C4    1.273365 A    
C1    C28   1.397039 S    
O24   H12   0.991124 S    
C11   C13   1.538828 S    
C12   C14   1.542471 S    
C31   N8    1.483998 S    
C38   N2    1.169164 T    
O42   H20   0.993019 S    
C18   O10   1.410884 S    
Zn1   O5    1.971769 S    
C2    C7    1.396328 S    
C32   C36   1.592101 S    
C24   C25   1.581243 S    
O41   H19   0.991121 S    
O1    Zn1   1.979266 S    
C30   O26   1.406969 S    
C18   H2    1.113188 S    
O2    Zn2   1.971768 S    
O18   H10   0.993309 S    
O6    C3    1.273475 A    
Zn2   N2    1.980918 S    
C18   C21   1.578007 S    
O4    Zn2   1.977766 S    
C11   O40   1.397762 S    
C9    O41   1.397653 S    
C19   C23   1.593051 S    
C7    C15   1.182747 T    
N4    O13   1.302548 A    
C9    C10   1.542344 S    
O2    C1    1.273878 A    
O40   H18   0.991126 S    
C36   N10   1.485575 S    
N8    O28   1.301474 A    
N9    O31   1.302506 A    
N12   O39   1.300198 A    
C25   O15   1.414599 S    
C29   C33   1.577624 S    
N5    O16   1.302293 A    
C30   C32   1.586401 S    
N7    O22   1.301593 A    
C24   O18   1.410658 S    
O27   H15   0.983166 S    
N11   O36   1.300206 A    
C35   C36   1.594231 S    
C12   C16   1.427143 S    
C5    C6    1.537748 S    
C33   H6    1.115844 S    
