data_mof_unit_7146.cif
_audit_creation_date              2012-12-11T16:08:48-0500
_audit_creation_method            fapswitch 2.2
_symmetry_space_group_name_H-M    P1
_symmetry_Int_Tables_number       1
_space_group_crystal_system       triclinic
_cell_length_a                    12.927693
_cell_length_b                    13.250099
_cell_length_c                    27.804425
_cell_angle_alpha                 94.793316
_cell_angle_beta                  90.196011
_cell_angle_gamma                 119.029479
_cell_volume                      4144.51902967

loop_
_atom_site_label
_atom_site_type_symbol
_atom_type_description
_atom_site_fract_x
_atom_site_fract_y
_atom_site_fract_z
_atom_type_partial_charge
C1    C     C_R   0.626977 0.895993 0.427445 0.539472
C2    C     C_R   0.592042 0.358094 0.230316 0.273069
C3    C     C_R   0.584832 0.341518 0.279961 -0.164149
C4    C     C_R   0.663956 0.315287 0.303172 0.014047
C5    C     C_R   0.677129 0.343236 0.203934 0.020214
C6    C     C_1   0.690962 0.366560 0.153847 0.021796
C7    C     C_1   0.649863 0.293512 0.353419 -0.001283
C8    C     C_1   0.702728 0.394451 0.113145 0.013646
C9    C     C_R   0.156111 0.743883 0.353011 0.249220
C10   C     C_R   0.125046 0.732457 0.303823 -0.038242
C11   C     C_R   0.102972 0.714045 0.203466 -0.006378
C12   C     C_R   0.600678 0.221471 0.440320 0.540113
C13   C     C_R   0.066817 0.613620 0.227360 0.250556
C14   C     C_R   0.069479 0.623091 0.277605 -0.117420
C15   C     C_R   0.095224 0.705800 0.153815 -0.172981
C16   C     C_R   0.112328 0.800488 0.129276 -0.017755
C17   C     C_R   0.227827 0.952576 0.355525 -0.190036
C18   C     C_R   0.207326 0.942821 0.305953 -0.000210
C19   C     C_R   0.158058 0.832865 0.279813 -0.003893
C20   C     C_R   0.242552 0.042272 0.281831 -0.138804
C21   C     C_R   0.228234 0.032880 0.231741 -0.117818
C22   C     C_R   0.176044 0.923478 0.205059 0.016350
C23   C     C_R   0.268732 0.876131 0.425885 0.561558
C24   C     C_R   0.144782 0.823454 0.229444 -0.034166
C25   C     C_R   0.152488 0.910668 0.154679 0.241192
C26   C     C_R   0.209039 0.855385 0.378697 0.001860
C27   C     C_R   0.724814 0.843155 0.361540 -0.154737
C28   C     C_R   0.733394 0.822191 0.312106 0.005278
C29   C     C_R   0.755332 0.790095 0.212897 -0.015821
C30   C     C_R   0.831476 0.780331 0.245889 -0.130020
C31   C     C_R   0.820939 0.796814 0.295322 -0.137035
C32   C     C_R   0.769188 0.778779 0.163830 -0.182736
C33   C     C_R   0.695403 0.791204 0.130791 0.018990
C34   C     C_R   0.626637 0.899260 0.565381 0.541952
C35   C     C_R   0.557157 0.872846 0.344484 -0.132253
C36   C     C_R   0.565603 0.854263 0.295273 -0.005339
C37   C     C_R   0.654300 0.829245 0.278818 0.051814
C38   C     C_R   0.488612 0.862946 0.262430 -0.166440
C39   C     C_R   0.500042 0.848101 0.212980 -0.131378
C40   C     C_R   0.587954 0.823077 0.195736 0.008887
C41   C     C_R   0.665547 0.813756 0.229118 0.006319
C42   C     C_R   0.600873 0.807614 0.145876 0.229346
C43   C     C_R   0.636769 0.868083 0.377233 0.007922
C44   C     C_R   0.740018 0.291911 0.650939 -0.140789
C45   C     C_R   0.603780 0.227958 0.578153 0.546786
C46   C     C_R   0.754428 0.315082 0.701283 0.000080
C47   C     C_R   0.768031 0.345751 0.803145 -0.027633
C48   C     C_R   0.850629 0.324340 0.778093 -0.084894
C49   C     C_R   0.842272 0.305305 0.727616 0.242658
C50   C     C_R   0.773040 0.360416 0.854064 0.251394
C51   C     C_R   0.691466 0.386882 0.877768 -0.001653
C52   C     C_R   0.573437 0.328827 0.650420 -0.124340
C53   C     C_R   0.585747 0.351713 0.700295 0.023078
C54   C     C_R   0.674180 0.341568 0.726102 0.009178
C55   C     C_R   0.505767 0.377200 0.724874 -0.111289
C56   C     C_R   0.271881 0.879456 0.563472 0.548621
C57   C     C_R   0.510015 0.388225 0.774994 -0.128558
C58   C     C_R   0.595444 0.375601 0.800933 -0.002440
C59   C     C_R   0.679557 0.354531 0.776758 -0.006118
C60   C     C_R   0.599920 0.387939 0.850841 -0.176907
C61   C     C_R   0.644568 0.290810 0.626119 -0.028278
C62   C     C_1   0.222724 0.861962 0.610178 -0.006192
C63   C     C_R   0.188431 0.753212 0.724484 0.275010
C64   C     C_R   0.177111 0.747850 0.774761 0.284412
C65   C     C_R   0.124370 0.901148 0.778523 -0.187750
C66   C     C_R   0.137832 0.908064 0.728846 -0.184797
C67   C     C_1   0.631804 0.267230 0.394302 -0.003530
C68   C     C_R   0.170432 0.834985 0.701735 -0.005399
C69   C     C_R   0.144225 0.821701 0.801671 -0.003119
C70   C     C_1   0.124020 0.811337 0.852480 -0.017834
C71   C     C_1   0.194001 0.849262 0.651392 -0.028534
C72   C     C_1   0.099701 0.795977 0.894048 0.000803
C73   C     C_1   0.640064 0.867554 0.612277 -0.011154
C74   C     C_R   0.616892 0.897342 0.737711 -0.166518
C75   C     C_R   0.621257 0.887020 0.787170 -0.151158
C76   C     C_R   0.679008 0.739466 0.770393 -0.107479
C77   C     C_R   0.679654 0.752381 0.720296 0.284807
C78   C     C_R   0.748086 0.299182 0.276626 0.272603
C79   C     C_R   0.646454 0.831092 0.704283 0.055719
C80   C     C_R   0.652282 0.808052 0.803587 -0.011351
C81   C     C_1   0.664206 0.800592 0.854541 -0.072091
C82   C     C_1   0.644865 0.847870 0.653630 -0.008599
C83   C     C_1   0.682241 0.791448 0.896132 -0.024356
C84   C     C_R   0.063929 0.771815 0.079489 0.559563
C85   C     C_R   0.717063 0.441356 0.067365 0.538907
C86   C     C_R   0.720311 0.782066 0.080735 0.582411
C87   C     C_R   0.056155 0.765911 0.941079 0.545365
C88   C     C_R   0.710923 0.435738 0.928449 0.555302
C89   C     C_R   0.755126 0.315470 0.226991 -0.136037
C90   C     C_R   0.716031 0.776531 0.943124 0.548991
Cr1   Cr    Cr6+3 0.416430 0.829200 0.492370 1.019087
Cr2   Cr    Cr6+3 0.674630 0.087020 0.504170 1.022051
Cr3   Cr    Cr6+3 0.408920 0.083740 0.503490 1.015861
Cr4   Cr    Cr6+3 0.914010 0.832750 0.013970 1.011266
Cr5   Cr    Cr6+3 0.922310 0.578600 0.003000 1.038070
Cr6   Cr    Cr6+3 0.656280 0.574630 0.003870 1.014068
H1    H     H_    0.283379 0.127619 0.301626 0.106666
H2    H     H_    0.838604 0.761064 0.151014 0.115057
H3    H     H_    0.785965 0.840669 0.387593 0.109359
H4    H     H_    0.881793 0.790836 0.320340 0.126120
H5    H     H_    0.440313 0.856938 0.188437 0.163979
H6    H     H_    0.420416 0.882500 0.275011 0.125379
H7    H     H_    0.490544 0.894477 0.357535 0.112794
H8    H     H_    0.446419 0.406560 0.793489 0.104396
H9    H     H_    0.438032 0.385586 0.705354 0.114558
H10   H     H_    0.501564 0.330873 0.631081 0.137595
H11   H     H_    0.097979 0.957567 0.798892 0.127683
H12   H     H_    0.123935 0.971256 0.711656 0.127720
H13   H     H_    0.592060 0.958570 0.725505 0.118984
H14   H     H_    0.600900 0.940809 0.812533 0.109330
H15   H     H_    0.700197 0.677104 0.783973 0.105090
H16   H     H_    0.033157 0.544685 0.295802 0.174978
O1    O     O_R   0.296680 0.802170 0.437540 -0.489358
O2    O     O_R   0.662610 0.183990 0.557860 -0.506511
O3    O     O_R   0.500730 0.201280 0.562180 -0.514393
O4    O     O_R   0.312500 0.978850 0.548170 -0.495504
O5    O     O_3   0.499990 0.999990 0.500010 -0.247070
O6    O     O_R   0.820790 0.857990 0.068830 -0.536977
O7    O     O_R   0.016700 0.827330 0.062850 -0.478202
O8    O     O_R   0.041970 0.673520 0.060040 -0.544824
O9    O     O_R   0.817980 0.483660 0.048840 -0.503749
O10   O     O_R   0.637200 0.461990 0.052510 -0.502724
O11   O     O_R   0.664790 0.681920 0.057970 -0.504882
O12   O     O_R   0.525380 0.838530 0.443500 -0.514476
O13   O     O_R   0.815840 0.852920 0.961840 -0.511970
O14   O     O_R   0.012100 0.822630 0.963670 -0.501201
O15   O     O_R   0.037010 0.668460 0.953040 -0.487272
O16   O     O_R   0.813390 0.478970 0.949660 -0.446846
O17   O     O_R   0.632250 0.456930 0.945520 -0.535624
O18   O     O_R   0.660200 0.677230 0.958780 -0.497546
O19   O     O_3   0.830870 0.661990 0.006950 -0.253397
O20   O     O_R   0.702130 0.995190 0.446810 -0.508298
O21   O     O_R   0.661770 0.181390 0.458760 -0.486014
O22   O     O_R   0.499820 0.198480 0.455280 -0.520036
O23   O     O_R   0.311660 0.976250 0.449080 -0.516569
O24   O     O_R   0.297580 0.804960 0.544440 -0.503384
O25   O     O_R   0.526220 0.841130 0.542590 -0.489030
O26   O     O_R   0.703030 0.997990 0.553710 -0.520190
O27   O     O_3   0.827117 0.275689 0.300778 -0.551609
C91   C     C_3   0.829948 0.178328 0.277216 -0.017557
H17   H     H_    0.884448 0.202926 0.245024 0.119001
H18   H     H_    0.739185 0.106099 0.266205 0.146057
C92   C     C_3   0.887360 0.134385 0.311592 -0.360325
H19   H     H_    0.832940 0.104471 0.343538 0.181226
H20   H     H_    0.894705 0.060961 0.292848 0.113162
H21   H     H_    0.977552 0.204767 0.323824 0.149339
H22   H     H_    0.259632 0.111728 0.214129 0.163820
H23   H     H_    0.269736 0.038219 0.375141 0.141556
H24   H     H_    0.899946 0.761289 0.233397 0.128788
O28   O     O_3   0.527369 0.816410 0.112159 -0.564826
C93   C     C_3   0.425314 0.706648 0.102519 -0.028122
H25   H     H_    0.378734 0.673773 0.136117 0.117352
H26   H     H_    0.448867 0.642269 0.085092 0.145197
C94   C     C_3   0.339720 0.717066 0.068300 -0.350471
H27   H     H_    0.381406 0.745180 0.033516 0.160860
H28   H     H_    0.258000 0.631847 0.061236 0.105129
H29   H     H_    0.315553 0.781662 0.084682 0.171270
H30   H     H_    0.822146 0.308167 0.206305 0.145623
O29   O     O_3   0.861919 0.356328 0.880229 -0.540069
C95   C     C_3   0.816806 0.243317 0.894525 -0.015615
H31   H     H_    0.783856 0.177079 0.862593 0.111732
H32   H     H_    0.743608 0.223468 0.919528 0.128121
C96   C     C_3   0.915184 0.234920 0.920884 -0.361911
H33   H     H_    0.948931 0.298698 0.953406 0.158461
H34   H     H_    0.880690 0.146290 0.932298 0.108286
H35   H     H_    0.989037 0.253013 0.896608 0.150749
H36   H     H_    0.796630 0.265283 0.631528 0.161430
H37   H     H_    0.921061 0.320286 0.797531 0.173597
O30   O     O_3   0.924513 0.282944 0.704342 -0.590875
C97   C     C_3   0.879629 0.161647 0.695781 -0.016531
H38   H     H_    0.916052 0.145005 0.661779 0.154240
H39   H     H_    0.781250 0.111028 0.690122 0.124693
C98   C     C_3   0.920509 0.116598 0.736449 -0.387588
H40   H     H_    0.875228 0.119231 0.769986 0.138388
H41   H     H_    0.898444 0.025356 0.726018 0.113352
H42   H     H_    0.017844 0.170022 0.743464 0.157523
H43   H     H_    0.535928 0.407104 0.868518 0.144902
O31   O     O_3   0.227896 0.685563 0.698792 -0.557847
C99   C     C_3   0.129129 0.581426 0.679227 0.013260
H44   H     H_    0.085940 0.598413 0.648637 0.122411
H45   H     H_    0.063123 0.539342 0.706893 0.176969
C100  C     C_3   0.170995 0.497285 0.659904 -0.336034
H46   H     H_    0.211360 0.475622 0.689932 0.168958
H47   H     H_    0.094776 0.416365 0.642803 0.133851
H48   H     H_    0.237733 0.536786 0.632453 0.157489
O32   O     O_3   0.512187 0.379774 0.205589 -0.548141
C101  C     C_3   0.496027 0.467640 0.231022 -0.006534
H49   H     H_    0.581245 0.540739 0.247336 0.144886
H50   H     H_    0.431881 0.430901 0.259639 0.118058
C102  C     C_3   0.444397 0.515924 0.196085 -0.372123
H51   H     H_    0.359574 0.445325 0.178878 0.149687
H52   H     H_    0.427416 0.582349 0.215860 0.092882
H53   H     H_    0.507440 0.556209 0.167522 0.165989
O33   O     O_3   0.187356 0.662928 0.796650 -0.542127
C103  C     C_3   0.307901 0.703383 0.809100 0.010850
H54   H     H_    0.343132 0.781054 0.836037 0.117768
H55   H     H_    0.362258 0.725420 0.776690 0.178467
C104  C     C_3   0.319579 0.608171 0.831391 -0.362307
H56   H     H_    0.286624 0.530150 0.804948 0.158669
H57   H     H_    0.413809 0.638507 0.841656 0.104982
H58   H     H_    0.267280 0.584711 0.864203 0.168469
O34   O     O_3   0.705219 0.686161 0.685817 -0.559286
C105  C     C_3   0.798132 0.668014 0.702057 -0.013382
H59   H     H_    0.763417 0.595594 0.725450 0.148279
H60   H     H_    0.870995 0.747695 0.722048 0.129833
C106  C     C_3   0.849953 0.634194 0.658743 -0.355040
H61   H     H_    0.892942 0.707614 0.636055 0.154329
H62   H     H_    0.916861 0.611778 0.671516 0.085025
H63   H     H_    0.779223 0.557727 0.636688 0.172795
H64   H     H_    0.516440 0.346829 0.300549 0.096617
H65   H     H_    0.064725 0.621193 0.134356 0.199358
O35   O     O_3   0.138016 0.647522 0.375874 -0.539800
C107  C     C_3   0.225610 0.616059 0.362918 0.018360
H66   H     H_    0.316196 0.692465 0.364489 0.146482
H67   H     H_    0.207568 0.571273 0.325874 0.095920
C108  C     C_3   0.225291 0.532780 0.397472 -0.341210
H68   H     H_    0.137063 0.453522 0.395326 0.158482
H69   H     H_    0.293395 0.507576 0.387615 0.077798
H70   H     H_    0.245510 0.574747 0.435116 0.175166
O36   O     O_3   0.023823 0.506143 0.201118 -0.575617
C109  C     C_3   0.096788 0.457458 0.211156 -0.027327
H71   H     H_    0.071818 0.415185 0.245331 0.144000
H72   H     H_    0.192831 0.523600 0.214054 0.116337
C110  C     C_3   0.079247 0.365725 0.170389 -0.389116
H73   H     H_    0.107471 0.406320 0.136014 0.150095
H74   H     H_    0.133136 0.324275 0.178770 0.091622
H75   H     H_    0.984701 0.297839 0.165947 0.146553
O37   O     O_3   0.173160 0.004719 0.129821 -0.549766
C111  C     C_3   0.080948 0.032111 0.137454 0.010295
H76   H     H_    0.091352 0.078445 0.173800 0.106912
H77   H     H_    0.992180 0.953474 0.134084 0.160012
C112  C     C_3   0.084563 0.110997 0.100023 -0.339350
H78   H     H_    0.073429 0.067057 0.063063 0.174467
H79   H     H_    0.011804 0.132043 0.105385 0.090415
H80   H     H_    0.170632 0.192816 0.103752 0.148221

loop_
_geom_bond_atom_site_label_1
_geom_bond_atom_site_label_2
_ccdc_geom_bond_type
C92   H21   S    
C66   C68   A    
C105  H59   S    
C102  H51   S    
C11   C13   A    
O30   C97   S    
C53   C55   A    
C35   C36   A    
C91   C92   S    
Cr2   O5    S    
C1    O20   A    
Cr2   O26   S    
C77   O34   S    
C74   H13   S    
C87   O15   A    
O31   C99   S    
C89   H30   S    
C98   H40   S    
C14   H16   S    
C105  H60   S    
C46   C49   A    
C27   H3    S    
C111  H76   S    
C63   O31   S    
C55   H9    S    
Cr3   O4    S    
C33   C42   A    
C21   H22   S    
C36   C37   A    
C96   H34   S    
C108  H69   S    
C8    C85   S    
C109  C110  S    
C35   H7    S    
C52   C61   A    
C68   C71   S    
C5    C6    S    
C106  H62   S    
Cr4   O13   S    
C97   H38   S    
C9    O35   S    
C58   C60   A    
C15   C16   A    
C11   C24   A    
C16   C84   S    
Cr5   O8    S    
C18   C20   A    
C18   C19   A    
Cr3   O3    S    
C93   C94   S    
C23   C26   S    
C100  H46   S    
O36   C109  S    
C101  C102  S    
C15   H65   S    
C111  H77   S    
C102  H53   S    
C56   O24   A    
Cr1   O25   S    
C11   C15   A    
Cr5   O16   S    
C1    C43   S    
Cr1   O24   S    
Cr2   O21   S    
C22   C25   A    
C64   O33   S    
C47   C48   A    
C93   H25   S    
Cr1   O5    S    
C85   O9    A    
C104  H56   S    
C29   C30   A    
C35   C43   A    
C75   C80   A    
C94   H28   S    
C38   H6    S    
C103  C104  S    
C29   C41   A    
Cr5   O9    S    
C3    H64   S    
C40   C42   A    
O33   C103  S    
C52   H10   S    
C12   O22   A    
C21   C22   A    
C78   O27   S    
Cr5   O19   S    
C46   C54   A    
Cr3   O5    S    
C88   O17   A    
C4    C7    S    
C45   O2    A    
O37   C111  S    
C81   C83   T    
C44   C46   A    
C9    C26   A    
C17   C18   A    
C47   C50   A    
C54   C59   A    
Cr4   O14   S    
C78   C89   A    
C38   C39   A    
C105  C106  S    
O34   C105  S    
C20   H1    S    
C57   H8    S    
C95   C96   S    
C96   H35   S    
C91   H17   S    
C94   H29   S    
Cr3   O22   S    
C74   C75   A    
C39   C40   A    
C84   O7    A    
C106  H61   S    
C30   H24   S    
C6    C8    T    
C12   C67   S    
C110  H73   S    
C60   H43   S    
C107  H66   S    
C7    C67   T    
C34   O26   A    
C112  H80   S    
Cr1   O1    S    
C100  H48   S    
C95   H32   S    
C33   C86   S    
C2    O32   S    
C4    C78   A    
C109  H71   S    
C27   C43   A    
C23   O1    A    
Cr4   O7    S    
C45   O3    A    
O29   C95   S    
C48   H37   S    
C10   C19   A    
C84   O8    A    
C108  H68   S    
C17   H23   S    
C104  H58   S    
C112  H79   S    
C50   C51   A    
C56   O4    A    
C77   C79   A    
C85   O10   A    
C86   O6    A    
C64   C69   A    
C76   C77   A    
C107  H67   S    
C94   H27   S    
C98   H41   S    
Cr6   O19   S    
C48   C49   A    
Cr1   O12   S    
C55   C57   A    
C10   C14   A    
C44   C61   A    
C22   C24   A    
C2    C5    A    
C17   C26   A    
C3    C4    A    
C110  H75   S    
C73   C82   T    
C27   C28   A    
C72   C87   S    
C52   C53   A    
Cr6   O18   S    
C9    C10   A    
C98   H42   S    
C16   C25   A    
C92   H20   S    
C83   C90   S    
C107  C108  S    
C63   C68   A    
C40   C41   A    
C75   H14   S    
C102  H52   S    
C25   O37   S    
Cr6   O11   S    
Cr2   O20   S    
C20   C21   A    
C44   H36   S    
C28   C31   A    
C76   C80   A    
C66   H12   S    
C80   C81   S    
Cr3   O23   S    
C110  H74   S    
C51   C88   S    
C79   C82   S    
C70   C72   T    
O27   C91   S    
C53   C54   A    
C91   H18   S    
C23   O23   A    
C50   O29   S    
C111  C112  S    
C34   O25   A    
Cr4   O19   S    
C39   H5    S    
Cr6   O10   S    
C74   C79   A    
C108  H70   S    
C95   H31   S    
C99   C100  S    
C36   C38   A    
C19   C24   A    
C58   C59   A    
C1    O12   A    
C101  H49   S    
C88   O16   A    
C103  H54   S    
C32   C33   A    
C49   O30   S    
Cr4   O6    S    
C106  H63   S    
C57   C58   A    
C30   C31   A    
C97   H39   S    
C28   C37   A    
C76   H15   S    
C65   C69   A    
C97   C98   S    
C45   C61   S    
C112  H78   S    
C90   O13   A    
C32   H2    S    
C62   C71   T    
C2    C3    A    
C56   C62   S    
C93   H26   S    
C13   O36   S    
C37   C41   A    
C69   C70   S    
C42   O28   S    
C100  H47   S    
C101  H50   S    
C96   H33   S    
C29   C32   A    
C34   C73   S    
C47   C59   A    
C63   C64   A    
C90   O18   A    
Cr5   O15   S    
O35   C107  S    
C109  H72   S    
C65   C66   A    
C86   O11   A    
C99   H44   S    
O28   C93   S    
C104  H57   S    
C51   C60   A    
C99   H45   S    
O32   C101  S    
C13   C14   A    
Cr2   O2    S    
C65   H11   S    
C87   O14   A    
C5    C89   A    
C12   O21   A    
C92   H19   S    
Cr6   O17   S    
C103  H55   S    
C31   H4    S    
