data_mof_unit_28388.cif
_audit_creation_date              2013-03-05T16:18:09-0500
_audit_creation_method            fapswitch 2.2
_symmetry_space_group_name_H-M    P1
_symmetry_Int_Tables_number       1
_space_group_crystal_system       triclinic
_cell_length_a                    10.844498
_cell_length_b                    10.004412
_cell_length_c                    15.706802
_cell_angle_alpha                 90.303557
_cell_angle_beta                  89.451111
_cell_angle_gamma                 90.223308
_cell_volume                      1703.96061657

loop_
_atom_site_label
_atom_site_type_symbol
_atom_site_description
_atom_site_fract_x
_atom_site_fract_y
_atom_site_fract_z
_atom_type_partial_charge
O1    O     O_R   0.314910 0.616040 0.499980 -0.567074
O2    O     O_R   0.314910 0.383960 0.499980 -0.569038
C1    C     C_R   0.258221 0.499848 0.504796 1.025340
O3    O     O_R   0.500120 0.616090 0.377110 -0.610917
O4    O     O_R   0.500120 0.383910 0.377110 -0.564203
C2    C     C_R   0.499871 0.499703 0.339010 0.942017
Zn1   Zn    Zn3+2 0.500150 0.654960 0.499960 1.081780
Zn2   Zn    Zn3+2 0.500150 0.345040 0.499960 1.098940
O5    O     O_R   0.685320 0.616040 0.499960 -0.570069
O6    O     O_R   0.685320 0.383960 0.499960 -0.565930
O7    O     O_R   0.500110 0.615990 0.622830 -0.547886
O8    O     O_R   0.500110 0.384010 0.622830 -0.542197
C3    C     C_R   0.741154 0.500134 0.494666 1.004935
C4    C     C_R   0.500116 0.500295 0.660983 0.849134
C5    C     C_3   0.476342 0.644644 0.051216 0.049406
C6    C     C_3   0.392670 0.410646 0.049791 -0.001990
C7    C     C_3   0.401481 0.399092 0.951269 0.182984
C8    C     C_3   0.476189 0.644912 0.951981 0.224987
H1    H     H_    0.384590 0.677168 0.076553 0.133265
H2    H     H_    0.304011 0.460230 0.067957 0.165989
H3    H     H_    0.432749 0.296430 0.933181 0.165897
H4    H     H_    0.553671 0.709349 0.929273 0.190985
C9    C     C_1   0.499877 0.500894 0.749916 -0.061365
C10   C     C_3   0.501003 0.499541 0.082974 0.055321
C11   C     C_3   0.499151 0.500640 0.917016 0.029153
C12   C     C_3   0.627669 0.455468 0.948038 -0.757297
C13   C     C_3   0.628688 0.448224 0.047440 0.874271
C14   C     C_1   0.499608 0.500965 0.825313 0.152183
C15   C     C_1   0.500396 0.499117 0.174776 0.222575
C16   C     C_1   0.500055 0.499121 0.250140 -0.036031
H5    H     H_    0.699192 0.527298 0.925044 0.225730
H6    H     H_    0.652556 0.357356 0.918962 0.205395
C17   C     C_3   0.066962 0.629382 0.543698 0.236643
C18   C     C_3   0.064525 0.381195 0.556024 0.121961
H7    H     H_    0.100200 0.711262 0.505062 0.269644
H8    H     H_    0.104110 0.286754 0.534242 0.249697
C19   C     C_3   0.924844 0.628970 0.539033 0.084240
C20   C     C_3   0.923878 0.377489 0.544052 0.137126
H9    H     H_    0.884959 0.622699 0.604410 0.152396
H10   H     H_    0.880341 0.387885 0.608390 0.202647
C21   C     C_3   0.080985 0.491670 0.405745 0.514163
C22   C     C_3   0.120070 0.499536 0.503213 -0.326110
C23   C     C_3   0.877804 0.500286 0.489903 -0.362777
C24   C     C_3   0.933572 0.495510 0.394471 0.362093
C25   C     C_3   0.372512 0.079675 0.513351 0.391331
C26   C     C_3   0.369818 0.919491 0.496968 0.366188
H11   H     H_    0.504334 0.107194 0.360187 0.287663
H12   H     H_    0.543347 0.867230 0.362727 0.276363
C27   C     C_3   0.554061 0.078068 0.417898 -0.392709
C28   C     C_3   0.567616 0.918636 0.422707 -0.408871
C29   C     C_3   0.584396 0.081481 0.564655 0.250807
C30   C     C_3   0.574496 0.921408 0.570074 0.245693
N1    N     N_3   0.499750 0.138610 0.498180 -0.161637
N2    N     N_3   0.499750 0.861390 0.498180 -0.170611
H13   H     H_    0.681706 0.105422 0.545718 0.146270
H14   H     H_    0.670697 0.882235 0.563833 0.133118
H15   H     H_    0.646981 0.121844 0.405886 0.239359
H16   H     H_    0.667691 0.894202 0.425380 0.225287
O9    O     O_3   0.367602 0.701387 0.919446 -0.681023
H17   H     H_    0.295739 0.659733 0.948497 0.382509
O10   O     O_3   0.285607 0.421013 0.914520 -0.723363
H18   H     H_    0.233868 0.341699 0.928100 0.361501
O11   O     O_3   0.880709 0.751313 0.506695 -0.692115
H19   H     H_    0.930386 0.778842 0.456539 0.395729
O12   O     O_3   0.883370 0.251733 0.513941 -0.702994
H20   H     H_    0.935389 0.222942 0.465403 0.370728
O13   O     O_3   0.135260 0.602652 0.364848 -0.684933
H21   H     H_    0.166455 0.575564 0.307637 0.406458
O14   O     O_3   0.133033 0.375942 0.368511 -0.676293
H22   H     H_    0.090857 0.296963 0.391918 0.364644
N3    N     N_R   0.895542 0.613359 0.343743 0.235940
O15   O     O_R   0.950181 0.636369 0.271061 -0.264032
O16   O     O_R   0.784246 0.659812 0.351671 -0.364585
N4    N     N_R   0.890905 0.377747 0.344556 0.192126
O17   O     O_R   0.944248 0.352203 0.271612 -0.262895
O18   O     O_R   0.779768 0.331292 0.354429 -0.368789
N5    N     N_R   0.281711 0.137561 0.454531 0.212822
O19   O     O_R   0.167029 0.099789 0.460500 -0.365869
O20   O     O_R   0.315870 0.200286 0.385922 -0.298587
N6    N     N_R   0.310991 0.888334 0.412458 0.227425
O21   O     O_R   0.200677 0.838840 0.409994 -0.285098
O22   O     O_R   0.350281 0.938926 0.341047 -0.359186
N7    N     N_R   0.331820 0.114420 0.602402 0.262357
O23   O     O_R   0.352056 0.038706 0.667828 -0.225228
O24   O     O_R   0.288746 0.231345 0.619845 -0.350964
N8    N     N_R   0.288124 0.860487 0.563529 0.246042
O25   O     O_R   0.328378 0.781534 0.622100 -0.208272
O26   O     O_R   0.176614 0.906644 0.573449 -0.286659
O27   O     O_3   0.566870 0.142504 0.644479 -0.648984
H23   H     H_    0.641900 0.125605 0.678503 0.327645
O28   O     O_3   0.533068 0.878925 0.650265 -0.616518
H24   H     H_    0.602503 0.888941 0.690623 0.333657
O29   O     O_3   0.393775 0.283210 0.087199 -0.715507
H25   H     H_    0.313164 0.240694 0.074293 0.372737
O30   O     O_3   0.565894 0.734159 0.082191 -0.658935
H26   H     H_    0.534310 0.825674 0.072020 0.369672
O31   O     O_3   0.723565 0.531267 0.078389 -0.631566
H27   H     H_    0.803231 0.490412 0.060798 0.373150
O32   O     O_3   0.651659 0.316804 0.075928 -0.689599
H28   H     H_    0.606814 0.252139 0.039448 0.356736
O33   O     O_3   0.111970 0.654276 0.626492 -0.659926
H29   H     H_    0.051325 0.626676 0.670573 0.372423
O34   O     O_3   0.088061 0.390508 0.644131 -0.696498
H30   H     H_    0.173688 0.422059 0.652660 0.397855

loop_
_geom_bond_atom_site_label_1
_geom_bond_atom_site_label_2
_geom_bond_distance
_ccdc_geom_bond_type
C5    C8    1.558698 S    
C26   N6    1.508755 S    
C1    C22   1.498613 S    
C12   H6    1.113462 S    
O33   H29   0.989963 S    
C21   C22   1.593879 S    
O30   H26   0.993029 S    
C18   C22   1.564560 S    
C10   C13   1.574847 S    
O31   H27   0.993365 S    
H11   C27   1.100348 S    
N5    O19   1.301060 A    
C11   C14   1.440351 S    
Zn1   O7    1.970899 S    
C13   O32   1.414865 S    
C12   C13   1.563494 S    
O29   H25   0.992880 S    
N4    O18   1.298239 A    
C17   O33   1.413910 S    
C17   C22   1.553584 S    
O14   H22   0.982710 S    
O1    Zn1   2.044729 S    
C5    O30   1.406945 S    
O4    C2    1.306717 A    
O7    C4    1.306211 A    
N8    O26   1.303779 A    
C27   H15   1.112015 S    
C24   N3    1.488300 S    
O5    C3    1.312108 A    
C10   C15   1.441887 S    
C7    O10   1.406295 S    
O32   H28   0.991113 S    
C6    C7    1.553225 S    
C29   H13   1.119022 S    
Zn2   O8    1.966850 S    
H12   C28   1.104474 S    
C25   N1    1.515650 S    
O9    H17   0.990901 S    
C6    C10   1.562519 S    
C18   C20   1.538864 S    
C25   N7    1.502045 S    
C8    C11   1.561626 S    
O3    Zn1   1.966358 S    
C19   O11   1.414558 S    
C30   N2    1.516337 S    
N5    O20   1.300008 A    
N4    O17   1.303058 A    
C29   C30   1.607260 S    
C28   H16   1.114615 S    
C21   O13   1.409638 S    
N6    O22   1.300385 A    
O28   H24   0.993339 S    
N3    O16   1.299658 A    
N8    O25   1.295722 A    
C11   C12   1.550586 S    
C25   C26   1.621931 S    
C17   C19   1.543634 S    
O13   H21   0.993816 S    
O1    C1    1.315059 A    
C4    C9    1.396815 S    
C19   C23   1.582732 S    
C5    H1    1.117069 S    
C23   C24   1.611489 S    
C15   C16   1.183693 T    
N7    O23   1.300708 A    
C20   O12   1.411686 S    
C6    H2    1.117524 S    
C26   N2    1.526649 S    
C6    O29   1.406764 S    
C28   N2    1.504035 S    
C9    C14   1.184210 T    
C24   N4    1.486515 S    
O3    C2    1.306339 A    
C5    C10   1.562355 S    
N7    O24   1.288422 A    
O8    C4    1.305809 A    
O12   H20   0.986465 S    
C21   C24   1.610702 S    
C3    C23   1.483070 S    
C21   O14   1.411622 S    
Zn1   O5    2.046968 S    
C13   O31   1.408475 S    
C2    C16   1.395843 S    
C8    H4    1.114141 S    
O2    Zn2   2.047708 S    
N6    O21   1.293791 A    
O6    C3    1.311086 A    
Zn2   N1    2.065241 S    
O4    Zn2   1.970397 S    
C18   O34   1.412137 S    
C7    C11   1.558810 S    
O2    C1    1.315895 A    
C20   C23   1.583117 S    
C19   H9    1.112388 S    
C29   O27   1.403222 S    
C20   H10   1.115831 S    
C27   N1    1.511380 S    
C17   H7    1.080738 S    
C18   H8    1.091310 S    
O10   H18   0.992954 S    
C7    H3    1.117291 S    
O11   H19   0.989810 S    
C8    O9    1.409544 S    
C12   H5    1.114225 S    
N3    O15   1.302345 A    
Zn2   O6    2.043988 S    
C27   C28   1.604593 S    
O34   H30   0.989696 S    
C30   O28   1.400813 S    
C25   N5    1.478538 S    
Zn1   N2    2.065571 S    
C29   N1    1.512691 S    
O27   H23   0.993263 S    
C30   H14   1.119108 S    
C26   N8    1.486956 S    
