data_mof_unit_31219.cif
_audit_creation_date              2012-10-26T18:40:23-0400
_audit_creation_method            fapswitch 2.2
_symmetry_space_group_name_H-M    P1
_symmetry_Int_Tables_number       1
_space_group_crystal_system       triclinic
_cell_length_a                    8.731749
_cell_length_b                    15.08277
_cell_length_c                    13.869901
_cell_angle_alpha                 89.838831
_cell_angle_beta                  97.941109
_cell_angle_gamma                 90.168105
_cell_volume                      1809.12192652

loop_
_atom_site_label
_atom_site_type_symbol
_atom_type_description
_atom_site_fract_x
_atom_site_fract_y
_atom_site_fract_z
_atom_type_partial_charge
C1    C     C_R   0.500737 0.329844 0.500222 0.553939
C2    C     C_R   0.571272 0.568512 0.898088 -0.132118
C3    C     C_R   0.500010 0.499948 0.054696 0.026581
C4    C     C_R   0.499984 0.499948 0.945328 0.023046
C5    C     C_R   0.203686 0.499989 0.475100 0.555060
C6    C     C_R   0.796309 0.500040 0.524891 0.555720
C7    C     C_2   0.037877 0.500054 0.461350 -0.143512
C8    C     C_2   0.962109 0.500015 0.538615 -0.140546
C9    C     C_R   0.595449 0.096441 0.582809 0.289350
C10   C     C_R   0.602549 0.903581 0.437872 0.291238
C11   C     C_R   0.585140 0.188849 0.581927 -0.095584
C12   C     C_R   0.500841 0.670107 0.499929 0.553771
C13   C     C_R   0.592159 0.811139 0.436594 -0.093398
C14   C     C_R   0.505944 0.233276 0.501282 -0.030500
C15   C     C_R   0.506126 0.766593 0.499869 -0.030273
C16   C     C_R   0.433891 0.185228 0.421507 -0.120954
C17   C     C_R   0.427302 0.814405 0.563740 -0.121672
C18   C     C_R   0.438577 0.093221 0.423015 -0.094406
C19   C     C_R   0.431860 0.906418 0.563057 -0.093592
C20   C     C_R   0.519697 0.048410 0.502700 0.045763
C21   C     C_R   0.519752 0.951433 0.501161 0.044341
C22   C     C_R   0.618475 0.541902 0.118100 -0.128170
C23   C     C_R   0.428675 0.431403 0.886075 -0.128906
C24   C     C_R   0.615629 0.541733 0.219295 0.056821
C25   C     C_R   0.429036 0.433038 0.784650 0.054991
C26   C     C_R   0.384371 0.458290 0.199474 0.055314
C27   C     C_R   0.570941 0.566906 0.796622 0.053381
C28   C     C_R   0.381548 0.458029 0.097780 -0.130515
Cu1   Cu    Cu3+1 0.500000 0.499990 0.596430 0.960404
Cu2   Cu    Cu3+1 0.500000 0.500010 0.403570 0.963350
H1    H     H_    0.977924 0.500141 0.387225 0.125936
H2    H     H_    0.374354 0.375833 0.917440 0.109841
H3    H     H_    0.707021 0.574956 0.266350 0.127365
H4    H     H_    0.372599 0.380118 0.740679 0.137146
H5    H     H_    0.292965 0.425144 0.230895 0.125753
H6    H     H_    0.627407 0.619844 0.762197 0.136469
H7    H     H_    0.285476 0.426030 0.053603 0.099836
H8    H     H_    0.625570 0.624080 0.938577 0.107249
H9    H     H_    0.652775 0.967666 0.806893 0.376445
H10   H     H_    0.682060 0.032452 0.228315 0.377141
H11   H     H_    0.022072 0.499928 0.612733 0.135640
H12   H     H_    0.641844 0.226546 0.643104 0.166263
H13   H     H_    0.654106 0.773486 0.388020 0.160062
H14   H     H_    0.371566 0.218812 0.358970 0.141090
H15   H     H_    0.359810 0.780598 0.612631 0.147000
H16   H     H_    0.378782 0.056650 0.361913 0.175586
H17   H     H_    0.366775 0.942833 0.610934 0.180312
H18   H     H_    0.714554 0.573880 0.090425 0.101426
N1    N     N_R   0.500000 0.500020 0.258690 -0.224113
N2    N     N_R   0.500000 0.499980 0.741310 -0.228047
O1    O     O_R   0.500010 0.371450 0.581430 -0.511091
O2    O     O_2   0.813775 0.108977 0.739535 -0.265649
O3    O     O_3   0.585658 0.002080 0.756900 -0.532788
O4    O     O_2   0.811035 0.030927 0.416074 -0.251443
O5    O     O_2   0.834061 0.891515 0.328931 -0.274235
O6    O     O_3   0.610475 0.998113 0.263690 -0.532604
O7    O     O_R   0.499990 0.628550 0.418570 -0.496468
O8    O     O_R   0.500010 0.371460 0.418560 -0.494011
O9    O     O_R   0.499990 0.628540 0.581440 -0.507110
O10   O     O_R   0.274840 0.499990 0.562640 -0.499690
O11   O     O_R   0.725160 0.500010 0.437360 -0.509957
O12   O     O_R   0.274840 0.500000 0.399770 -0.505894
O13   O     O_R   0.725160 0.500000 0.600230 -0.493403
O14   O     O_2   0.799077 0.969452 0.648535 -0.250494
S1    S     S_3+6 0.706068 0.043587 0.683384 0.025459
S2    S     S_3+6 0.722170 0.956694 0.361816 0.022051

loop_
_geom_bond_atom_site_label_1
_geom_bond_atom_site_label_2
_ccdc_geom_bond_type
C6    O13   A    
C18   C20   A    
C2    C4    A    
Cu1   O13   S    
C2    C27   A    
O4    S2    D    
C27   H6    S    
O3    S1    S    
C24   N1    A    
C2    H8    S    
C9    C20   A    
C26   C28   A    
C24   H3    S    
Cu1   O10   S    
C25   H4    S    
C9    C11   A    
C23   H2    S    
O5    S2    D    
C9    S1    S    
C10   S2    S    
C5    C7    S    
C7    C8    D    
H9    O3    S    
C1    O8    A    
O14   S1    D    
C8    H11   S    
C1    O1    A    
Cu1   Cu2   S    
C13   C15   A    
C28   H7    S    
C27   N2    A    
O6    S2    S    
C12   O7    A    
Cu2   O8    S    
C6    O11   A    
C3    C28   A    
C17   C19   A    
Cu2   N1    S    
C17   H15   S    
C5    O12   A    
C12   C15   S    
C14   C16   A    
Cu1   N2    S    
Cu2   O12   S    
C10   C21   A    
C11   C14   A    
C19   H17   S    
C26   N1    A    
C7    H1    S    
Cu2   O11   S    
C3    C4    S    
Cu2   O7    S    
C18   H16   S    
C22   H18   S    
C13   H13   S    
C23   C25   A    
C20   C21   S    
C11   H12   S    
C16   C18   A    
Cu1   O1    S    
C22   C24   A    
C26   H5    S    
C15   C17   A    
C4    C23   A    
C16   H14   S    
C25   N2    A    
C3    C22   A    
C6    C8    S    
C1    C14   S    
C5    O10   A    
C19   C21   A    
C12   O9    A    
O2    S1    D    
Cu1   O9    S    
H10   O6    S    
C10   C13   A    
