data_mof_unit_19075.cif
_audit_creation_date              2012-12-10T17:33:00-0500
_audit_creation_method            fapswitch 2.2
_symmetry_space_group_name_H-M    P1
_symmetry_Int_Tables_number       1
_space_group_crystal_system       triclinic
_cell_length_a                    12.36031
_cell_length_b                    13.229361
_cell_length_c                    14.202326
_cell_angle_alpha                 93.121537
_cell_angle_beta                  107.937713
_cell_angle_gamma                 117.137177
_cell_volume                      1913.4169863

loop_
_atom_site_label
_atom_site_type_symbol
_atom_type_description
_atom_site_fract_x
_atom_site_fract_y
_atom_site_fract_z
_atom_type_partial_charge
C1    C     C_R   0.652281 0.714568 0.510795 0.777783
C2    C     C_R   0.824395 0.469491 0.917705 0.073288
C3    C     C_R   0.781118 0.495416 0.992908 0.107874
C4    C     C_R   0.918881 0.431649 0.942681 0.018299
C5    C     C_R   0.991069 0.448274 0.047177 0.057055
C6    C     C_R   0.945181 0.472500 0.120389 -0.213997
C7    C     C_R   0.839860 0.492082 0.093170 -0.224382
C8    C     C_R   0.942607 0.375382 0.868727 -0.034974
C9    C     C_R   0.049412 0.356712 0.898117 -0.270340
C10   C     C_R   0.132805 0.390097 0.999724 0.140585
C11   C     C_R   0.104619 0.436564 0.075167 0.084505
C12   C     C_R   0.618323 0.516412 0.687044 0.800022
C13   C     C_R   0.242463 0.374427 0.027212 -0.174600
C14   C     C_R   0.324835 0.405140 0.129015 -0.162848
C15   C     C_R   0.193150 0.472977 0.176344 -0.249050
C16   C     C_R   0.116278 0.977733 0.340146 -0.193847
C17   C     C_R   0.250425 0.161947 0.464127 -0.095030
C18   C     C_R   0.746285 0.921247 0.591928 -0.184962
C19   C     C_R   0.842104 0.037821 0.615588 -0.153010
C20   C     C_R   0.939077 0.072260 0.574987 -0.140490
C21   C     C_R   0.941042 0.989939 0.508589 0.077691
C22   C     C_R   0.832414 0.875176 0.473069 0.066401
C23   C     C_R   0.346320 0.285385 0.486520 0.791276
C24   C     C_R   0.044106 0.019772 0.472117 0.042550
C25   C     C_R   0.023086 0.944001 0.385388 0.111693
C26   C     C_R   0.908340 0.836190 0.343673 -0.212408
C27   C     C_R   0.815252 0.801230 0.387828 -0.183567
C28   C     C_R   0.167921 0.122116 0.519139 0.192642
C29   C     C_R   0.226640 0.088147 0.376799 -0.229529
C30   C     C_R   0.741720 0.838705 0.522155 -0.102864
C31   C     C_R   0.255444 0.686380 0.662096 -0.294502
C32   C     C_R   0.653957 0.342496 0.362551 0.088868
C33   C     C_R   0.731262 0.308527 0.331410 -0.249708
C34   C     C_R   0.379083 0.480115 0.312710 0.795110
C35   C     C_R   0.866937 0.367820 0.382914 -0.197017
C36   C     C_R   0.927666 0.462735 0.466785 -0.001732
C37   C     C_R   0.844104 0.494903 0.495628 0.304375
C38   C     C_R   0.067589 0.527032 0.522800 -0.036515
C39   C     C_R   0.120092 0.621851 0.605700 0.178593
C40   C     C_R   0.037517 0.652140 0.632082 -0.283539
C41   C     C_R   0.903059 0.590333 0.578425 -0.187841
C42   C     C_R   0.158909 0.502033 0.500843 0.019299
C43   C     C_R   0.339341 0.657318 0.636755 0.071651
C44   C     C_R   0.677225 0.515647 0.793763 -0.080930
C45   C     C_R   0.300585 0.454951 0.204125 -0.057402
C46   C     C_R   0.682024 0.526621 0.966137 -0.009061
C47   C     C_R   0.628150 0.532884 0.866072 -0.236638
C48   C     C_R   0.779387 0.490920 0.821873 -0.233863
Cu1   Cu    Cu3+1 0.416420 0.526630 0.522910 0.930691
Cu2   Cu    Cu3+1 0.583580 0.473370 0.477090 0.937095
H1    H     H_    0.808189 0.508943 0.152422 0.157986
H2    H     H_    0.263512 0.337001 0.970083 0.134828
H3    H     H_    0.291070 0.117473 0.334891 0.155105
H4    H     H_    0.890797 0.778175 0.276976 0.155020
H5    H     H_    0.100061 0.921359 0.272969 0.145358
H6    H     H_    0.676880 0.895332 0.629583 0.152396
H7    H     H_    0.008952 0.164398 0.593549 0.171984
H8    H     H_    0.843391 0.101354 0.667832 0.162013
H9    H     H_    0.726859 0.717891 0.351096 0.179924
H10   H     H_    0.443781 0.706942 0.680228 0.119786
H11   H     H_    0.181341 0.517571 0.234923 0.154131
H12   H     H_    0.077375 0.724895 0.695309 0.150586
H13   H     H_    0.296190 0.759027 0.725592 0.137953
H14   H     H_    0.127475 0.431389 0.439241 0.121421
H15   H     H_    0.548843 0.295843 0.321884 0.116587
H16   H     H_    0.921823 0.337805 0.355417 0.134807
H17   H     H_    0.685766 0.235875 0.266962 0.147020
H18   H     H_    0.848983 0.620942 0.604765 0.200964
H19   H     H_    0.406510 0.388965 0.148926 0.159912
H20   H     H_    0.066989 0.314679 0.841186 0.146161
H21   H     H_    0.549629 0.553434 0.845223 0.161992
H22   H     H_    0.826301 0.492602 0.768882 0.171439
H23   H     H_    0.985770 0.472236 0.199335 0.142092
N1    N     N_R   0.290690 0.566960 0.557640 -0.177554
N2    N     N_R   0.709100 0.433710 0.442970 -0.200633
O1    O     O_R   0.545970 0.684450 0.528810 -0.575202
O2    O     O_R   0.687130 0.639470 0.490120 -0.601638
O3    O     O_R   0.519670 0.535100 0.660030 -0.588312
O4    O     O_R   0.660830 0.490120 0.621340 -0.587842
O5    O     O_R   0.312870 0.360530 0.509880 -0.589919
O6    O     O_R   0.454030 0.315550 0.471190 -0.571494
O7    O     O_R   0.339170 0.509880 0.378660 -0.583782
O8    O     O_R   0.480330 0.464900 0.339970 -0.591336
N3    N     N_2   0.215528 0.176494 0.624328 -0.452702
H24   H     H_    0.289590 0.262223 0.647677 0.266940
C49   C     C_3   0.243409 0.107986 0.694155 -0.695092
H25   H     H_    0.273340 0.154031 0.773241 0.223753
H26   H     H_    0.324598 0.095997 0.688196 0.232534
H27   H     H_    0.155286 0.021247 0.678025 0.241045
C50   C     C_1   0.635559 0.555012 0.039846 0.185988
N4    N     N_1   0.598964 0.578378 0.098988 -0.307563
C51   C     C_1   0.850972 0.320688 0.764709 0.204840
N5    N     N_1   0.777807 0.276928 0.681450 -0.284194

loop_
_geom_bond_atom_site_label_1
_geom_bond_atom_site_label_2
_ccdc_geom_bond_type
C28   N3    S    
C1    O2    A    
C35   C36   A    
C4    C8    A    
Cu2   O4    S    
C32   N2    A    
C26   C27   A    
C17   C23   S    
C31   C43   A    
C21   C22   A    
C36   C37   A    
N3    C49   S    
C5    C11   A    
C3    C7    A    
C38   C39   A    
C49   H26   S    
C12   O4    A    
C40   H12   S    
Cu1   O3    S    
C18   C19   A    
C1    C30   S    
C11   C15   A    
N3    H24   S    
C19   C20   A    
C8    C9    A    
C12   O3    A    
C8    C51   S    
C23   O5    A    
C41   H18   S    
C23   O6    A    
C9    C10   A    
C44   C47   A    
C18   H6    S    
C43   N1    A    
C37   N2    A    
C13   C14   A    
C17   C28   A    
C48   H22   S    
C26   H4    S    
Cu2   O8    S    
C14   C45   A    
C19   H8    S    
C42   N1    A    
C31   H13   S    
C24   C25   A    
C39   C40   A    
C49   H25   S    
C35   H16   S    
C2    C48   A    
C25   C26   A    
C10   C13   A    
Cu1   O7    S    
C2    C4    A    
C13   H2    S    
C15   H11   S    
Cu1   O1    S    
C34   C45   S    
C9    H20   S    
C47   H21   S    
C43   H10   S    
C18   C30   A    
C40   C41   A    
C22   C27   A    
C14   H19   S    
C34   O8    A    
C15   C45   A    
Cu2   O2    S    
C42   H14   S    
C33   H17   S    
C6    H23   S    
C16   C25   A    
C46   C47   A    
C22   C30   A    
C1    O1    A    
C24   C28   A    
C4    C5    A    
C49   H27   S    
C38   C42   A    
C6    C7    A    
C46   C50   S    
C3    C46   A    
Cu1   O5    S    
C32   C33   A    
C36   C38   A    
C2    C3    A    
C16   C29   A    
C16   H5    S    
C7    H1    S    
C12   C44   S    
C27   H9    S    
C17   C29   A    
C50   N4    T    
C5    C6    A    
C29   H3    S    
C51   N5    T    
C33   C35   A    
C31   C39   A    
C37   C41   A    
C10   C11   A    
C20   C21   A    
Cu1   Cu2   S    
C21   C24   A    
Cu1   N1    S    
C34   O7    A    
C20   H7    S    
Cu2   N2    S    
C44   C48   A    
Cu2   O6    S    
C32   H15   S    
