data_mof_unit_26878.cif
_audit_creation_date              2012-10-26T18:37:00-0400
_audit_creation_method            fapswitch 2.2
_symmetry_space_group_name_H-M    P1
_symmetry_Int_Tables_number       1
_space_group_crystal_system       triclinic
_cell_length_a                    12.729378
_cell_length_b                    13.883158
_cell_length_c                    19.310206
_cell_angle_alpha                 90.584732
_cell_angle_beta                  92.654916
_cell_angle_gamma                 98.01277
_cell_volume                      3375.15317808

loop_
_atom_site_label
_atom_site_type_symbol
_atom_type_description
_atom_site_fract_x
_atom_site_fract_y
_atom_site_fract_z
_atom_type_partial_charge
C1    C     C_R   0.483528 0.315902 0.499184 0.535820
C2    C     C_2   0.971287 0.538243 0.504795 -0.034552
C3    C     C_1   0.854404 0.523446 0.508984 0.123106
C4    C     C_1   0.145413 0.476568 0.490142 0.105684
C5    C     C_R   0.501062 0.501979 0.367326 0.578662
C6    C     C_R   0.499322 0.496957 0.632973 0.577636
C7    C     C_R   0.461918 0.585990 0.256227 -0.070026
C8    C     C_R   0.573766 0.447093 0.748682 -0.059266
C9    C     C_R   0.485347 0.603533 0.186345 0.224528
C10   C     C_R   0.583821 0.460900 0.821293 0.208918
C11   C     C_R   0.537323 0.536741 0.149332 -0.022509
C12   C     C_R   0.516501 0.684253 0.500473 0.542695
C13   C     C_R   0.517657 0.517735 0.855197 -0.010025
C14   C     C_R   0.586906 0.466974 0.186285 0.217456
C15   C     C_R   0.444598 0.565158 0.816433 0.199437
C16   C     C_R   0.567825 0.451635 0.256788 0.224991
C17   C     C_R   0.430017 0.548238 0.744118 0.219119
C18   C     C_R   0.506482 0.511407 0.291805 -0.055687
C19   C     C_R   0.499939 0.495778 0.709610 -0.050616
C20   C     C_R   0.522613 0.523932 0.931652 0.370605
C21   C     C_R   0.534298 0.534036 0.072331 0.354126
C22   C     C_3   0.387715 0.645914 0.291498 -0.216894
C23   C     C_1   0.526081 0.787652 0.499847 -0.046254
C24   C     C_3   0.273253 0.593366 0.285733 -0.273924
C25   C     C_3   0.199636 0.645772 0.328084 -0.449250
C26   C     C_3   0.638300 0.375904 0.714983 -0.226472
C27   C     C_3   0.566669 0.284005 0.687604 -0.298227
C28   C     C_3   0.631335 0.212882 0.654165 -0.435235
C29   C     C_3   0.542745 0.757158 0.148244 0.028755
C30   C     C_3   0.564245 0.821894 0.213660 -0.289461
C31   C     C_3   0.659007 0.900729 0.205813 -0.488111
C32   C     C_3   0.751704 0.481611 0.869954 0.004711
C33   C     C_3   0.834504 0.430501 0.909163 -0.251241
C34   C     C_1   0.474170 0.212815 0.496563 -0.063886
C35   C     C_3   0.937725 0.499206 0.924084 -0.490076
C36   C     C_3   0.759577 0.446774 0.168604 0.018440
C37   C     C_3   0.799599 0.528362 0.119340 -0.274098
C38   C     C_3   0.919504 0.557475 0.129051 -0.490210
C39   C     C_3   0.421158 0.721594 0.839431 0.022208
C40   C     C_3   0.360180 0.785133 0.883249 -0.252342
C41   C     C_3   0.399150 0.893045 0.874033 -0.489743
C42   C     C_3   0.573051 0.286351 0.265085 0.032678
C43   C     C_3   0.548721 0.215843 0.324244 -0.265410
C44   C     C_3   0.516649 0.111741 0.297177 -0.495166
C45   C     C_2   0.545286 0.980098 0.499034 0.280732
C46   C     C_3   0.249520 0.553830 0.730186 0.043564
C47   C     C_3   0.168954 0.535225 0.668853 -0.257593
C48   C     C_3   0.056575 0.506696 0.693260 -0.505858
C49   C     C_3   0.277870 0.010827 0.445788 0.002826
C50   C     C_3   0.212528 0.047370 0.502847 -0.256128
C51   C     C_3   0.119619 0.094244 0.472209 -0.494137
C52   C     C_3   0.732723 0.993331 0.508272 0.000549
C53   C     C_3   0.765031 0.954775 0.579069 -0.259411
C54   C     C_3   0.864235 0.905158 0.574956 -0.488268
C55   C     C_3   0.024841 0.642599 0.512864 -0.257541
C56   C     C_2   0.456285 0.021019 0.487922 0.283379
C57   C     C_3   0.991031 0.704063 0.452399 -0.297543
C58   C     C_3   0.056534 0.804719 0.454046 -0.462739
C59   C     C_3   0.972648 0.359322 0.484706 -0.254773
C60   C     C_3   0.927148 0.339683 0.410164 -0.285896
C61   C     C_3   0.866640 0.236990 0.401819 -0.449676
C62   C     C_1   0.465704 0.125908 0.492986 -0.032933
C63   C     C_1   0.535121 0.874826 0.499351 -0.021417
C64   C     C_2   0.028347 0.462803 0.493633 -0.035953
Cu1   Cu    Cu3+1 0.395330 0.493960 0.495610 0.965035
Cu2   Cu    Cu3+1 0.604670 0.506040 0.504390 0.968736
H1    H     H_    0.225221 0.647437 0.383928 0.180805
H2    H     H_    0.577698 0.146533 0.636091 0.172263
H3    H     H_    0.524187 0.247460 0.731297 0.172397
H4    H     H_    0.506348 0.303016 0.648721 0.161055
H5    H     H_    0.686498 0.410960 0.673525 0.162092
H6    H     H_    0.697901 0.352080 0.752375 0.180747
H7    H     H_    0.524786 0.803667 0.103967 0.166759
H8    H     H_    0.616406 0.726705 0.135729 0.120635
H9    H     H_    0.493122 0.857189 0.223653 0.161460
H10   H     H_    0.581769 0.777055 0.258942 0.153669
H11   H     H_    0.731107 0.867435 0.194942 0.144489
H12   H     H_    0.199667 0.721430 0.309906 0.146713
H13   H     H_    0.674777 0.944156 0.254710 0.142845
H14   H     H_    0.642218 0.949980 0.162958 0.148561
H15   H     H_    0.737694 0.546214 0.901108 0.132920
H16   H     H_    0.783624 0.506332 0.819300 0.116130
H17   H     H_    0.802708 0.403079 0.958996 0.188372
H18   H     H_    0.851256 0.367318 0.877763 0.162409
H19   H     H_    0.972198 0.525813 0.874820 0.145835
H20   H     H_    0.995868 0.459989 0.952832 0.155036
H21   H     H_    0.923010 0.562288 0.956280 0.146009
H22   H     H_    0.805740 0.385438 0.161438 0.147071
H23   H     H_    0.117586 0.606404 0.321801 0.129741
H24   H     H_    0.775540 0.471900 0.223647 0.146058
H25   H     H_    0.779702 0.503682 0.064806 0.188899
H26   H     H_    0.760008 0.593205 0.129395 0.142083
H27   H     H_    0.941269 0.582798 0.183257 0.144246
H28   H     H_    0.945617 0.617561 0.093512 0.148557
H29   H     H_    0.961434 0.494794 0.116905 0.149549
H30   H     H_    0.409641 0.740365 0.783939 0.163200
H31   H     H_    0.507311 0.737722 0.855245 0.132195
H32   H     H_    0.274164 0.770189 0.867807 0.160606
H33   H     H_    0.370625 0.766922 0.938854 0.202004
H34   H     H_    0.244124 0.590155 0.230456 0.174608
H35   H     H_    0.484602 0.909957 0.890444 0.150758
H36   H     H_    0.353222 0.937079 0.906440 0.152073
H37   H     H_    0.387852 0.913271 0.818948 0.148149
H38   H     H_    0.635888 0.261328 0.234119 0.173671
H39   H     H_    0.499151 0.284085 0.231111 0.134631
H40   H     H_    0.619749 0.218510 0.360292 0.186431
H41   H     H_    0.482536 0.238372 0.353154 0.164528
H42   H     H_    0.443083 0.106628 0.263300 0.145097
H43   H     H_    0.501555 0.062058 0.341377 0.158122
H44   H     H_    0.581252 0.088125 0.267304 0.145500
H45   H     H_    0.269603 0.517485 0.304087 0.183435
H46   H     H_    0.225279 0.611278 0.764034 0.173311
H47   H     H_    0.246527 0.484952 0.759995 0.132692
H48   H     H_    0.171366 0.601884 0.637288 0.173239
H49   H     H_    0.190188 0.475350 0.636045 0.185968
H50   H     H_    0.052440 0.440100 0.724992 0.144249
H51   H     H_    0.999929 0.491594 0.647805 0.154796
H52   H     H_    0.032375 0.566740 0.724576 0.139797
H53   H     H_    0.224536 0.957845 0.412288 0.144465
H54   H     H_    0.307977 0.070413 0.410528 0.120152
H55   H     H_    0.181370 0.985363 0.535455 0.167162
H56   H     H_    0.414512 0.661943 0.346438 0.146927
H57   H     H_    0.263414 0.101608 0.536835 0.165444
H58   H     H_    0.149185 0.157886 0.440605 0.156036
H59   H     H_    0.073792 0.119480 0.514744 0.137693
H60   H     H_    0.065717 0.040834 0.439251 0.135256
H61   H     H_    0.798620 0.048515 0.492388 0.144785
H62   H     H_    0.723536 0.935524 0.467117 0.121265
H63   H     H_    0.781085 0.016328 0.617101 0.163966
H64   H     H_    0.699561 0.901758 0.597988 0.166770
H65   H     H_    0.848869 0.841978 0.538367 0.156486
H66   H     H_    0.886333 0.878694 0.626957 0.144323
H67   H     H_    0.388141 0.717989 0.267431 0.173505
H68   H     H_    0.931620 0.957285 0.557334 0.139932
H69   H     H_    0.047992 0.842632 0.503888 0.154430
H70   H     H_    0.141637 0.798313 0.448018 0.173164
H71   H     H_    0.028676 0.848484 0.410885 0.130626
H72   H     H_    0.001656 0.667433 0.402329 0.161602
H73   H     H_    0.905677 0.712186 0.455269 0.165037
H74   H     H_    0.001876 0.673378 0.562433 0.135271
H75   H     H_    0.112724 0.647739 0.515889 0.155435
H76   H     H_    0.920317 0.182221 0.413959 0.139810
H77   H     H_    0.799296 0.227150 0.436871 0.173852
H78   H     H_    0.672130 0.246605 0.608936 0.181222
H79   H     H_    0.834495 0.224902 0.347501 0.143262
H80   H     H_    0.872022 0.392581 0.396084 0.186218
H81   H     H_    0.992939 0.348426 0.373822 0.155340
H82   H     H_    0.029624 0.307386 0.497309 0.137417
H83   H     H_    0.908278 0.345325 0.521865 0.144091
H84   H     H_    0.691446 0.191169 0.692244 0.141229
N1    N     N_R   0.542686 0.449693 0.038219 -0.177723
N2    N     N_R   0.512746 0.608046 0.965460 -0.224798
N3    N     N_R   0.537232 0.444733 0.969400 -0.178164
N4    N     N_R   0.517963 0.612783 0.034397 -0.222535
N5    N     N_1   0.238030 0.484880 0.489000 -0.210055
N6    N     N_1   0.761970 0.515120 0.511000 -0.204716
O1    O     O_R   0.399110 0.356330 0.495750 -0.500058
O2    O     O_3   0.656886 0.415765 0.859801 -0.552732
O3    O     O_3   0.651391 0.410849 0.152632 -0.557791
O4    O     O_3   0.382008 0.622800 0.850184 -0.564111
O5    O     O_3   0.611529 0.379935 0.293310 -0.563004
O6    O     O_3   0.351406 0.587078 0.705652 -0.557570
O7    O     O_3   0.359041 0.961253 0.474936 -0.599258
O8    O     O_3   0.641752 0.040717 0.513160 -0.610628
O9    O     O_R   0.600890 0.643670 0.504250 -0.500785
O10   O     O_R   0.575900 0.366540 0.503170 -0.483944
O11   O     O_R   0.424100 0.633460 0.496830 -0.483545
O12   O     O_R   0.411580 0.494880 0.396430 -0.511415
O13   O     O_R   0.588420 0.505120 0.603570 -0.513166
O14   O     O_R   0.588360 0.505090 0.403850 -0.454464
O15   O     O_R   0.411640 0.494910 0.596150 -0.450340
O16   O     O_3   0.453395 0.684337 0.154321 -0.553684

loop_
_geom_bond_atom_site_label_1
_geom_bond_atom_site_label_2
_ccdc_geom_bond_type
C47   H48   S    
Cu2   O9    S    
C28   H84   S    
C55   H75   S    
C46   H46   S    
C39   O4    S    
C8    C26   S    
Cu2   O13   S    
C25   H1    S    
C40   H33   S    
C52   H62   S    
C42   O5    S    
C31   H14   S    
C53   C54   S    
C36   H22   S    
C47   H49   S    
C54   H65   S    
C24   H45   S    
C56   O7    S    
C59   C64   S    
C37   C38   S    
Cu1   O15   S    
C36   C37   S    
C28   H2    S    
C45   O8    S    
C2    C55   S    
C40   H32   S    
C30   C31   S    
C35   H20   S    
C39   H31   S    
C49   H54   S    
C29   H7    S    
C54   H68   S    
C34   C62   T    
C26   H6    S    
C41   H36   S    
C57   H73   S    
C15   C17   A    
C5    O12   A    
C61   H79   S    
C36   O3    S    
C17   C19   A    
C35   H21   S    
C61   H77   S    
C45   C56   D    
C38   H29   S    
C5    O14   A    
C22   H56   S    
C28   H78   S    
C60   H81   S    
C10   O2    S    
C44   H42   S    
C46   H47   S    
C48   H50   S    
C59   H82   S    
C23   C63   T    
C59   C60   S    
N1    N3    A    
C51   H58   S    
C9    C11   A    
C50   H55   S    
C60   H80   S    
C12   O11   A    
C33   H18   S    
C52   H61   S    
C2    C64   D    
C1    C34   S    
C31   H11   S    
C32   O2    S    
C6    O15   A    
C59   H83   S    
C8    C19   A    
C20   N3    A    
Cu2   O10   S    
C22   H67   S    
C25   H12   S    
C51   H59   S    
C24   C25   S    
Cu1   O1    S    
C12   O9    A    
C37   H25   S    
C48   H52   S    
C5    C18   S    
C58   H70   S    
C45   C63   S    
C55   H74   S    
C41   H37   S    
C42   H38   S    
C60   C61   S    
C43   H40   S    
C43   C44   S    
C29   C30   S    
C6    C19   S    
C30   H10   S    
C47   C48   S    
C12   C23   S    
C21   N4    A    
C7    C18   A    
C38   H28   S    
C50   C51   S    
C26   C27   S    
C11   C14   A    
C43   H41   S    
C33   H17   S    
C27   H4    S    
C52   O8    S    
C58   H71   S    
C16   C18   A    
C40   C41   S    
N2    N4    A    
Cu1   Cu2   S    
C13   C15   A    
C58   H69   S    
C22   C24   S    
C53   H63   S    
C42   C43   S    
C11   C21   S    
C39   C40   S    
C32   H15   S    
C32   H16   S    
C52   C53   S    
C36   H24   S    
C7    C9    A    
Cu1   O11   S    
C46   C47   S    
C37   H26   S    
C14   C16   A    
C24   H34   S    
C51   H60   S    
Cu2   O14   S    
C50   H57   S    
Cu1   O12   S    
C10   C13   A    
C27   H3    S    
C31   H13   S    
C48   H51   S    
C29   H8    S    
C16   O5    S    
C7    C22   S    
C54   H66   S    
C4    C64   S    
C25   H23   S    
C14   O3    S    
C32   C33   S    
C55   C57   S    
C2    C3    S    
C15   O4    S    
Cu1   N5    S    
C44   H43   S    
Cu2   N6    S    
C30   H9    S    
C35   H19   S    
C57   C58   S    
C49   H53   S    
C26   H5    S    
C1    O10   A    
C38   H27   S    
C1    O1    A    
C3    N6    T    
C33   C35   S    
C41   H35   S    
C57   H72   S    
C56   C62   S    
C21   N1    A    
C29   O16   S    
C42   H39   S    
C39   H30   S    
C49   O7    S    
C13   C20   S    
C17   O6    S    
C20   N2    A    
C61   H76   S    
C4    N5    T    
C8    C10   A    
C49   C50   S    
C46   O6    S    
C27   C28   S    
C9    O16   S    
C53   H64   S    
C6    O13   A    
C44   H44   S    
