data_mof_unit_54835.cif
_audit_creation_date              2013-03-05T15:52:18-0500
_audit_creation_method            fapswitch 2.2
_symmetry_space_group_name_H-M    P1
_symmetry_Int_Tables_number       1
_space_group_crystal_system       triclinic
_cell_length_a                    14.645033
_cell_length_b                    15.638389
_cell_length_c                    9.969668
_cell_angle_alpha                 91.980356
_cell_angle_beta                  92.800503
_cell_angle_gamma                 90.467912
_cell_volume                      2279.10033771

loop_
_atom_site_label
_atom_site_type_symbol
_atom_site_description
_atom_site_fract_x
_atom_site_fract_y
_atom_site_fract_z
_atom_type_partial_charge
O1    O     O_R   0.408390 0.908380 0.614690 -0.611425
O2    O     O_R   0.408390 0.091620 0.614690 -0.614977
O3    O     O_R   0.908390 0.408380 0.614690 -0.611421
O4    O     O_R   0.908390 0.591620 0.614690 -0.614969
O5    O     O_R   0.408370 0.908380 0.385360 -0.625403
O6    O     O_R   0.408370 0.091620 0.385360 -0.635502
O7    O     O_R   0.908370 0.408380 0.385360 -0.625426
O8    O     O_R   0.908370 0.591620 0.385360 -0.635513
C1    C     C_R   0.381436 0.877871 0.495364 0.863134
C2    C     C_R   0.377622 0.116884 0.499236 0.864010
C3    C     C_R   0.881435 0.377872 0.495363 0.863127
C4    C     C_R   0.877617 0.616879 0.499235 0.864012
Zn1   Zn    Zn3+2 0.500010 1.000000 0.653130 0.923849
Zn2   Zn    Zn3+2 0.000010 0.500000 0.653130 0.923871
Zn3   Zn    Zn3+2 0.499980 0.000000 0.346870 0.921649
Zn4   Zn    Zn3+2 0.999980 0.500000 0.346870 0.921634
O9    O     O_R   0.591620 0.091610 0.614640 -0.620709
O10   O     O_R   0.591620 0.908390 0.614640 -0.621277
O11   O     O_R   0.091620 0.591610 0.614640 -0.620738
O12   O     O_R   0.091620 0.408390 0.614640 -0.621234
O13   O     O_R   0.591610 0.091610 0.385310 -0.608755
O14   O     O_R   0.591610 0.908390 0.385310 -0.618114
O15   O     O_R   0.091610 0.591610 0.385310 -0.608749
O16   O     O_R   0.091610 0.408390 0.385310 -0.618135
C5    C     C_R   0.612548 0.126166 0.504793 0.880888
C6    C     C_R   0.623510 0.883714 0.500869 0.908414
C7    C     C_R   0.112553 0.626162 0.504790 0.880945
C8    C     C_R   0.123506 0.383710 0.500866 0.908426
C9    C     C_R   0.439500 0.281684 0.573310 -0.229030
C10   C     C_R   0.390508 0.742788 0.685030 -0.201808
C11   C     C_R   0.939524 0.781689 0.573138 -0.229077
C12   C     C_R   0.890531 0.242768 0.684983 -0.201799
C13   C     C_R   0.474394 0.360054 0.616661 -0.193042
C14   C     C_R   0.381796 0.705503 0.807952 -0.210087
C15   C     C_R   0.974459 0.860073 0.616320 -0.193083
C16   C     C_R   0.881838 0.205465 0.807896 -0.210114
C17   C     C_R   0.918131 0.930318 0.621892 0.295273
C18   C     C_R   0.795344 0.184988 0.850787 0.234021
C19   C     C_R   0.418053 0.430290 0.622200 0.295179
C20   C     C_R   0.295294 0.685026 0.850815 0.233986
C21   C     C_R   0.824517 0.921546 0.576985 0.166230
C22   C     C_R   0.717533 0.196629 0.763432 0.223701
C23   C     C_R   0.324492 0.421536 0.577041 0.166312
C24   C     C_R   0.217496 0.696655 0.763430 0.223717
C25   C     C_R   0.786024 0.837718 0.539074 -0.017129
C26   C     C_R   0.729769 0.219115 0.627264 -0.012059
C27   C     C_R   0.286011 0.337712 0.539103 -0.017079
C28   C     C_R   0.229757 0.719123 0.627260 -0.012015
C29   C     C_R   0.346290 0.268254 0.537457 0.025333
C30   C     C_R   0.313091 0.755662 0.598211 0.004403
C31   C     C_R   0.846301 0.768258 0.537391 0.025387
C32   C     C_R   0.813101 0.255654 0.598196 0.004380
C33   C     C_R   0.313955 0.185481 0.499034 -0.117665
C34   C     C_R   0.316413 0.807294 0.485810 -0.164036
C35   C     C_R   0.813953 0.685479 0.499032 -0.117632
C36   C     C_R   0.816412 0.307295 0.485806 -0.163997
C37   C     C_R   0.222064 0.167523 0.462526 0.154057
C38   C     C_R   0.246175 0.803195 0.382134 0.170673
C39   C     C_R   0.722055 0.667519 0.462579 0.154003
C40   C     C_R   0.746163 0.303204 0.382146 0.170689
C41   C     C_R   0.660487 0.735049 0.460182 0.168514
C42   C     C_R   0.667795 0.254540 0.401668 0.177444
C43   C     C_R   0.160496 0.235054 0.460107 0.168509
C44   C     C_R   0.167809 0.754528 0.401640 0.177434
C45   C     C_R   0.691819 0.818783 0.500543 -0.146987
C46   C     C_R   0.665150 0.205416 0.517252 -0.195683
C47   C     C_R   0.191817 0.318781 0.500518 -0.147012
C48   C     C_R   0.165152 0.705413 0.517236 -0.195736
C49   C     C_R   0.341826 0.044848 0.130213 -0.184619
C50   C     C_R   0.841824 0.544832 0.130219 -0.184620
C51   C     C_R   0.275736 0.092904 0.063455 -0.241444
C52   C     C_R   0.775729 0.592886 0.063467 -0.241443
C53   C     C_R   0.277489 0.098920 0.924827 0.202649
C54   C     C_R   0.777482 0.598909 0.924840 0.202635
C55   C     C_R   0.336196 0.043437 0.856379 0.257142
C56   C     C_R   0.836192 0.543432 0.856385 0.257109
C57   C     C_R   0.420747 0.021514 0.924195 0.080801
C58   C     C_R   0.920745 0.521510 0.924197 0.080793
C59   C     C_R   0.421882 0.021722 0.067928 0.081698
C60   C     C_R   0.921880 0.521715 0.067930 0.081703
N1    N     N_R   0.498810 0.000000 0.142780 -0.109290
N2    N     N_R   0.998810 0.500000 0.142780 -0.109291
C61   C     C_R   0.575995 0.979314 0.073763 0.235458
C62   C     C_R   0.075997 0.479320 0.073763 0.235459
C63   C     C_R   0.574865 0.978894 0.931169 -0.160103
C64   C     C_R   0.074867 0.478902 0.931168 -0.160082
N3    N     N_R   0.498740 1.000000 0.857170 -0.128379
N4    N     N_R   0.998740 0.500000 0.857170 -0.128383
C65   C     C_3   0.187855 0.076262 0.431415 -0.948512
H1    H     H_    0.136204 0.058757 0.503796 0.253702
H2    H     H_    0.156792 0.070465 0.327787 0.245488
H3    H     H_    0.241625 0.027326 0.439272 0.216278
C66   C     C_3   0.253930 0.849787 0.252044 -0.871055
H4    H     H_    0.203986 0.828641 0.170733 0.229145
H5    H     H_    0.241730 0.918304 0.271952 0.230589
H6    H     H_    0.321202 0.838006 0.208678 0.262599
C67   C     C_3   0.687843 0.576257 0.431480 -0.948491
H7    H     H_    0.636212 0.558747 0.503889 0.253711
H8    H     H_    0.656756 0.570463 0.327865 0.245480
H9    H     H_    0.741617 0.527323 0.439297 0.216273
C68   C     C_3   0.753908 0.349793 0.252053 -0.871122
H10   H     H_    0.703971 0.328626 0.170745 0.229154
H11   H     H_    0.741689 0.418309 0.271952 0.230591
H12   H     H_    0.821183 0.338026 0.208689 0.262599
C69   C     C_3   0.201965 0.145678 0.851464 -0.918775
H13   H     H_    0.204192 0.214328 0.883924 0.248240
H14   H     H_    0.209522 0.141342 0.741328 0.260545
H15   H     H_    0.134524 0.118015 0.873845 0.234677
C70   C     C_3   0.701959 0.645671 0.851485 -0.918763
H16   H     H_    0.709514 0.641337 0.741348 0.260556
H17   H     H_    0.634518 0.618010 0.873868 0.234665
H18   H     H_    0.704190 0.714320 0.883948 0.248236
C71   C     C_3   0.283293 0.975167 0.773860 -0.802922
H19   H     H_    0.279090 0.990886 0.666613 0.248848
H20   H     H_    0.311693 0.910924 0.792844 0.253376
H21   H     H_    0.211293 0.969731 0.803736 0.204434
C72   C     C_3   0.783292 0.475164 0.773860 -0.802868
H22   H     H_    0.779092 0.490884 0.666615 0.248862
H23   H     H_    0.811692 0.410920 0.792843 0.253363
H24   H     H_    0.711290 0.469727 0.803730 0.204419
H25   H     H_    0.635606 0.962089 0.878865 0.153449
H26   H     H_    0.135610 0.462103 0.878864 0.153475
H27   H     H_    0.487202 0.230730 0.569194 0.147532
H28   H     H_    0.458267 0.761959 0.658405 0.179050
H29   H     H_    0.987214 0.730726 0.569037 0.147521
H30   H     H_    0.958285 0.261940 0.658336 0.179044
H31   H     H_    0.546540 0.365578 0.645935 0.155375
H32   H     H_    0.442471 0.696624 0.872369 0.157380
H33   H     H_    0.046627 0.865596 0.645457 0.155410
H34   H     H_    0.942524 0.196578 0.872289 0.157350
C73   C     C_3   0.960125 0.013061 0.679290 -0.960425
H35   H     H_    0.031737 0.004911 0.718624 0.231692
H36   H     H_    0.961646 0.061351 0.600727 0.244535
H37   H     H_    0.920153 0.036510 0.764472 0.262114
C74   C     C_3   0.787067 0.151647 0.989717 -0.936289
H38   H     H_    0.855000 0.143062 0.041814 0.239513
H39   H     H_    0.747531 0.196526 0.052194 0.253848
H40   H     H_    0.751721 0.088710 0.981927 0.244048
C75   C     C_3   0.459960 0.513007 0.679841 -0.960472
H41   H     H_    0.419760 0.536476 0.764755 0.262188
H42   H     H_    0.531453 0.504800 0.719618 0.231725
H43   H     H_    0.461748 0.561302 0.601320 0.244530
C76   C     C_3   0.286994 0.651689 0.989743 -0.936370
H44   H     H_    0.354919 0.643116 0.041871 0.239533
H45   H     H_    0.247437 0.696563 0.052197 0.253855
H46   H     H_    0.251660 0.588747 0.981945 0.244056
C77   C     C_3   0.769962 0.001772 0.567947 -0.889821
H47   H     H_    0.735191 0.003783 0.467341 0.229785
H48   H     H_    0.723774 0.004317 0.652224 0.266971
H49   H     H_    0.811028 0.061283 0.575940 0.243213
C78   C     C_3   0.625915 0.204215 0.825904 -0.841897
H50   H     H_    0.572002 0.225173 0.754402 0.240784
H51   H     H_    0.605602 0.142669 0.867329 0.257948
H52   H     H_    0.630111 0.253664 0.908682 0.214766
C79   C     C_3   0.270000 0.501782 0.567745 -0.890028
H53   H     H_    0.235216 0.503702 0.467141 0.229817
H54   H     H_    0.223824 0.504461 0.652029 0.266999
H55   H     H_    0.311138 0.561256 0.575513 0.243229
C80   C     C_3   0.125866 0.704252 0.825863 -0.841873
H56   H     H_    0.071967 0.725209 0.754334 0.240799
H57   H     H_    0.105539 0.642710 0.867293 0.257950
H58   H     H_    0.130050 0.753706 0.908632 0.214779
C81   C     C_3   0.561350 0.715294 0.414341 -0.887213
H59   H     H_    0.515249 0.770450 0.415464 0.238556
H60   H     H_    0.558340 0.688763 0.309490 0.242415
H61   H     H_    0.531682 0.668217 0.480690 0.231287
C82   C     C_3   0.585122 0.258754 0.303357 -0.837660
H62   H     H_    0.522558 0.230451 0.341896 0.249621
H63   H     H_    0.568124 0.326529 0.284604 0.234682
H64   H     H_    0.599235 0.224412 0.207307 0.242858
C83   C     C_3   0.061372 0.215307 0.414190 -0.887251
H65   H     H_    0.015267 0.270460 0.415299 0.238604
H66   H     H_    0.058396 0.188787 0.309333 0.242415
H67   H     H_    0.031681 0.168224 0.480503 0.231302
C84   C     C_3   0.085150 0.758729 0.303298 -0.837671
H68   H     H_    0.022581 0.730415 0.341803 0.249667
H69   H     H_    0.068142 0.826501 0.284542 0.234677
H70   H     H_    0.099287 0.724391 0.207254 0.242844
C85   C     C_3   0.664041 0.955284 0.145421 -0.822098
H71   H     H_    0.722341 0.957563 0.078533 0.190642
H72   H     H_    0.680841 0.000269 0.231189 0.268637
H73   H     H_    0.659596 0.888177 0.176869 0.254622
C86   C     C_3   0.164045 0.455296 0.145418 -0.822133
H74   H     H_    0.180843 0.500288 0.231176 0.268627
H75   H     H_    0.159603 0.388191 0.176878 0.254641
H76   H     H_    0.222343 0.457572 0.078528 0.190650
H77   H     H_    0.328288 0.024554 0.227631 0.211523
H78   H     H_    0.828291 0.524536 0.227640 0.211526
H79   H     H_    0.219762 0.119758 0.117592 0.170119
H80   H     H_    0.719754 0.619734 0.117608 0.170120

loop_
_geom_bond_atom_site_label_1
_geom_bond_atom_site_label_2
_geom_bond_distance
_ccdc_geom_bond_type
C74   H40   1.106862 S    
C83   H65   1.099785 S    
C52   H80   1.082974 S    
C66   H4    1.105018 S    
C35   C39   1.400447 A    
C79   H54   1.103943 S    
C77   H47   1.104013 S    
O10   C6    1.295389 A    
C73   H37   1.108568 S    
C54   C70   1.504681 S    
C67   H7    1.109726 S    
C20   C76   1.506751 S    
C74   H38   1.110898 S    
Zn3   N1    2.033944 S    
C9    C29   1.406310 A    
O7    C3    1.288922 A    
C69   H14   1.108764 S    
C68   H10   1.105026 S    
C54   C56   1.409375 A    
Zn1   O10   2.010813 S    
C14   C20   1.394898 A    
C12   C16   1.386198 A    
C77   H48   1.103983 S    
C38   C66   1.517967 S    
C56   C58   1.431460 A    
C26   C46   1.422476 A    
C86   H75   1.107920 S    
C75   H43   1.107461 S    
C58   C60   1.432150 A    
C25   C31   1.405460 A    
C76   H44   1.110899 S    
C68   H12   1.109300 S    
C26   C32   1.390847 A    
C13   H31   1.084275 S    
C84   H69   1.110744 S    
C40   C42   1.397149 A    
C22   C26   1.433343 A    
C78   H52   1.110402 S    
C12   H30   1.082338 S    
C49   C51   1.388547 A    
C2    C33   1.427043 S    
C12   C32   1.412451 A    
O13   C5    1.312308 A    
C7    C48   1.452303 S    
C70   H17   1.110706 S    
N1    C61   1.386518 A    
O6    Zn3   2.010924 S    
C53   C69   1.504685 S    
Zn3   O14   2.004785 S    
C81   H59   1.099779 S    
C9    C13   1.371699 A    
C64   H26   1.082575 S    
C78   H50   1.097424 S    
C80   H57   1.104657 S    
C63   H25   1.082578 S    
C55   C71   1.510102 S    
O15   C7    1.312271 A    
O4    C4    1.291396 A    
O11   C7    1.286993 A    
C49   H77   1.059441 S    
C31   C35   1.408739 A    
C50   H78   1.059451 S    
C71   H21   1.113008 S    
C28   C30   1.390837 A    
C42   C82   1.523385 S    
C10   C30   1.412455 A    
Zn4   O16   2.004785 S    
C74   H39   1.107904 S    
C79   H55   1.102408 S    
O4    Zn2   2.004801 S    
C53   C55   1.409367 A    
C23   C79   1.495817 S    
C27   C47   1.439505 A    
C67   H8    1.108822 S    
C37   C43   1.394298 A    
C84   H70   1.110728 S    
C19   C75   1.510422 S    
C63   N3    1.355938 A    
C38   C44   1.397143 A    
C83   H67   1.106706 S    
C43   C47   1.422257 A    
C39   C41   1.394291 A    
C42   C46   1.408767 A    
C50   C60   1.397664 A    
Zn2   O12   2.010813 S    
C81   H61   1.106745 S    
O1    C1    1.307865 A    
C27   C29   1.405450 A    
C72   H24   1.113008 S    
C82   H62   1.105713 S    
C51   C53   1.389986 A    
C10   C14   1.386199 A    
C19   C23   1.425238 A    
O12   C8    1.295407 A    
C18   C74   1.506755 S    
C51   H79   1.082971 S    
C36   C40   1.421620 A    
C82   H63   1.110743 S    
C8    C47   1.431274 S    
C65   H3    1.104459 S    
C86   H74   1.105263 S    
O5    C1    1.288931 A    
C16   H34   1.083388 S    
C83   H66   1.109967 S    
C43   C83   1.526522 S    
C80   H56   1.097451 S    
C21   C77   1.495874 S    
Zn3   O13   1.969890 S    
O8    C4    1.292151 A    
Zn1   N3    2.035205 S    
Zn4   N2    2.033944 S    
C80   H58   1.110402 S    
C13   C19   1.380350 A    
C69   H15   1.110708 S    
C28   C48   1.422453 A    
C44   C84   1.523398 S    
C22   C78   1.510428 S    
O2    Zn1   2.004801 S    
O3    Zn2   1.969906 S    
C37   C65   1.525306 S    
C82   H64   1.110731 S    
C52   C54   1.389989 A    
O7    Zn4   2.014206 S    
C61   C63   1.420699 A    
C10   H28   1.082332 S    
C66   H6    1.109303 S    
N2    C62   1.386522 A    
C25   C45   1.439552 A    
C39   C67   1.525312 S    
C11   C15   1.371663 A    
C49   C59   1.397667 A    
O1    Zn1   1.969906 S    
C76   H46   1.106861 S    
C11   H29   1.065017 S    
C70   H18   1.110278 S    
C40   C68   1.517958 S    
O2    C2    1.291389 A    
C44   C48   1.408786 A    
C77   H49   1.102367 S    
C67   H9    1.104460 S    
C59   N1    1.372283 A    
C71   H19   1.104267 S    
C34   C38   1.421625 A    
C58   N4    1.389142 A    
C76   H45   1.107893 S    
C15   H33   1.084290 S    
C33   C37   1.400462 A    
C15   C17   1.380346 A    
C41   C81   1.526530 S    
C6    C45   1.431276 S    
Zn2   O11   2.014092 S    
C62   C86   1.500222 S    
C5    C46   1.452323 S    
O16   C8    1.294401 A    
C11   C31   1.406285 A    
C73   H36   1.107510 S    
O6    C2    1.292150 A    
C75   H41   1.108479 S    
C14   H32   1.083388 S    
C18   C22   1.416877 A    
C61   C85   1.500230 S    
Zn4   O15   1.969890 S    
C69   H13   1.110279 S    
C56   C72   1.510100 S    
C68   H11   1.100615 S    
Zn1   O9    2.014092 S    
C86   H76   1.109830 S    
O9    C5    1.286970 A    
C85   H73   1.107922 S    
C72   H23   1.109251 S    
Zn2   N4    2.035205 S    
C30   C34   1.406165 A    
C84   H68   1.105700 S    
C70   H16   1.108760 S    
C75   H42   1.111358 S    
C66   H5    1.100606 S    
C32   C36   1.406148 A    
C29   C33   1.408733 A    
C9    H27   1.065036 S    
C16   C18   1.394894 A    
C60   N2    1.372266 A    
C64   N4    1.355929 A    
C78   H51   1.104648 S    
C41   C45   1.422275 A    
C17   C21   1.425330 A    
C73   H35   1.111477 S    
O5    Zn3   2.014206 S    
C4    C35   1.427052 S    
O3    C3    1.307876 A    
C85   H71   1.109829 S    
C57   C59   1.432146 A    
C17   C73   1.510461 S    
C20   C24   1.416867 A    
C57   N3    1.389127 A    
O8    Zn4   2.010924 S    
C65   H2    1.108819 S    
O14   C6    1.294429 A    
C55   C57   1.431456 A    
C79   H53   1.103987 S    
C24   C80   1.510441 S    
C21   C25   1.453285 A    
C62   C64   1.420695 A    
C81   H60   1.109966 S    
C50   C52   1.388539 A    
C1    C34   1.449398 S    
C71   H20   1.109249 S    
C65   H1    1.109721 S    
C72   H22   1.104261 S    
C23   C27   1.453220 A    
C3    C36   1.449402 S    
C24   C28   1.433333 A    
C85   H72   1.105279 S    
