data_mof_unit_28925.cif
_audit_creation_date              2012-12-11T15:30:42-0500
_audit_creation_method            fapswitch 2.2
_symmetry_space_group_name_H-M    P1
_symmetry_Int_Tables_number       1
_space_group_crystal_system       triclinic
_cell_length_a                    6.962583
_cell_length_b                    20.481471
_cell_length_c                    24.408206
_cell_angle_alpha                 89.720148
_cell_angle_beta                  90.569141
_cell_angle_gamma                 89.389679
_cell_volume                      3480.29386102

loop_
_atom_site_label
_atom_site_type_symbol
_atom_type_description
_atom_site_fract_x
_atom_site_fract_y
_atom_site_fract_z
_atom_type_partial_charge
O1    O     O_R   0.507310 0.423620 0.460450 -0.538438
O2    O     O_R   0.170760 0.556060 0.437190 -0.537958
O3    O     O_R   0.004040 0.576380 0.539550 -0.535158
C1    C     C_R   0.338600 0.576272 0.421306 0.730682
O4    O     O_R   0.177350 0.422870 0.454070 -0.539962
O5    O     O_R   0.010680 0.442240 0.556560 -0.535503
C2    C     C_R   0.346237 0.398964 0.443452 0.686071
O6    O     O_R   0.500670 0.557760 0.443440 -0.529694
O7    O     O_3   0.340380 0.506510 0.533610 -0.366455
V1    V     V_3+5 0.064130 0.498790 0.493770 1.437957
O8    O     O_R   0.681170 0.443940 0.562810 -0.538062
C3    C     C_R   0.851150 0.423956 0.578647 0.723043
O9    O     O_R   0.674570 0.577130 0.545930 -0.535902
C4    C     C_R   0.842655 0.601073 0.556506 0.711271
V2    V     V_3+5 0.564560 0.501210 0.506230 1.447012
O10   O     O_3   0.838170 0.493490 0.466390 -0.368843
C5    C     C_R   0.976198 0.838460 0.910905 -0.041223
C6    C     C_R   0.847314 0.662691 0.587804 -0.092359
C7    C     C_R   0.035998 0.722229 0.905678 -0.160720
C8    C     C_R   0.028339 0.779494 0.936047 -0.169956
C9    C     C_R   0.932360 0.839908 0.854505 -0.211524
C10   C     C_R   0.942318 0.782136 0.822172 0.086457
C11   C     C_R   0.994762 0.723015 0.849263 0.136539
C12   C     C_R   0.904586 0.780893 0.764138 0.056980
C13   C     C_R   0.919585 0.720533 0.734549 0.057539
C14   C     C_R   0.971592 0.663478 0.764015 -0.180255
C15   C     C_R   0.007947 0.664893 0.820006 -0.195768
C16   C     C_R   0.853108 0.837970 0.734667 -0.184263
C17   C     C_R   0.817188 0.836572 0.678663 -0.190687
C18   C     C_R   0.830009 0.778422 0.649400 0.128237
C19   C     C_R   0.881677 0.719307 0.676506 0.089600
C20   C     C_R   0.789281 0.779339 0.592971 -0.196852
C21   C     C_R   0.796096 0.722086 0.562284 -0.041057
C22   C     C_R   0.890818 0.661537 0.644248 -0.222427
H1    H     H_    0.926964 0.614539 0.661690 0.104177
H2    H     H_    0.777696 0.881805 0.657986 0.124838
H3    H     H_    0.076797 0.677125 0.926318 0.112537
H4    H     H_    0.064276 0.777896 0.979334 0.103489
H5    H     H_    0.986379 0.616429 0.744994 0.132799
H6    H     H_    0.838807 0.885037 0.753690 0.125255
H7    H     H_    0.749638 0.824923 0.572783 0.117775
C23   C     C_3   0.785657 0.261984 0.804464 -0.352466
C24   C     C_3   0.131842 0.241734 0.781360 -0.169399
C25   C     C_3   0.114810 0.290418 0.731415 -0.169254
H8    H     H_    0.797256 0.361691 0.771525 0.160037
H9    H     H_    0.829252 0.288168 0.842373 0.141237
H10   H     H_    0.173405 0.268122 0.819426 0.103302
H11   H     H_    0.208430 0.273673 0.697361 0.102488
C26   C     C_1   0.865064 0.378721 0.624436 -0.176225
C27   C     C_3   0.935706 0.207799 0.791392 0.223159
C28   C     C_3   0.765772 0.311743 0.756433 -0.315087
C29   C     C_3   0.903087 0.293423 0.709045 0.218852
C30   C     C_3   0.849503 0.223732 0.689843 -0.356770
C31   C     C_3   0.873390 0.173503 0.737434 -0.321041
C32   C     C_1   0.880846 0.340513 0.662487 -0.073362
C33   C     C_1   0.948416 0.160054 0.837787 -0.062980
C34   C     C_1   0.960170 0.121513 0.875699 -0.174696
H12   H     H_    0.981043 0.135671 0.725835 0.151602
H13   H     H_    0.698248 0.223395 0.674629 0.160879
H14   H     H_    0.643806 0.239836 0.812648 0.172229
H15   H     H_    0.614547 0.312485 0.741194 0.157308
H16   H     H_    0.942288 0.208827 0.655104 0.142794
C35   C     C_3   0.591134 0.700242 0.265749 -0.325908
C36   C     C_3   0.236864 0.697344 0.245563 -0.335317
C37   C     C_3   0.264274 0.746677 0.197535 -0.323162
H17   H     H_    0.650982 0.722513 0.179524 0.138214
H18   H     H_    0.610566 0.649598 0.250295 0.135665
H19   H     H_    0.089914 0.703343 0.262495 0.139991
H20   H     H_    0.248809 0.646603 0.229769 0.137659
H21   H     H_    0.289341 0.719374 0.158909 0.137142
C38   C     C_1   0.476057 0.878421 0.124858 -0.193428
C39   C     C_3   0.388975 0.708036 0.291447 0.279256
C40   C     C_3   0.618489 0.749659 0.217769 -0.333074
C41   C     C_3   0.435736 0.792687 0.209154 0.290640
C42   C     C_3   0.395253 0.828871 0.263638 -0.335285
C43   C     C_3   0.368052 0.779475 0.311664 -0.316141
C44   C     C_1   0.460600 0.840053 0.162902 -0.099685
C45   C     C_1   0.363955 0.660579 0.337607 -0.077935
C46   C     C_1   0.348287 0.622011 0.375486 -0.162155
H22   H     H_    0.476394 0.789017 0.344407 0.161055
H23   H     H_    0.223696 0.787016 0.329906 0.143705
H24   H     H_    0.516422 0.861922 0.273563 0.141042
H25   H     H_    0.703978 0.708178 0.297573 0.149435
H26   H     H_    0.263751 0.859857 0.259041 0.139433
C47   C     C_R   0.472136 0.161739 0.088777 -0.041973
C48   C     C_R   0.352374 0.338290 0.411250 -0.040039
C49   C     C_R   0.533225 0.277460 0.094199 -0.163213
C50   C     C_R   0.524532 0.220245 0.063836 -0.168413
C51   C     C_R   0.428992 0.160692 0.144958 -0.215911
C52   C     C_R   0.440257 0.218374 0.177309 0.086576
C53   C     C_R   0.493066 0.277032 0.150439 0.141046
C54   C     C_R   0.403798 0.219919 0.235183 0.058389
C55   C     C_R   0.420828 0.280101 0.264851 0.058833
C56   C     C_R   0.473129 0.336698 0.235622 -0.189280
C57   C     C_R   0.507949 0.335008 0.179762 -0.203983
C58   C     C_R   0.351543 0.163318 0.264415 -0.188723
C59   C     C_R   0.316736 0.165007 0.320276 -0.202903
C60   C     C_R   0.331572 0.222988 0.349596 0.140528
C61   C     C_R   0.384342 0.281649 0.322723 0.086515
C62   C     C_R   0.291403 0.222561 0.405835 -0.163145
C63   C     C_R   0.300034 0.279779 0.436195 -0.169037
C64   C     C_R   0.395532 0.339336 0.355071 -0.216409
H27   H     H_    0.548315 0.379830 0.159259 0.120101
H28   H     H_    0.432357 0.386059 0.337929 0.091888
H29   H     H_    0.264413 0.278535 0.479301 0.104902
H30   H     H_    0.276411 0.120182 0.340781 0.121762
H31   H     H_    0.560137 0.221490 0.020728 0.106133
H32   H     H_    0.392098 0.113974 0.162095 0.092995
H33   H     H_    0.489202 0.383583 0.254743 0.120708
H34   H     H_    0.335519 0.116430 0.245297 0.121655
H35   H     H_    0.250367 0.177820 0.426310 0.112695
O11   O     O_R   0.323590 0.942280 0.056590 -0.535906
O12   O     O_R   0.647030 0.077140 0.045940 -0.538422
O13   O     O_R   0.813570 0.057750 0.943430 -0.534326
C65   C     C_R   0.478179 0.101069 0.056571 0.693130
O14   O     O_R   0.653510 0.943950 0.062820 -0.537868
O15   O     O_R   0.820100 0.923600 0.960440 -0.536296
C66   C     C_R   0.485656 0.923890 0.078824 0.722830
O16   O     O_R   0.317060 0.076430 0.039590 -0.536825
O17   O     O_3   0.483830 0.993520 0.966410 -0.364445
V3    V     V_3+5 0.760140 0.001200 0.006230 1.425085
O18   O     O_R   0.149560 0.922820 0.954030 -0.537468
C67   C     C_R   0.981385 0.899007 0.943307 0.693804
O19   O     O_R   0.143080 0.056020 0.937150 -0.535201
C68   C     C_R   0.973152 0.076043 0.921343 0.725925
V4    V     V_3+5 0.259690 0.998730 0.993720 1.431776
O20   O     O_3   0.986120 0.006480 0.033580 -0.368809
H36   H     H_    0.048045 0.619715 0.840677 0.130459
C69   C     C_1   0.282777 0.192185 0.771855 0.264395
N1    N     N_1   0.396906 0.151926 0.764519 -0.395682
C70   C     C_1   0.184943 0.355606 0.747161 0.268523
N2    N     N_1   0.240014 0.406642 0.759464 -0.364135
H37   H     H_    0.737946 0.147001 0.743401 0.191607
H38   H     H_    0.130143 0.776020 0.191586 0.136130
C71   C     C_1   0.749007 0.725259 0.504512 0.280971
N3    N     N_1   0.711233 0.727714 0.458256 -0.378804
H39   H     H_    0.744110 0.781124 0.226831 0.136664
H40   H     H_    0.574295 0.322198 0.073726 0.112379
H41   H     H_    0.895300 0.886920 0.837240 0.095867

loop_
_geom_bond_atom_site_label_1
_geom_bond_atom_site_label_2
_ccdc_geom_bond_type
C13   C19   A    
C18   C20   A    
C49   C50   A    
C55   C56   A    
C49   C53   A    
C40   C41   S    
C4    C6    S    
O2    C1    A    
C7    C8    A    
C28   H15   S    
C1    O6    A    
C59   C60   A    
C30   H13   S    
C71   N3    T    
C30   C31   S    
O17   V3    S    
C25   C70   S    
C17   H2    S    
C14   C15   A    
C27   C31   S    
C36   H19   S    
C16   C17   A    
V3    O20   S    
C34   C68   S    
C18   C19   A    
O17   V4    S    
C14   H5    S    
C2    C48   S    
C16   H6    S    
C37   H21   S    
C54   C58   A    
C5    C8    A    
C33   C34   T    
C22   H1    S    
C30   H16   S    
O15   V3    S    
C62   C63   A    
C39   C45   S    
C7    H3    S    
O13   V3    S    
O8    V2    S    
C5    C67   S    
C41   C44   S    
C20   H7    S    
O1    V2    S    
C11   C15   A    
O7    V1    S    
C55   C61   A    
O11   V4    S    
C37   H38   S    
C29   C32   S    
C39   C43   S    
C23   C28   S    
C25   C29   S    
O9    C4    A    
O5    C3    A    
C57   H27   S    
C3    C26   S    
C63   H29   S    
C35   H18   S    
C41   C42   S    
C28   C29   S    
C43   H22   S    
C24   C69   S    
C12   C13   A    
C1    C46   S    
O14   V3    S    
C23   H14   S    
O4    C2    A    
O13   C68   A    
C47   C51   A    
C45   C46   T    
C35   C40   S    
C13   C14   A    
C26   C32   T    
C31   H37   S    
C58   H34   S    
C27   C33   S    
C37   C41   S    
C35   H25   S    
O18   V4    S    
C7    C11   A    
C42   C43   S    
C17   C18   A    
C8    H4    S    
C15   H36   S    
C21   C71   S    
C52   C54   A    
C47   C65   S    
C58   C59   A    
C19   C22   A    
C42   H24   S    
C36   H20   S    
C64   H28   S    
C6    C22   A    
O3    C4    A    
C23   C27   S    
C59   H30   S    
O6    V2    S    
C60   C62   A    
O9    V2    S    
C24   C25   S    
C23   H9    S    
C10   C12   A    
C9    H41   S    
C49   H40   S    
C70   N2    T    
O2    V1    S    
C38   C44   T    
C29   C30   S    
O19   V4    S    
C69   N1    T    
C31   H12   S    
C47   C50   A    
C50   H31   S    
C51   C52   A    
C38   C66   S    
O1    C2    A    
C12   C16   A    
C43   H23   S    
O5    V1    S    
O8    C3    A    
C24   C27   S    
C56   H33   S    
C65   O16   A    
C20   C21   A    
O7    V2    S    
O4    V1    S    
O3    V1    S    
V1    O10   S    
C36   C37   S    
O11   C66   A    
H17   C40   S    
C52   C53   A    
C40   H39   S    
V4    O20   S    
C51   H32   S    
C54   C55   A    
O14   C66   A    
C36   C39   S    
O15   C67   A    
C56   C57   A    
C42   H26   S    
C6    C21   A    
C5    C9    A    
C53   C57   A    
O16   V4    S    
C25   H11   S    
C61   C64   A    
O12   V3    S    
C35   C39   S    
C62   H35   S    
C60   C61   A    
H8    C28   S    
C10   C11   A    
O18   C67   A    
C9    C10   A    
C48   C63   A    
C24   H10   S    
V2    O10   S    
O19   C68   A    
O12   C65   A    
C48   C64   A    
