data_mof_unit_25599.cif
_audit_creation_date              2012-12-10T21:00:51-0500
_audit_creation_method            fapswitch 2.2
_symmetry_space_group_name_H-M    P1
_symmetry_Int_Tables_number       1
_space_group_crystal_system       triclinic
_cell_length_a                    18.090501
_cell_length_b                    18.168975
_cell_length_c                    18.330806
_cell_angle_alpha                 119.933149
_cell_angle_beta                  90.059079
_cell_angle_gamma                 119.929038
_cell_volume                      4267.04389137

loop_
_atom_site_label
_atom_site_type_symbol
_atom_type_description
_atom_site_fract_x
_atom_site_fract_y
_atom_site_fract_z
_atom_type_partial_charge
C1    C     C_R   0.109148 0.220139 0.609627 0.782539
C2    C     C_3   0.450678 0.897510 0.947516 0.052602
C3    C     C_3   0.445276 0.031874 0.016526 -0.133735
C4    C     C_3   0.554748 0.968132 0.983484 -0.133676
C5    C     C_3   0.447624 0.526324 0.483972 -0.190848
C6    C     C_3   0.552364 0.473787 0.516024 -0.191299
C7    C     C_3   0.446070 0.430553 0.414200 -0.128456
C8    C     C_3   0.553917 0.569559 0.585787 -0.128908
C9    C     C_3   0.549908 0.499544 0.448561 0.068966
C10   C     C_3   0.450082 0.500558 0.551429 0.068866
C11   C     C_3   0.552250 0.595210 0.517339 -0.188046
C12   C     C_R   0.890775 0.779873 0.390385 0.782589
C13   C     C_3   0.447739 0.404895 0.482644 -0.188207
C14   C     C_R   0.995785 0.134757 0.821164 -0.146169
C15   C     C_R   0.003279 0.864815 0.178693 -0.148735
C16   C     C_R   0.393000 0.781233 0.888333 0.762151
C17   C     C_R   0.607004 0.218769 0.111671 0.762180
C18   C     C_R   0.005835 0.087735 0.737751 -0.140953
C19   C     C_R   0.993318 0.911878 0.262143 -0.140512
C20   C     C_R   0.982325 0.100587 0.673952 0.150377
C21   C     C_R   0.017364 0.899498 0.326088 0.148430
C22   C     C_R   0.947265 0.159700 0.694241 -0.130760
C23   C     C_3   0.926144 0.403026 0.442633 -0.185491
C24   C     C_R   0.052869 0.840839 0.305937 -0.128915
C25   C     C_R   0.937232 0.206472 0.777777 -0.117382
C26   C     C_R   0.062887 0.794121 0.222411 -0.108807
C27   C     C_R   0.961648 0.194120 0.841112 -0.106938
C28   C     C_R   0.037898 0.805934 0.158891 -0.105476
C29   C     C_R   0.944030 0.943679 0.531177 -0.260454
C30   C     C_R   0.055699 0.056346 0.468840 -0.260215
C31   C     C_R   0.948943 0.892250 0.445798 -0.044835
C32   C     C_R   0.050836 0.107781 0.554231 -0.044605
C33   C     C_R   0.005950 0.948889 0.414181 -0.007556
C34   C     C_3   0.074567 0.597484 0.557118 -0.185969
C35   C     C_R   0.993775 0.051161 0.585852 -0.007834
C36   C     C_R   0.554062 0.456032 0.709420 -0.130032
C37   C     C_R   0.446225 0.545330 0.291045 -0.130519
C38   C     C_R   0.517204 0.448552 0.774432 -0.120824
C39   C     C_R   0.483076 0.552265 0.225855 -0.119217
C40   C     C_R   0.109428 0.499252 0.888262 0.795087
C41   C     C_R   0.890673 0.500776 0.111825 0.791045
C42   C     C_R   0.568122 0.526323 0.865537 0.146371
C43   C     C_R   0.432056 0.474267 0.134812 0.146452
C44   C     C_R   0.656265 0.611455 0.890264 -0.149551
C45   C     C_3   0.448370 0.965977 0.922885 -0.181462
C46   C     C_R   0.343837 0.389436 0.110335 -0.148110
C47   C     C_R   0.692906 0.618363 0.825080 -0.144058
C48   C     C_R   0.307212 0.383072 0.175692 -0.141018
C49   C     C_R   0.642096 0.540449 0.734803 -0.124269
C50   C     C_R   0.358112 0.461224 0.265900 -0.125496
C51   C     C_R   0.583201 0.517603 0.993762 -0.253385
C52   C     C_R   0.416829 0.482547 0.006347 -0.252001
C53   C     C_R   0.551127 0.502201 0.057632 -0.037671
C54   C     C_R   0.448890 0.497910 0.942461 -0.037954
C55   C     C_R   0.467361 0.484939 0.065048 -0.012323
C56   C     C_3   0.551652 0.034030 0.077125 -0.181526
C57   C     C_R   0.532695 0.515280 0.935107 -0.012104
C58   C     C_R   0.045265 0.707248 0.869436 0.246155
C59   C     C_R   0.947502 0.286518 0.125748 0.246028
C60   C     C_R   0.052912 0.671372 0.919376 -0.184366
C61   C     C_R   0.942303 0.325461 0.077916 -0.169227
C62   C     C_R   0.988612 0.568357 0.890577 0.060037
C63   C     C_R   0.009461 0.428112 0.107615 0.033474
C64   C     C_R   0.392612 0.500057 0.607909 0.770010
C65   C     C_R   0.607387 0.499981 0.392089 0.770099
C66   C     C_R   0.915058 0.499903 0.810080 0.214168
C67   C     C_3   0.553138 0.038047 0.959577 -0.170314
C68   C     C_R   0.084242 0.493325 0.186508 0.194487
C69   C     C_R   0.906627 0.537595 0.762046 -0.215669
C70   C     C_R   0.089571 0.452175 0.232788 -0.187877
C71   C     C_R   0.970927 0.640000 0.791312 -0.176923
C72   C     C_R   0.022144 0.350265 0.202673 -0.190788
C73   C     C_R   0.946551 0.535543 0.003740 -0.287721
C74   C     C_R   0.053813 0.464454 0.996536 -0.283804
C75   C     C_R   0.947679 0.500097 0.055885 -0.053398
C76   C     C_R   0.052646 0.499919 0.944402 -0.042870
C77   C     C_R   0.002203 0.464189 0.052544 -0.000904
C78   C     C_3   0.446887 0.961960 0.040434 -0.170395
C79   C     C_R   0.997952 0.535447 0.947581 0.002771
C80   C     C_R   0.393800 0.498454 0.887166 0.791166
C81   C     C_R   0.606201 0.501590 0.112876 0.790785
C82   C     C_R   0.109103 0.500304 0.607690 0.776829
C83   C     C_R   0.891104 0.499882 0.392272 0.774748
C84   C     C_3   0.024561 0.437753 0.448209 -0.138028
C85   C     C_3   0.976147 0.562761 0.551550 -0.138677
C86   C     C_3   0.046578 0.534884 0.454066 -0.177593
C87   C     C_3   0.954104 0.465623 0.545640 -0.176151
C88   C     C_3   0.949003 0.500074 0.449258 0.066665
C89   C     C_3   0.549342 0.102495 0.052493 0.053024
C90   C     C_3   0.051652 0.500423 0.550534 0.066819
C91   C     C_3   0.115381 0.817386 0.900013 -0.449195
C92   C     C_3   0.168843 0.820408 0.835928 -0.829672
C93   C     C_3   0.874629 0.176582 0.093905 -0.446091
C94   C     C_3   0.823732 0.174230 0.160013 -0.831626
C95   C     C_3   0.845526 0.386816 0.772966 -0.437646
C96   C     C_3   0.858838 0.316360 0.691406 -0.896175
C97   C     C_3   0.155774 0.605007 0.218963 -0.404813
C98   C     C_3   0.231373 0.671357 0.307069 -0.917341
H1    H     H_    0.083606 0.563860 0.415950 0.130329
H2    H     H_    0.072359 0.831114 0.354687 0.099330
H3    H     H_    0.910740 0.252468 0.793653 0.135250
H4    H     H_    0.089843 0.748623 0.206746 0.114608
H5    H     H_    0.898896 0.899822 0.554550 0.164913
H6    H     H_    0.100821 0.100176 0.445441 0.165061
H7    H     H_    0.671305 0.545579 0.684701 0.118695
H8    H     H_    0.328906 0.456516 0.316125 0.118544
H9    H     H_    0.514779 0.395736 0.639377 0.118140
H10   H     H_    0.485571 0.605818 0.361039 0.118410
H11   H     H_    0.449798 0.381401 0.753817 0.095770
H12   H     H_    0.916990 0.436508 0.583545 0.131273
H13   H     H_    0.550530 0.619220 0.246283 0.095946
H14   H     H_    0.696886 0.671933 0.960051 0.126748
H15   H     H_    0.303125 0.328805 0.040602 0.126391
H16   H     H_    0.045208 0.386389 0.406431 0.134530
H17   H     H_    0.955492 0.614142 0.593245 0.134404
H18   H     H_    0.761035 0.683680 0.844565 0.125566
H19   H     H_    0.239020 0.318001 0.156390 0.125809
H20   H     H_    0.646866 0.528079 0.987598 0.160933
H21   H     H_    0.353180 0.472117 0.012521 0.161887
H22   H     H_    0.962802 0.666878 0.752859 0.134329
H23   H     H_    0.954118 0.230476 0.905626 0.121770
H24   H     H_    0.028298 0.320931 0.239561 0.135364
H25   H     H_    0.109908 0.723072 0.980183 0.123070
H26   H     H_    0.885130 0.276399 0.017859 0.122412
H27   H     H_    0.849877 0.487173 0.701354 0.140644
H28   H     H_    0.145632 0.497757 0.292475 0.151168
H29   H     H_    0.903766 0.561582 0.005108 0.172358
H30   H     H_    0.096240 0.437884 0.994726 0.171496
H31   H     H_    0.864398 0.323232 0.394692 0.128136
H32   H     H_    0.136334 0.677260 0.605039 0.127863
H33   H     H_    0.597424 0.070467 0.926823 0.125969
H34   H     H_    0.045355 0.769536 0.094355 0.120276
H35   H     H_    0.402615 0.929547 0.073199 0.126690
H36   H     H_    0.405318 0.936881 0.858833 0.126640
H37   H     H_    0.594683 0.063125 0.141187 0.126587
H38   H     H_    0.400387 0.058665 0.030424 0.141238
H39   H     H_    0.599647 0.941355 0.969591 0.141067
H40   H     H_    0.402751 0.373070 0.342914 0.149072
H41   H     H_    0.597225 0.627109 0.657073 0.149054
H42   H     H_    0.404016 0.548827 0.473171 0.120872
H43   H     H_    0.595984 0.451323 0.526885 0.120863
H44   H     H_    0.595994 0.673100 0.530280 0.126930
H45   H     H_    0.014542 0.125282 0.870388 0.122715
H46   H     H_    0.403996 0.327003 0.469700 0.126949
H47   H     H_    0.123832 0.782390 0.769092 0.244227
H48   H     H_    0.222477 0.902411 0.862264 0.233681
H49   H     H_    0.201317 0.780227 0.829112 0.294851
H50   H     H_    0.081533 0.855742 0.904611 0.195169
H51   H     H_    0.163736 0.862954 0.967587 0.199312
H52   H     H_    0.767421 0.092659 0.132254 0.234077
H53   H     H_    0.869470 0.207432 0.224463 0.242619
H54   H     H_    0.795097 0.219293 0.172213 0.296077
H55   H     H_    0.824989 0.134352 0.028105 0.198969
H56   H     H_    0.984089 0.873887 0.129335 0.122824
H57   H     H_    0.905701 0.134396 0.084947 0.195274
H58   H     H_    0.846435 0.322657 0.636107 0.252744
H59   H     H_    0.928815 0.338037 0.708675 0.252614
H60   H     H_    0.810428 0.234321 0.668140 0.246326
H61   H     H_    0.849057 0.370115 0.822872 0.211015
H62   H     H_    0.776490 0.366987 0.754001 0.204330
H63   H     H_    0.202914 0.676319 0.361722 0.252927
H64   H     H_    0.271038 0.638738 0.300545 0.264296
H65   H     H_    0.277966 0.751297 0.324745 0.253972
H66   H     H_    0.187573 0.604430 0.167048 0.210186
H67   H     H_    0.032707 0.042188 0.723124 0.123993
H68   H     H_    0.121680 0.644014 0.227469 0.195968
H69   H     H_    0.966087 0.957066 0.276681 0.124373
H70   H     H_    0.928145 0.169692 0.645554 0.102511
O1    O     O_3   0.251620 0.500000 0.748430 -0.477353
O2    O     O_R   0.570330 0.268390 0.136490 -0.641212
O3    O     O_R   0.134680 0.268390 0.572240 -0.649286
O4    O     O_R   0.865320 0.731610 0.427760 -0.649538
O5    O     O_R   0.306670 0.731630 0.863510 -0.653701
O6    O     O_R   0.693330 0.268370 0.136490 -0.653580
O7    O     O_R   0.135450 0.439270 0.865360 -0.639886
O8    O     O_R   0.864550 0.560730 0.134640 -0.638275
O9    O     O_R   0.429670 0.560710 0.692610 -0.640192
O10   O     O_R   0.570330 0.439290 0.307390 -0.640351
O11   O     O_R   0.308540 0.439240 0.865360 -0.649979
O12   O     O_3   0.748380 0.500000 0.251570 -0.476875
O13   O     O_R   0.691460 0.560760 0.134640 -0.649960
O14   O     O_R   0.133580 0.439310 0.571150 -0.650076
O15   O     O_R   0.866420 0.560690 0.428850 -0.649711
O16   O     O_R   0.430770 0.560690 0.864590 -0.633994
O17   O     O_R   0.569230 0.439310 0.135410 -0.634407
O18   O     O_R   0.133580 0.560760 0.692610 -0.637509
O19   O     O_R   0.866420 0.439240 0.307390 -0.639903
O20   O     O_R   0.134680 0.560740 0.864590 -0.636707
O21   O     O_R   0.865320 0.439260 0.135410 -0.638119
O22   O     O_R   0.306670 0.439270 0.571150 -0.645936
O23   O     O_R   0.693330 0.560730 0.428850 -0.645890
O24   O     O_R   0.135450 0.268370 0.694460 -0.630830
O25   O     O_R   0.864550 0.731630 0.305540 -0.630779
O26   O     O_R   0.429670 0.731610 0.863510 -0.641140
Zn1   Zn    Zn3+2 0.207400 0.586780 0.791530 0.957807
Zn2   Zn    Zn3+2 0.792600 0.413220 0.208470 0.956292
Zn3   Zn    Zn3+2 0.208510 0.413230 0.792630 0.966820
Zn4   Zn    Zn3+2 0.791490 0.586770 0.207370 0.967461
Zn5   Zn    Zn3+2 0.383150 0.586740 0.791530 0.968642
Zn6   Zn    Zn3+2 0.616850 0.413260 0.208470 0.968433
Zn7   Zn    Zn3+2 0.207400 0.413250 0.618010 0.949868
Zn8   Zn    Zn3+2 0.792600 0.586750 0.381990 0.950110

loop_
_geom_bond_atom_site_label_1
_geom_bond_atom_site_label_2
_ccdc_geom_bond_type
C16   O5    A    
C96   H60   S    
O6    Zn2   S    
C93   C94   S    
C64   O9    A    
O19   Zn2   S    
O14   Zn7   S    
C12   O25   A    
C14   C18   A    
C95   C96   S    
C84   C90   S    
C76   C79   A    
C81   O13   A    
C56   H37   S    
C6    C9    S    
O2    Zn6   S    
C97   C98   S    
C27   H23   S    
C12   O4    A    
C87   H12   S    
C17   O6    A    
C15   C19   A    
C29   H5    S    
C45   H36   S    
C74   C76   A    
C71   H22   S    
C82   O18   A    
C8    H41   S    
C95   H61   S    
C53   C81   S    
C19   C21   A    
C84   C86   S    
C5    C11   S    
O12   Zn8   S    
C86   C88   S    
C58   C71   A    
C66   C69   A    
C21   C33   S    
C65   O10   A    
C58   C60   A    
C97   H68   S    
C67   C89   S    
C51   H20   S    
C56   C78   S    
C23   H31   S    
C60   C62   A    
C3    H38   S    
C34   C86   S    
C13   H46   S    
C61   C63   A    
C68   C97   S    
O7    Zn3   S    
C15   H56   S    
C4    H39   S    
C63   C68   A    
C20   C35   S    
C74   H30   S    
C65   O23   A    
O20   Zn1   S    
C74   C77   A    
C45   C67   S    
C31   C33   A    
C78   H35   S    
C51   C57   A    
O23   Zn8   S    
C14   C27   A    
C2    C16   S    
C58   C91   S    
O12   Zn2   S    
C52   C55   A    
C59   C72   A    
O1    Zn5   S    
C19   H69   S    
C22   H70   S    
C70   H28   S    
C48   C50   A    
C83   C88   S    
C92   H47   S    
C69   H27   S    
C30   C33   A    
C16   O26   A    
C23   C87   S    
C4    C56   S    
C92   H49   S    
C73   C75   A    
C83   O19   A    
C42   C44   A    
O13   Zn4   S    
C42   C57   S    
C81   O17   A    
C91   H50   S    
C98   H64   S    
C18   H67   S    
C52   C54   A    
C98   H65   S    
O1    Zn3   S    
C54   C80   S    
C53   C55   A    
C2    C45   S    
C47   H18   S    
C37   C39   A    
C46   C48   A    
C59   C61   A    
C69   C71   A    
C23   C84   S    
C62   C66   A    
C85   C87   S    
C92   H48   S    
C95   H62   S    
C80   O11   A    
O18   Zn1   S    
C85   H17   S    
C17   C89   S    
C37   H10   S    
O1    Zn1   S    
O8    Zn4   S    
C91   C92   S    
C91   H51   S    
C17   O2    A    
C39   C43   A    
O11   Zn3   S    
C7    H40   S    
C94   H53   S    
C73   H29   S    
C22   C25   A    
C1    C32   S    
C40   C76   S    
C28   H34   S    
C34   C85   S    
O3    Zn7   S    
C60   H25   S    
C2    C4    S    
C32   C35   A    
O5    Zn1   S    
O12   Zn6   S    
C41   C75   S    
C9    C11   S    
C62   C79   S    
C64   O22   A    
C34   C90   S    
C93   H57   S    
O16   Zn5   S    
C73   C79   A    
C83   O15   A    
C39   H13   S    
O24   Zn3   S    
C6    H43   S    
O4    Zn8   S    
C86   H1    S    
C75   C77   A    
C6    C8    S    
C43   C55   S    
C56   C89   S    
C41   O8    A    
C20   C22   A    
C23   C88   S    
C61   H26   S    
C12   C31   S    
C21   C24   A    
C94   H52   S    
C44   H14   S    
C98   H63   S    
C2    C78   S    
C5    H42   S    
C5    C7    S    
C63   C77   S    
C85   C88   S    
C7    C9    S    
O10   Zn6   S    
C14   H45   S    
C82   O14   A    
C1    O24   A    
C84   H16   S    
C46   H15   S    
C72   H24   S    
C11   H44   S    
C24   H2    S    
O15   Zn8   S    
C26   C28   A    
C8    C10   S    
C67   H33   S    
C24   C26   A    
C38   H11   S    
C10   C13   S    
C4    C67   S    
C49   H7    S    
C44   C47   A    
O22   Zn7   S    
C38   C42   A    
C48   H19   S    
C40   O20   A    
O26   Zn5   S    
C25   C27   A    
C29   C35   A    
C10   C64   S    
C82   C90   S    
C41   O21   A    
C3    C89   S    
C97   H66   S    
C36   C38   A    
C3    C45   S    
C5    C10   S    
C29   C31   A    
C47   C49   A    
C26   H4    S    
C6    C13   S    
C30   C32   A    
C37   C50   A    
O21   Zn2   S    
C25   H3    S    
C15   C28   A    
C96   H58   S    
C8    C11   S    
C93   H55   S    
C1    O3    A    
C96   H59   S    
C18   C20   A    
C80   O16   A    
O17   Zn6   S    
C43   C46   A    
C9    C65   S    
C40   O7    A    
O12   Zn4   S    
O1    Zn7   S    
C52   H21   S    
C7    C13   S    
C34   H32   S    
C68   C70   A    
O9    Zn5   S    
C87   C90   S    
C30   H6    S    
C50   H8    S    
C70   C72   A    
C59   C93   S    
C51   C53   A    
C3    C78   S    
C94   H54   S    
C36   C49   A    
O25   Zn4   S    
C66   C95   S    
C36   H9    S    
C54   C57   A    
