data_mof_unit_15907.cif
_audit_creation_date              2013-03-05T16:11:40-0500
_audit_creation_method            fapswitch 2.2
_symmetry_space_group_name_H-M    P1
_symmetry_Int_Tables_number       1
_space_group_crystal_system       triclinic
_cell_length_a                    11.019285
_cell_length_b                    9.511546
_cell_length_c                    19.381053
_cell_angle_alpha                 88.631469
_cell_angle_beta                  87.652459
_cell_angle_gamma                 91.747159
_cell_volume                      2028.04580423

loop_
_atom_site_label
_atom_site_type_symbol
_atom_site_description
_atom_site_fract_x
_atom_site_fract_y
_atom_site_fract_z
_atom_type_partial_charge
O1    O     O_R   0.317570 0.620260 0.500040 -0.619240
O2    O     O_R   0.317570 0.379740 0.500040 -0.558039
C1    C     C_R   0.260488 0.498208 0.499816 0.865058
O3    O     O_R   0.499870 0.620300 0.400170 -0.568083
O4    O     O_R   0.499870 0.379700 0.400170 -0.605591
C2    C     C_R   0.498636 0.501381 0.367625 0.870862
Cu1   Cu    Cu3+1 0.499860 0.642410 0.500030 0.969774
Cu2   Cu    Cu3+1 0.499860 0.357590 0.500030 0.942415
O5    O     O_R   0.682190 0.620260 0.500020 -0.521078
O6    O     O_R   0.682190 0.379740 0.500020 -0.594616
O7    O     O_R   0.499890 0.620220 0.599880 -0.566361
O8    O     O_R   0.499890 0.379780 0.599880 -0.629086
C3    C     C_R   0.739362 0.501935 0.507593 0.869918
C4    C     C_R   0.499942 0.498030 0.632715 0.808757
C5    C     C_R   0.480333 0.632342 0.255286 -0.147268
C6    C     C_R   0.492034 0.378700 0.255141 -0.155863
H1    H     H_    0.472747 0.729960 0.282059 0.125050
H2    H     H_    0.496157 0.277741 0.281618 0.123983
C7    C     C_R   0.476147 0.635595 0.183504 -0.156430
C8    C     C_R   0.486061 0.381626 0.183470 -0.146860
H3    H     H_    0.468448 0.735988 0.156736 0.152665
H4    H     H_    0.487955 0.283105 0.156623 0.152828
C9    C     C_R   0.479688 0.510269 0.146958 0.054303
C10   C     C_R   0.491631 0.504347 0.291748 0.007342
N1    N     N_R   0.445628 0.395173 0.037295 -0.230668
N2    N     N_R   0.508265 0.632261 0.033747 -0.233754
N3    N     N_R   0.445914 0.396067 0.968733 -0.234520
N4    N     N_R   0.509264 0.632915 0.965020 -0.226627
C11   C     C_R   0.478092 0.514640 0.931221 0.431954
C12   C     C_R   0.476946 0.513104 0.071137 0.410570
C13   C     C_R   0.554929 0.610258 0.816043 -0.235453
C14   C     C_R   0.421037 0.404843 0.821964 -0.119571
H5    H     H_    0.606722 0.690575 0.841911 0.152285
H6    H     H_    0.366810 0.327342 0.852563 0.193125
C15   C     C_R   0.568318 0.600002 0.744207 0.030677
C16   C     C_R   0.429776 0.393237 0.750123 -0.026405
C17   C     C_R   0.501475 0.494429 0.709584 -0.136810
C18   C     C_R   0.482633 0.512313 0.855206 0.001776
C19   C     C_3   0.079716 0.653628 0.504409 -0.067971
C20   C     C_3   0.069723 0.419946 0.571391 -0.091382
H7    H     H_    0.129248 0.707291 0.545979 0.142193
H8    H     H_    0.089957 0.495748 0.612778 0.130557
C21   C     C_3   0.943932 0.651946 0.528300 -0.042483
C22   C     C_3   0.926143 0.405751 0.571485 -0.025489
H9    H     H_    0.946351 0.657797 0.585736 0.154798
H10   H     H_    0.892996 0.449198 0.621572 0.169693
H11   H     H_    0.903789 0.532704 0.401162 0.168250
H12   H     H_    0.875952 0.355328 0.425021 0.200100
C23   C     C_3   0.067334 0.423536 0.436300 0.031253
C24   C     C_3   0.123277 0.495739 0.501533 -0.014663
C25   C     C_3   0.879132 0.504166 0.511656 0.060602
C26   C     C_3   0.927627 0.451210 0.440033 -0.545597
C27   C     C_3   0.587500 0.082939 0.549308 -0.199752
C28   C     C_3   0.599722 0.920635 0.540349 -0.189462
H13   H     H_    0.561481 0.105373 0.603941 0.125504
H14   H     H_    0.607370 0.866680 0.591222 0.164829
H15   H     H_    0.676069 0.132563 0.538991 0.201589
H16   H     H_    0.683482 0.911148 0.509236 0.210804
H17   H     H_    0.351651 0.121057 0.576210 0.147279
H18   H     H_    0.375957 0.878413 0.588669 0.156696
C29   C     C_3   0.380847 0.078013 0.525891 -0.242777
C30   C     C_3   0.385646 0.911648 0.533209 -0.241090
C31   C     C_3   0.525917 0.089810 0.430765 -0.041299
C32   C     C_3   0.510148 0.923187 0.429227 -0.014416
N5    N     N_3   0.500250 0.143650 0.501520 -0.143667
N6    N     N_3   0.500250 0.856350 0.501520 -0.133668
H19   H     H_    0.456076 0.130704 0.396289 0.111149
H20   H     H_    0.422889 0.898886 0.404110 0.063822
H21   H     H_    0.309661 0.105624 0.489587 0.197782
H22   H     H_    0.305511 0.867200 0.508007 0.165669
C33   C     C_2   0.647858 0.147981 0.399398 0.372445
H23   H     H_    0.650215 0.219617 0.355113 0.061398
O9    O     O_2   0.744700 0.110437 0.420731 -0.601243
C34   C     C_2   0.604482 0.867148 0.378436 0.448586
H24   H     H_    0.600763 0.898641 0.324393 -0.003239
O10   O     O_2   0.686677 0.793712 0.395689 -0.538975
C35   C     C_2   0.661161 0.694826 0.708727 0.318054
H25   H     H_    0.681023 0.797960 0.729098 0.066736
O11   O     O_2   0.721694 0.655541 0.659174 -0.608114
C36   C     C_2   0.364847 0.271211 0.720830 0.297315
H26   H     H_    0.401828 0.218841 0.676488 0.089741
O12   O     O_2   0.270182 0.223453 0.748315 -0.551168
C37   C     C_3   0.108188 0.747235 0.438173 -0.769830
H27   H     H_    0.039344 0.730822 0.398806 0.237863
H28   H     H_    0.108558 0.860315 0.451056 0.220754
H29   H     H_    0.199062 0.729567 0.414169 0.253488
C38   C     C_3   0.133447 0.288830 0.598797 -0.793808
H30   H     H_    0.129511 0.199421 0.563527 0.226826
H31   H     H_    0.228951 0.315466 0.609449 0.230073
H32   H     H_    0.092152 0.254894 0.649920 0.261638
C39   C     C_3   0.884722 0.790392 0.514343 -0.768648
H33   H     H_    0.946340 0.880943 0.525446 0.210203
H34   H     H_    0.858775 0.799743 0.460331 0.308896
H35   H     H_    0.810074 0.796190 0.553431 0.250391
C40   C     C_3   0.870818 0.255651 0.576051 -0.839063
H36   H     H_    0.863083 0.210178 0.524729 0.265671
H37   H     H_    0.919655 0.181875 0.608949 0.236037
H38   H     H_    0.780048 0.261162 0.602582 0.221924
C41   C     C_2   0.120060 0.481818 0.366768 0.398470
H39   H     H_    0.060787 0.511354 0.325803 0.067776
O13   O     O_2   0.229411 0.489196 0.354110 -0.549854
C42   C     C_2   0.087799 0.265390 0.435636 0.376311
H40   H     H_    0.025619 0.191715 0.462714 0.089324
O14   O     O_2   0.174514 0.217007 0.403926 -0.545851

loop_
_geom_bond_atom_site_label_1
_geom_bond_atom_site_label_2
_geom_bond_distance
_ccdc_geom_bond_type
C38   H30   1.104678 S    
C31   N5    1.494429 S    
N3    C11   1.357044 A    
C40   H36   1.099536 S    
C40   H38   1.109021 S    
Cu1   Cu2   2.709078 S    
C19   H7    1.116344 S    
C27   C28   1.566856 S    
C5    C7    1.393496 A    
C34   O10   1.213380 D    
C14   C16   1.398982 A    
C20   C38   1.543641 S    
H18   C30   1.113109 S    
N4    C11   1.357466 A    
C7    H3    1.083070 S    
O4    C2    1.305507 A    
O7    C4    1.311666 A    
C39   H34   1.098673 S    
C30   H22   1.104308 S    
Cu1   O5    2.026532 S    
O5    C3    1.314529 A    
C3    C25   1.544923 S    
C37   H27   1.108089 S    
C11   C18   1.472778 S    
C13   H5    1.084355 S    
C14   C18   1.394860 A    
C27   N5    1.482188 S    
C6    C8    1.392970 A    
C20   H8    1.115986 S    
Cu2   N5    2.034553 S    
C6    C10   1.404350 A    
C42   H40   1.076874 S    
O3    Cu1   1.951767 S    
C1    C24   1.510422 S    
C22   H10   1.116168 S    
Cu1   O7    1.941671 S    
C31   H19   1.112657 S    
C27   H13   1.112886 S    
C28   H14   1.108098 S    
H17   C29   1.106159 S    
C34   H24   1.085231 S    
C30   N6    1.497008 S    
C25   C26   1.566904 S    
C9    C12   1.470667 S    
O3    C2    1.308151 A    
C16   C36   1.481700 S    
C39   H33   1.110988 S    
C33   O9    1.220481 D    
C27   H15   1.080139 S    
C19   C21   1.547520 S    
C35   H25   1.085605 S    
C15   C35   1.479681 S    
C21   C39   1.510884 S    
O1    C1    1.303570 A    
C32   N6    1.523103 S    
C7    C9    1.401812 A    
C23   C41   1.530180 S    
C41   H39   1.085771 S    
C8    C9    1.403855 A    
C20   C22   1.583716 S    
Cu2   O8    1.951691 S    
C23   C26   1.568757 S    
C2    C10   1.475399 S    
C19   C24   1.592036 S    
C35   O11   1.219334 D    
C42   O14   1.222610 D    
C21   H9    1.117259 S    
C22   C25   1.586231 S    
C36   O12   1.221580 D    
C5    C10   1.404418 A    
C37   H28   1.109893 S    
C8    H4    1.082991 S    
N2    C12   1.358371 A    
C38   H31   1.103793 S    
C13   C15   1.400057 A    
C32   H20   1.115841 S    
C23   C42   1.528081 S    
C28   H16   1.088909 S    
C29   H21   1.108284 S    
N1    C12   1.355574 A    
C5    H1    1.078214 S    
C16   C17   1.426376 A    
C15   C17   1.424338 A    
O1    Cu1   2.013318 S    
Cu2   O6    2.013754 S    
O2    Cu2   2.026096 S    
C31   C33   1.533924 S    
C36   H26   1.075585 S    
O6    C3    1.319232 A    
C39   H35   1.098764 S    
O4    Cu2   1.941780 S    
C40   H37   1.103777 S    
H11   C26   1.112704 S    
C28   N6    1.479980 S    
N1    N3    1.328510 A    
N2    N4    1.331478 A    
C13   C18   1.396460 A    
O2    C1    1.307126 A    
O8    C4    1.305448 A    
C19   C37   1.560276 S    
C33   H23   1.082011 S    
C22   C40   1.534355 S    
Cu1   N6    2.035671 S    
C21   C25   1.602813 S    
C20   C24   1.600937 S    
C29   C30   1.588037 S    
C31   C32   1.590195 S    
C29   N5    1.492962 S    
H12   C26   1.111396 S    
C37   H29   1.105991 S    
C6    H2    1.080989 S    
C23   C24   1.590469 S    
C38   H32   1.109860 S    
C32   C34   1.519440 S    
C41   O13   1.219367 D    
C14   H6    1.084141 S    
C4    C17   1.490179 S    
