data_mof_unit_55913.cif
_audit_creation_date              2012-12-10T17:34:56-0500
_audit_creation_method            fapswitch 2.2
_symmetry_space_group_name_H-M    P1
_symmetry_Int_Tables_number       1
_space_group_crystal_system       triclinic
_cell_length_a                    12.048414
_cell_length_b                    12.782877
_cell_length_c                    15.739089
_cell_angle_alpha                 90.565751
_cell_angle_beta                  87.031539
_cell_angle_gamma                 94.917949
_cell_volume                      2411.82983885

loop_
_atom_site_label
_atom_site_type_symbol
_atom_type_description
_atom_site_fract_x
_atom_site_fract_y
_atom_site_fract_z
_atom_type_partial_charge
C1    C     C_R   0.523645 0.700528 0.499247 0.931742
C2    C     C_3   0.415181 0.573609 0.052641 -0.390558
C3    C     C_3   0.498434 0.496882 0.083158 0.103250
C4    C     C_3   0.456935 0.384446 0.051559 -0.267542
C5    C     C_3   0.454962 0.384531 0.952189 -0.242036
C6    C     C_1   0.496858 0.499003 0.174811 -0.054906
C7    C     C_1   0.501952 0.497313 0.825296 -0.079110
C8    C     C_1   0.502228 0.498782 0.750089 -0.123819
C9    C     C_R   0.461359 0.188750 0.493290 -0.106487
C10   C     C_R   0.542478 0.813464 0.498711 -0.208145
C11   C     C_R   0.615928 0.972766 0.567644 -0.082740
C12   C     C_R   0.500799 0.500209 0.661446 0.977146
C13   C     C_R   0.616083 0.864101 0.556034 -0.108097
C14   C     C_R   0.482908 0.870657 0.442961 -0.068464
C15   C     C_R   0.487770 0.980473 0.451561 0.035404
C16   C     C_R   0.538655 0.027096 0.524081 0.020398
C17   C     C_R   0.511225 0.127287 0.550542 -0.076064
C18   C     C_R   0.426921 0.149205 0.415571 -0.200709
C19   C     C_R   0.439632 0.045550 0.393206 0.004377
C20   C     C_R   0.946218 0.398850 0.418235 -0.125601
C21   C     C_R   0.831753 0.409818 0.428891 0.033412
C22   C     C_R   0.861961 0.543836 0.531874 -0.001807
C23   C     C_R   0.476693 0.299955 0.501313 0.919215
C24   C     C_R   0.978017 0.536162 0.525090 0.077075
C25   C     C_R   0.022416 0.461328 0.468868 -0.052371
C26   C     C_R   0.140067 0.452349 0.467730 0.057490
C27   C     C_R   0.164594 0.593005 0.567217 0.041724
C28   C     C_R   0.049654 0.601779 0.573802 -0.263275
C29   C     C_R   0.499192 0.500004 0.338585 0.934305
C30   C     C_3   0.427927 0.584253 0.954646 -0.064883
C31   C     C_3   0.620248 0.524149 0.946223 -0.460065
C32   C     C_3   0.619366 0.528679 0.044813 -0.180892
C33   C     C_1   0.497268 0.499809 0.249991 -0.045311
C34   C     C_3   0.499886 0.495932 0.916885 0.200491
H1    H     H_    0.429529 0.652192 0.083025 0.224528
H2    H     H_    0.328420 0.544398 0.073065 0.191502
H3    H     H_    0.397569 0.201823 0.369623 0.161044
H4    H     H_    0.479095 0.660083 0.942933 0.210050
H5    H     H_    0.219581 0.644448 0.604326 0.147491
H6    H     H_    0.016961 0.659937 0.616569 0.152767
H7    H     H_    0.773272 0.363128 0.390947 0.149469
H8    H     H_    0.826707 0.599875 0.575162 0.140339
H9    H     H_    0.678338 0.466934 0.921792 0.240761
H10   H     H_    0.654613 0.600517 0.918006 0.198385
H11   H     H_    0.675614 0.470518 0.065395 0.200820
H12   H     H_    0.365946 0.372252 0.938265 0.130442
H13   H     H_    0.368308 0.369890 0.075826 0.156986
N1    N     N_R   0.207800 0.519340 0.515510 -0.145793
N2    N     N_R   0.792190 0.480660 0.484490 -0.114152
O1    O     O_R   0.421690 0.658830 0.504140 -0.620613
O2    O     O_R   0.609320 0.646410 0.494190 -0.605671
O3    O     O_R   0.406150 0.506210 0.627840 -0.638692
O4    O     O_R   0.593770 0.493790 0.617880 -0.574086
O5    O     O_R   0.390680 0.353590 0.505810 -0.612589
O6    O     O_R   0.578310 0.341170 0.495860 -0.583673
O7    O     O_R   0.406230 0.506210 0.382120 -0.573140
O8    O     O_R   0.593850 0.493790 0.372160 -0.628228
Zn1   Zn    Zn3+2 0.374720 0.508290 0.506640 1.009463
Zn2   Zn    Zn3+2 0.625280 0.491710 0.493360 1.022775
C35   C     C_3   0.317417 0.604464 0.912744 -0.420971
C36   C     C_3   0.229831 0.510544 0.906512 -0.337817
C37   C     C_3   0.119133 0.545565 0.879075 -0.800956
H14   H     H_    0.084825 0.600234 0.926958 0.272372
H15   H     H_    0.130783 0.585224 0.816340 0.255965
H16   H     H_    0.058071 0.476002 0.873344 0.261642
H17   H     H_    0.258895 0.454456 0.857630 0.235252
H18   H     H_    0.214913 0.470528 0.968841 0.233409
H19   H     H_    0.279443 0.668416 0.949440 0.231423
H20   H     H_    0.337866 0.635607 0.847527 0.216763
C38   C     C_2   0.514678 0.295691 0.089709 0.946767
O9    O     O_2   0.614838 0.289272 0.077379 -0.576330
O10   O     O_R   0.451470 0.220956 0.140289 -0.779119
H21   H     H_    0.498232 0.166045 0.162665 0.361179
C39   C     C_2   0.520812 0.162816 0.640680 0.908424
O11   O     O_2   0.485772 0.103431 0.698307 -0.556800
O12   O     O_R   0.570730 0.262354 0.659778 -0.786171
H22   H     H_    0.573686 0.275786 0.723170 0.350298
C40   C     C_2   0.701208 0.030845 0.619823 0.975555
O13   O     O_2   0.718450 0.000316 0.690978 -0.572951
O14   O     O_R   0.760139 0.122034 0.587365 -0.758042
H23   H     H_    0.814672 0.155585 0.628626 0.362100
C41   C     C_2   0.419616 0.015377 0.303666 0.911219
O15   O     O_2   0.336572 0.041083 0.270439 -0.553880
O16   O     O_R   0.498140 0.961417 0.256274 -0.782037
H24   H     H_    0.475689 0.946125 0.195910 0.362828
C42   C     C_2   0.689138 0.803697 0.606790 0.980510
O17   O     O_2   0.647926 0.737549 0.657358 -0.643199
O18   O     O_R   0.804945 0.824391 0.597595 -0.765137
H25   H     H_    0.845762 0.780627 0.637113 0.335467
C43   C     C_2   0.405627 0.813748 0.383834 0.953669
O19   O     O_2   0.440570 0.749949 0.332888 -0.608191
O20   O     O_R   0.292788 0.832350 0.387812 -0.769780
H26   H     H_    0.248620 0.788624 0.345025 0.363596
C44   C     C_2   0.189640 0.365433 0.421911 0.954374
O21   O     O_2   0.183591 0.278651 0.454648 -0.584757
O22   O     O_R   0.236481 0.380356 0.339446 -0.763200
H27   H     H_    0.263985 0.313807 0.313553 0.346799
C45   C     C_2   0.979390 0.327517 0.349125 0.922278
O23   O     O_2   0.959639 0.232643 0.357374 -0.545512
O24   O     O_R   0.027695 0.369246 0.272831 -0.752162
H28   H     H_    0.045247 0.312799 0.229696 0.364842
C46   C     C_2   0.668624 0.634525 0.076389 0.938598
O25   O     O_2   0.746325 0.638298 0.123666 -0.583709
O26   O     O_R   0.626922 0.727476 0.051137 -0.807033
H29   H     H_    0.667054 0.792253 0.076810 0.372275
C47   C     C_2   0.506684 0.292623 0.907479 0.934786
O27   O     O_2   0.446031 0.224258 0.873993 -0.576676
O28   O     O_R   0.621881 0.285289 0.903901 -0.770228
H30   H     H_    0.644377 0.220250 0.872340 0.368937

loop_
_geom_bond_atom_site_label_1
_geom_bond_atom_site_label_2
_ccdc_geom_bond_type
C2    H1    S    
C26   C44   S    
O6    Zn2   S    
C32   H11   S    
C3    C6    S    
C4    C38   S    
O4    Zn2   S    
C7    C8    T    
C15   C19   A    
C31   H9    S    
C22   C24   A    
C18   H3    S    
C42   O18   S    
O8    Zn2   S    
C47   O27   D    
C28   H6    S    
C15   C16   A    
C29   C33   S    
O28   H30   S    
C30   H4    S    
C18   C19   A    
C14   C43   S    
C37   H15   S    
O16   H24   S    
C27   H5    S    
C16   C17   A    
C30   C35   S    
C13   C42   S    
C38   O9    D    
C19   C41   S    
C1    O1    A    
C12   O4    A    
C26   N1    A    
O10   H21   S    
C36   C37   S    
O22   H27   S    
C44   O21   D    
C36   H17   S    
C21   N2    A    
O26   H29   S    
C12   O3    A    
C5    C47   S    
C31   H10   S    
C30   C34   S    
O1    Zn1   S    
C24   C25   A    
C10   C14   A    
C42   O17   D    
C9    C23   S    
C25   C26   A    
C35   C36   S    
C46   O26   S    
C37   H14   S    
C11   C40   S    
C11   C16   A    
C36   H18   S    
C43   O20   S    
C31   C32   S    
C8    C12   S    
C5    C34   S    
C20   C21   A    
C31   C34   S    
C3    C32   S    
O12   H22   S    
C44   O22   S    
C1    O2    A    
O3    Zn1   S    
C22   N2    A    
C21   H7    S    
C9    C17   A    
C29   O8    A    
C41   O15   D    
C41   O16   S    
C17   C39   S    
C7    C34   S    
C32   C46   S    
O2    Zn2   S    
C39   O12   S    
C3    C4    S    
C39   O11   D    
C23   O5    A    
O5    Zn1   S    
C2    H2    S    
C37   H16   S    
C40   O13   D    
C1    C10   S    
C24   C28   A    
O14   H23   S    
C10   C13   A    
C38   O10   S    
N1    Zn1   S    
C23   O6    A    
C29   O7    A    
C5    H12   S    
C45   O24   S    
N2    Zn2   S    
C6    C33   T    
C2    C30   S    
C2    C3    S    
C11   C13   A    
C43   O19   D    
C22   H8    S    
C47   O28   S    
C35   H20   S    
O20   H26   S    
O7    Zn1   S    
C40   O14   S    
C27   N1    A    
C46   O25   D    
C9    C18   A    
C4    C5    S    
C20   C45   S    
O18   H25   S    
C35   H19   S    
C45   O23   D    
C20   C25   A    
C27   C28   A    
C14   C15   A    
O24   H28   S    
C4    H13   S    
