data_mof_unit_60765.cif
_audit_creation_date              2012-12-10T16:48:45-0500
_audit_creation_method            fapswitch 2.2
_symmetry_space_group_name_H-M    P1
_symmetry_Int_Tables_number       1
_space_group_crystal_system       triclinic
_cell_length_a                    18.414683
_cell_length_b                    18.420356
_cell_length_c                    18.4209
_cell_angle_alpha                 119.677795
_cell_angle_beta                  119.746761
_cell_angle_gamma                 90.510914
_cell_volume                      4436.89805695

loop_
_atom_site_label
_atom_site_type_symbol
_atom_type_description
_atom_site_fract_x
_atom_site_fract_y
_atom_site_fract_z
_atom_type_partial_charge
C1    C     C_R   0.138480 0.361453 0.000411 0.847037
C2    C     C_2   0.808767 0.696464 0.004116 -0.296121
C3    C     C_2   0.717316 0.280811 0.442988 -0.299318
C4    C     C_R   0.861761 0.638747 0.000294 0.842999
C5    C     C_2   0.686661 0.192091 0.387578 -0.371267
C6    C     C_2   0.764340 0.337573 0.555265 0.508044
C7    C     C_2   0.808566 0.306405 0.611506 -0.395284
C8    C     C_2   0.337331 0.280991 0.060029 -0.164501
C9    C     C_2   0.304486 0.192191 0.995174 -0.300027
C10   C     C_2   0.281201 0.337235 0.057339 -0.162770
C11   C     C_2   0.192351 0.304582 0.001922 -0.299749
C12   C     C_3   0.780432 0.357932 0.079166 -0.496196
C13   C     C_2   0.217132 0.780133 0.941612 -0.164832
C14   C     C_2   0.304893 0.797445 0.992876 -0.288171
C15   C     C_2   0.161442 0.719997 0.937167 -0.165002
C16   C     C_R   0.138652 0.639191 0.277010 0.886726
C17   C     C_2   0.195463 0.702534 0.007462 -0.291312
C18   C     C_2   0.217345 0.788785 0.555159 0.505763
C19   C     C_2   0.305336 0.802978 0.611556 -0.398355
C20   C     C_2   0.162096 0.724262 0.442901 -0.292059
C21   C     C_2   0.195425 0.700468 0.387560 -0.373470
C22   C     C_R   0.637796 0.138308 0.277027 0.887822
C23   C     C_3   0.800921 0.300523 0.999660 0.090810
C24   C     C_R   0.361222 0.861505 0.722801 0.885047
C25   C     C_R   0.638243 0.861167 0.999772 0.846957
C26   C     C_R   0.361403 0.138344 0.999490 0.845340
C27   C     C_R   0.359439 0.858410 0.998945 0.857992
C28   C     C_R   0.861210 0.361642 0.722790 0.874837
C29   C     C_R   0.641045 0.141332 0.999718 0.827904
C30   C     C_R   0.140523 0.641548 0.000983 0.860473
C31   C     C_R   0.858927 0.358647 0.000266 0.788162
C32   C     C_3   0.711458 0.242180 0.891977 -0.487367
C33   C     C_3   0.648615 0.186168 0.893538 0.356230
C34   C     C_3   0.698403 0.198901 0.999203 0.054705
C35   C     C_3   0.848038 0.239509 0.028022 0.364718
C36   C     C_3   0.684842 0.433280 0.566392 0.104834
C37   C     C_3   0.692313 0.525921 0.641503 -0.809617
C38   C     C_3   0.137792 0.883034 0.573905 0.105532
C39   C     C_3   0.112018 0.941550 0.644565 -0.798086
C40   C     C_3   0.640658 0.049419 0.762793 0.127045
C41   C     C_3   0.601456 0.950873 0.711823 -0.799230
C42   C     C_3   0.948029 0.170539 0.006215 0.098720
C43   C     C_3   0.964295 0.108696 0.926970 -0.807290
C44   C     C_3   0.786780 0.179320 0.026500 -0.473945
C45   C     C_3   0.723866 0.298732 0.082071 -0.498430
C46   C     C_2   0.723811 0.780020 0.942611 -0.164412
C47   C     C_2   0.691051 0.803258 0.998685 -0.293823
C48   C     C_2   0.777645 0.721461 0.940203 -0.170060
H1    H     H_    0.724789 0.201914 0.834166 0.198616
H2    H     H_    0.679001 0.285846 0.871026 0.130985
H3    H     H_    0.808247 0.238648 0.576325 0.119473
H4    H     H_    0.408512 0.314727 0.116984 0.173436
H5    H     H_    0.234401 0.156233 0.935372 0.147526
H6    H     H_    0.315044 0.408300 0.104079 0.175573
H7    H     H_    0.156318 0.234624 0.956959 0.148087
H8    H     H_    0.338454 0.765257 0.029339 0.148432
H9    H     H_    0.091050 0.690757 0.875524 0.185144
H10   H     H_    0.264183 0.734623 0.073126 0.147866
H11   H     H_    0.597008 0.218001 0.890739 0.100790
H12   H     H_    0.761860 0.312088 0.159403 0.208189
H13   H     H_    0.338695 0.770131 0.576564 0.118076
H14   H     H_    0.091121 0.697597 0.405031 0.194104
H15   H     H_    0.265205 0.728602 0.422255 0.155978
H16   H     H_    0.773964 0.108004 0.973484 0.195164
H17   H     H_    0.843378 0.402961 0.156769 0.196569
H18   H     H_    0.744188 0.400323 0.059259 0.207014
H19   H     H_    0.663144 0.316716 0.069562 0.195304
H20   H     H_    0.792858 0.699386 0.884243 0.175673
H21   H     H_    0.639800 0.384542 0.558235 0.124646
H22   H     H_    0.655121 0.423097 0.491341 0.140100
H23   H     H_    0.909179 0.284504 0.107978 0.027573
H24   H     H_    0.735902 0.576568 0.650894 0.255862
H25   H     H_    0.625490 0.532793 0.612679 0.199297
H26   H     H_    0.720835 0.537473 0.716962 0.259094
H27   H     H_    0.184731 0.809484 0.900635 0.183136
H28   H     H_    0.076813 0.842403 0.494199 0.138357
H29   H     H_    0.185621 0.927316 0.580249 0.126614
H30   H     H_    0.171880 0.983746 0.724804 0.264856
H31   H     H_    0.081517 0.985077 0.622217 0.196672
H32   H     H_    0.063355 0.899748 0.639330 0.255866
H33   H     H_    0.713100 0.070304 0.818208 0.183892
H34   H     H_    0.822129 0.192229 0.103510 0.123685
H35   H     H_    0.628042 0.058674 0.702844 0.143244
H36   H     H_    0.528548 0.926802 0.654351 0.256690
H37   H     H_    0.632161 0.913092 0.672904 0.193316
H38   H     H_    0.614685 0.938894 0.770014 0.273492
H39   H     H_    0.943619 0.138752 0.042601 0.129096
H40   H     H_    0.005387 0.233822 0.064962 0.132531
H41   H     H_    0.970266 0.139514 0.890534 0.267940
H42   H     H_    0.026806 0.095888 0.964253 0.199750
H43   H     H_    0.908281 0.044618 0.867269 0.246689
H44   H     H_    0.710199 0.803826 0.895242 0.172631
H45   H     H_    0.700944 0.779197 0.044690 0.149643
H46   H     H_    0.797383 0.718951 0.062823 0.149916
H47   H     H_    0.705904 0.313974 0.405198 0.191328
H48   H     H_    0.693472 0.156999 0.422306 0.156296
O1    O     O_3   0.000000 0.500000 0.000000 -0.495368
O2    O     O_R   0.324760 0.053850 0.939900 -0.649949
O3    O     O_R   0.443270 0.883090 0.060070 -0.649379
O4    O     O_R   0.053940 0.324750 0.939940 -0.645989
O5    O     O_R   0.616890 0.176890 0.060090 -0.663898
O6    O     O_R   0.323100 0.883090 0.939900 -0.641625
O7    O     O_R   0.616910 0.056740 0.939940 -0.611732
O8    O     O_R   0.615250 0.885990 0.939940 -0.651458
O9    O     O_R   0.446110 0.175200 0.060060 -0.643983
O10   O     O_R   0.614030 0.053850 0.229160 -0.645730
O11   O     O_R   0.324790 0.884790 0.770830 -0.578939
O12   O     O_R   0.053880 0.613970 0.229150 -0.644189
O13   O     O_R   0.884790 0.613970 0.060060 -0.647018
O14   O     O_R   0.175250 0.615170 0.229170 -0.647697
O15   O     O_R   0.886020 0.446110 0.770840 -0.577253
O16   O     O_R   0.176940 0.616860 0.060100 -0.650019
O17   O     O_R   0.883150 0.323060 0.939910 -0.600753
O18   O     O_R   0.056770 0.616860 0.939930 -0.642395
O19   O     O_R   0.883130 0.443210 0.060060 -0.662097
O20   O     O_3   0.770581 0.426311 0.603794 -0.574223
O21   O     O_3   0.175902 0.827833 0.603052 -0.573838
O22   O     O_3   0.597737 0.095943 0.807490 -0.608723
O23   O     O_R   0.884840 0.324750 0.770840 -0.657333
O24   O     O_3   0.868474 0.186229 0.957633 -0.608804
O25   O     O_R   0.175280 0.446110 0.060100 -0.642265
O26   O     O_R   0.885990 0.615170 0.939900 -0.642570
O27   O     O_3   0.500040 0.999960 0.000000 -0.494396
O28   O     O_R   0.615200 0.175200 0.229160 -0.645674
O29   O     O_R   0.446160 0.885990 0.770850 -0.652336
O30   O     O_R   0.614060 0.884790 0.060100 -0.644777
Zn1   Zn    Zn3+2 0.956210 0.542060 0.085830 0.947516
Zn2   Zn    Zn3+2 0.129620 0.543770 0.085850 0.959085
Zn3   Zn    Zn3+2 0.957930 0.543770 0.914160 0.985692
Zn4   Zn    Zn3+2 0.956240 0.370390 0.914160 0.969058
Zn5   Zn    Zn3+2 0.543830 0.957900 0.914170 0.962106
Zn6   Zn    Zn3+2 0.542120 0.956180 0.085840 0.961747
Zn7   Zn    Zn3+2 0.370430 0.956180 0.914150 0.988046
Zn8   Zn    Zn3+2 0.543800 0.129560 0.085840 0.949945

loop_
_geom_bond_atom_site_label_1
_geom_bond_atom_site_label_2
_ccdc_geom_bond_type
C14   H8    S    
C37   H26   S    
C45   H12   S    
C16   C21   S    
O27   Zn6   S    
C40   O22   S    
C1    C11   S    
O1    Zn1   S    
C3    C6    S    
C29   O7    A    
C16   O14   A    
C38   H28   S    
O5    Zn8   S    
C44   H16   S    
O10   Zn6   S    
C41   H38   S    
O2    Zn7   S    
C27   O3    A    
C43   H41   S    
O3    Zn6   S    
O27   Zn7   S    
C36   C37   S    
O1    Zn4   S    
C44   H34   S    
C38   C39   S    
O4    Zn4   S    
C46   H44   S    
O23   Zn4   S    
O19   Zn1   S    
C1    O4    A    
C18   C19   D    
C37   H25   S    
C38   O21   S    
O15   Zn3   S    
C5    C22   S    
C13   H27   S    
C8    C9    D    
O8    Zn5   S    
C45   H19   S    
C14   C27   S    
C8    H4    S    
O26   Zn3   S    
C17   H10   S    
C35   H23   S    
C33   O22   S    
C33   H11   S    
C13   C14   D    
C17   C30   S    
C15   H9    S    
C40   H35   S    
C35   O24   S    
O1    Zn2   S    
C26   O9    A    
C31   O19   A    
C36   H22   S    
C9    C26   S    
C28   O15   A    
C46   C48   S    
C43   H42   S    
C21   H15   S    
O17   Zn4   S    
O27   Zn8   S    
C29   O5    A    
C39   H30   S    
C2    H46   S    
C39   H32   S    
C34   C44   S    
O25   Zn2   S    
C34   C45   S    
C2    C48   D    
C22   O10   A    
C41   H36   S    
C12   H18   S    
C29   C34   S    
C43   H43   S    
C7    C28   S    
C30   O16   A    
C39   H31   S    
C2    C4    S    
C25   O30   A    
O29   Zn5   S    
C12   C23   S    
O30   Zn6   S    
C32   H2    S    
C33   C34   S    
C47   H45   S    
C4    O26   A    
C24   O11   A    
C48   H20   S    
C35   C44   S    
C18   O21   S    
C6    O20   S    
C26   O2    A    
C40   C41   S    
C23   C35   S    
C13   C15   S    
C24   O29   A    
O18   Zn3   S    
C9    H5    S    
C42   C43   S    
C36   O20   S    
C5    H48   S    
C11   H7    S    
C36   H21   S    
C30   O18   A    
C15   C17   D    
C25   C47   S    
C46   C47   D    
O27   Zn5   S    
C40   H33   S    
C12   C45   S    
C3    C5    D    
C28   O23   A    
C25   O8    A    
C22   O28   A    
C6    C7    D    
C38   H29   S    
C4    O13   A    
C41   H37   S    
C12   H17   S    
C27   O6    A    
O28   Zn8   S    
C32   C33   S    
C19   C24   S    
O6    Zn7   S    
O1    Zn3   S    
O11   Zn7   S    
C23   C32   S    
C42   O24   S    
C19   H13   S    
O13   Zn1   S    
C18   C20   S    
O12   Zn1   S    
C20   H14   S    
C10   H6    S    
C1    O25   A    
C32   H1    S    
O16   Zn2   S    
C10   C11   D    
C16   O12   A    
C7    H3    S    
C42   H40   S    
C20   C21   D    
C8    C10   S    
C37   H24   S    
O14   Zn2   S    
C3    H47   S    
C42   H39   S    
O7    Zn5   S    
C31   O17   A    
C23   C31   S    
O9    Zn8   S    
