data_mof_unit_13003.cif
_audit_creation_date              2013-03-05T15:58:59-0500
_audit_creation_method            fapswitch 2.2
_symmetry_space_group_name_H-M    P1
_symmetry_Int_Tables_number       1
_space_group_crystal_system       triclinic
_cell_length_a                    7.382396
_cell_length_b                    21.31497
_cell_length_c                    23.552929
_cell_angle_alpha                 89.999986
_cell_angle_beta                  89.999798
_cell_angle_gamma                 89.999373
_cell_volume                      3706.18407942

loop_
_atom_site_label
_atom_site_type_symbol
_atom_site_description
_atom_site_fract_x
_atom_site_fract_y
_atom_site_fract_z
_atom_type_partial_charge
O1    O     O_R   0.365470 0.806380 0.442440 -0.573061
O2    O     O_R   0.134530 0.193620 0.942440 -0.573061
O3    O     O_R   0.865470 0.693620 0.557560 -0.573060
O4    O     O_R   0.634530 0.306380 0.057560 -0.573059
O5    O     O_R   0.035730 0.813790 0.557160 -0.574565
O6    O     O_R   0.464270 0.186210 0.057160 -0.574567
O7    O     O_R   0.535730 0.686210 0.442840 -0.574569
O8    O     O_R   0.964270 0.313790 0.942840 -0.574569
C1    C     C_R   0.204298 0.828392 0.575456 0.941750
C2    C     C_R   0.295701 0.171607 0.075456 0.941753
C3    C     C_R   0.704300 0.671608 0.424544 0.941754
C4    C     C_R   0.795700 0.328392 0.924543 0.941756
O9    O     O_R   0.035760 0.813790 0.442850 -0.567004
O10   O     O_R   0.464240 0.186210 0.942850 -0.567005
O11   O     O_R   0.535760 0.686210 0.557150 -0.567005
O12   O     O_R   0.964240 0.313790 0.057150 -0.567004
O13   O     O_R   0.865450 0.693620 0.442430 -0.571097
O14   O     O_R   0.634550 0.306380 0.942430 -0.571097
O15   O     O_R   0.365450 0.806380 0.557570 -0.571088
O16   O     O_R   0.134550 0.193620 0.057570 -0.571092
C5    C     C_R   0.204338 0.828380 0.424541 0.941258
C6    C     C_R   0.295662 0.171620 0.924540 0.941260
C7    C     C_R   0.704339 0.671620 0.575459 0.941264
C8    C     C_R   0.795660 0.328380 0.075459 0.941263
O17   O     O_3   0.198970 0.710570 0.500000 -0.279936
O18   O     O_3   0.301030 0.289430 0.000000 -0.279933
O19   O     O_3   0.698970 0.789430 0.500000 -0.279927
O20   O     O_3   0.801030 0.210570 0.000000 -0.279932
V1    V     V_3+5 0.924120 0.757310 0.500000 1.276316
V2    V     V_3+5 0.575880 0.242690 0.000000 1.276309
V3    V     V_3+5 0.424120 0.742690 0.500000 1.276311
V4    V     V_3+5 0.075880 0.257310 0.000000 1.276307
C9    C     C_3   0.906041 0.559156 0.747549 -0.040329
C10   C     C_3   0.593959 0.440843 0.247550 -0.040330
C11   C     C_3   0.406034 0.940839 0.252448 -0.040320
C12   C     C_3   0.093973 0.059162 0.752447 -0.040319
C13   C     C_3   0.566901 0.545667 0.746848 0.145038
C14   C     C_3   0.933099 0.454333 0.246848 0.145037
C15   C     C_3   0.066895 0.954336 0.253152 0.145019
C16   C     C_3   0.433108 0.045663 0.753150 0.145007
C17   C     C_3   0.568032 0.491019 0.792263 -0.058022
C18   C     C_3   0.931968 0.508982 0.292262 -0.058021
C19   C     C_3   0.068030 0.008986 0.207739 -0.058001
C20   C     C_3   0.431974 0.991006 0.707743 -0.057996
H1    H     H_    0.574853 0.590883 0.769787 0.204285
H2    H     H_    0.925147 0.409117 0.269788 0.204284
H3    H     H_    0.074842 0.909121 0.230211 0.204280
H4    H     H_    0.425157 0.090875 0.730205 0.204277
H5    H     H_    0.470993 0.454401 0.778070 0.150493
H6    H     H_    0.029006 0.545599 0.278069 0.150496
H7    H     H_    0.971002 0.045607 0.221935 0.150507
H8    H     H_    0.528989 0.954386 0.721946 0.150519
C21   C     C_1   0.784966 0.374392 0.879345 -0.130206
C22   C     C_1   0.715035 0.625608 0.379345 -0.130204
C23   C     C_1   0.284970 0.125607 0.120654 -0.130208
C24   C     C_1   0.215029 0.874392 0.620655 -0.130192
C25   C     C_3   0.739461 0.543228 0.708213 -0.128444
C26   C     C_3   0.760539 0.456771 0.208213 -0.128444
C27   C     C_3   0.239457 0.956770 0.291786 -0.128440
C28   C     C_3   0.260546 0.043230 0.791786 -0.128424
C29   C     C_3   0.907048 0.515130 0.802835 0.305787
C30   C     C_3   0.592952 0.484869 0.302836 0.305781
C31   C     C_3   0.407033 0.984860 0.197159 0.305744
C32   C     C_3   0.092976 0.015142 0.697158 0.305697
C33   C     C_3   0.762595 0.460267 0.794481 -0.197028
C34   C     C_3   0.737405 0.539733 0.294481 -0.197027
C35   C     C_3   0.262599 0.039731 0.205517 -0.197017
C36   C     C_3   0.237398 0.960267 0.705519 -0.197014
C37   C     C_3   0.784571 0.426008 0.735186 0.107907
C38   C     C_3   0.715426 0.573991 0.235186 0.107908
C39   C     C_3   0.284598 0.073987 0.264811 0.107907
C40   C     C_3   0.215379 0.926012 0.764813 0.107913
C41   C     C_3   0.777978 0.474932 0.685067 -0.161799
C42   C     C_3   0.722023 0.525067 0.185067 -0.161800
C43   C     C_3   0.277981 0.025065 0.314931 -0.161809
C44   C     C_3   0.222016 0.974936 0.814932 -0.161827
C45   C     C_1   0.773658 0.412776 0.841332 0.254247
C46   C     C_1   0.726341 0.587224 0.341332 0.254246
C47   C     C_1   0.273664 0.087222 0.158666 0.254258
C48   C     C_1   0.226333 0.912776 0.658668 0.254247
C49   C     C_1   0.726903 0.588799 0.659910 0.221067
C50   C     C_1   0.773097 0.411201 0.159910 0.221067
C51   C     C_1   0.226898 0.911201 0.340089 0.221070
C52   C     C_1   0.273107 0.088800 0.840089 0.221077
C53   C     C_1   0.715155 0.626181 0.621129 -0.168357
C54   C     C_1   0.784844 0.373818 0.121129 -0.168357
C55   C     C_1   0.215152 0.873819 0.378871 -0.168353
C56   C     C_1   0.284851 0.126182 0.878870 -0.168357
H9    H     H_    0.913142 0.478203 0.664614 0.226011
H10   H     H_    0.586860 0.521796 0.164613 0.226012
H11   H     H_    0.413137 0.021790 0.335389 0.226023
H12   H     H_    0.086864 0.978214 0.835394 0.226029
H13   H     H_    0.026368 0.547337 0.721564 0.178775
H14   H     H_    0.473633 0.452663 0.221564 0.178775
H15   H     H_    0.526363 0.952661 0.278431 0.178776
H16   H     H_    0.973642 0.047341 0.778430 0.178776
H17   H     H_    0.664838 0.394595 0.730945 0.141349
H18   H     H_    0.835157 0.605405 0.230945 0.141348
H19   H     H_    0.164882 0.105409 0.269052 0.141346
H20   H     H_    0.335080 0.894583 0.769055 0.141342
N1    N     N_R   0.867435 0.549199 0.856708 0.292768
O21   O     O_R   0.889506 0.520800 0.905198 -0.327636
O22   O     O_R   0.806888 0.606477 0.857992 -0.233775
N2    N     N_R   0.632568 0.450800 0.356709 0.292766
O23   O     O_R   0.610503 0.479200 0.405198 -0.327637
O24   O     O_R   0.693109 0.393521 0.357992 -0.233772
N3    N     N_R   0.367384 0.950789 0.143289 0.292765
O25   O     O_R   0.389373 0.979192 0.094798 -0.327643
O26   O     O_R   0.306912 0.893502 0.142009 -0.233744
N4    N     N_R   0.132642 0.049211 0.643289 0.292759
O27   O     O_R   0.110658 0.020807 0.594798 -0.327652
O28   O     O_R   0.193100 0.106499 0.642009 -0.233742
C57   C     C_3   0.099344 0.488494 0.809546 -0.772367
H21   H     H_    0.143943 0.461663 0.772292 0.258322
H22   H     H_    0.191497 0.528720 0.814274 0.288263
H23   H     H_    0.112576 0.457821 0.847388 0.272947
C58   C     C_3   0.400656 0.511505 0.309548 -0.772356
H24   H     H_    0.356054 0.538335 0.272293 0.258320
H25   H     H_    0.308505 0.471278 0.314277 0.288264
H26   H     H_    0.387425 0.542178 0.347389 0.272949
C59   C     C_3   0.599334 0.011486 0.190436 -0.772310
H27   H     H_    0.643959 0.038321 0.227685 0.258314
H28   H     H_    0.691471 0.971254 0.185708 0.288271
H29   H     H_    0.612555 0.042153 0.152590 0.272950
C60   C     C_3   0.900672 0.988521 0.690432 -0.772216
H30   H     H_    0.856027 0.961691 0.727682 0.258296
H31   H     H_    0.808547 0.028756 0.685699 0.288274
H32   H     H_    0.887456 0.957852 0.652588 0.272965
N5    N     N_R   0.931775 0.626469 0.760076 0.294373
O29   O     O_R   0.083812 0.645061 0.782413 -0.236902
O30   O     O_R   0.807949 0.668289 0.749260 -0.313998
N6    N     N_R   0.568225 0.373531 0.260076 0.294373
O31   O     O_R   0.416186 0.354939 0.282413 -0.236898
O32   O     O_R   0.692051 0.331710 0.249261 -0.313997
N7    N     N_R   0.431771 0.873525 0.239928 0.294370
O33   O     O_R   0.583819 0.854929 0.217598 -0.236908
O34   O     O_R   0.307934 0.831708 0.250738 -0.313987
N8    N     N_R   0.068241 0.126476 0.739928 0.294369
O35   O     O_R   0.916195 0.145073 0.717596 -0.236912
O36   O     O_R   0.192079 0.168293 0.750737 -0.313985
N9    N     N_R   0.399214 0.548466 0.713440 0.230962
O37   O     O_R   0.333929 0.602945 0.699203 -0.349603
O38   O     O_R   0.327635 0.498433 0.691413 -0.429764
N10   N     N_R   0.100786 0.451533 0.213440 0.230962
O39   O     O_R   0.166071 0.397054 0.199203 -0.349600
O40   O     O_R   0.172368 0.501566 0.191413 -0.429763
N11   N     N_R   0.899208 0.951538 0.286560 0.230962
O41   O     O_R   0.833933 0.897060 0.300803 -0.349607
O42   O     O_R   0.827616 0.001573 0.308582 -0.429734
N12   N     N_R   0.600796 0.048467 0.786558 0.230962
O43   O     O_R   0.666063 0.102948 0.800795 -0.349595
O44   O     O_R   0.672393 0.998437 0.808586 -0.429725
N13   N     N_R   0.504780 0.511177 0.849065 0.263637
O45   O     O_R   0.462506 0.569275 0.859918 -0.276807
O46   O     O_R   0.462355 0.468913 0.886660 -0.364557
N14   N     N_R   0.995221 0.488824 0.349064 0.263635
O47   O     O_R   0.037488 0.430725 0.359919 -0.276806
O48   O     O_R   0.037653 0.531089 0.386658 -0.364561
N15   N     N_R   0.004765 0.988833 0.150937 0.263629
O49   O     O_R   0.962537 0.930732 0.140077 -0.276832
O50   O     O_R   0.962326 0.031099 0.113347 -0.364576
N16   N     N_R   0.495256 0.011149 0.650941 0.263606
O51   O     O_R   0.537444 0.069249 0.640066 -0.276831
O52   O     O_R   0.537771 0.968872 0.613362 -0.364605
C61   C     C_3   0.656445 0.451452 0.635969 -0.617275
H33   H     H_    0.732123 0.415931 0.610862 0.257642
H34   H     H_    0.532855 0.427469 0.651172 0.280867
H35   H     H_    0.617716 0.489675 0.606465 0.240614
C62   C     C_3   0.843559 0.548548 0.135970 -0.617278
H36   H     H_    0.767882 0.584069 0.110862 0.257642
H37   H     H_    0.967147 0.572531 0.151173 0.280867
H38   H     H_    0.882291 0.510325 0.106466 0.240616
C63   C     C_3   0.156435 0.048550 0.364025 -0.617313
H39   H     H_    0.232108 0.084070 0.389133 0.257643
H40   H     H_    0.032852 0.072534 0.348818 0.280873
H41   H     H_    0.117694 0.010329 0.393529 0.240625
C64   C     C_3   0.343570 0.951450 0.864023 -0.617331
H42   H     H_    0.267907 0.915925 0.889129 0.257645
H43   H     H_    0.467156 0.927470 0.848812 0.280875
H44   H     H_    0.382307 0.989669 0.893530 0.240631
N17   N     N_R   0.941941 0.383199 0.732074 0.254437
O53   O     O_R   0.062102 0.387865 0.691829 -0.321312
O54   O     O_R   0.943647 0.332687 0.763096 -0.335300
N18   N     N_R   0.558054 0.616800 0.232074 0.254437
O55   O     O_R   0.437894 0.612133 0.191829 -0.321311
O56   O     O_R   0.556343 0.667312 0.263096 -0.335301
N19   N     N_R   0.441991 0.116786 0.267921 0.254438
O57   O     O_R   0.562156 0.112110 0.308164 -0.321304
O58   O     O_R   0.443721 0.167297 0.236899 -0.335315
N20   N     N_R   0.057965 0.883223 0.767923 0.254435
O59   O     O_R   0.937808 0.887902 0.808168 -0.321307
O60   O     O_R   0.056204 0.832713 0.736897 -0.335318

loop_
_geom_bond_atom_site_label_1
_geom_bond_atom_site_label_2
_geom_bond_distance
_ccdc_geom_bond_type
C36   C48   1.499672 S    
C51   C55   1.215213 T    
C5    C55   1.449643 S    
O1    C5    1.346331 A    
C61   H33   1.111323 S    
C16   C28   1.566400 S    
O19   V1    1.797618 S    
O13   V1    1.967015 S    
C62   H36   1.111323 S    
O3    C7    1.346332 A    
N11   O41   1.301206 A    
C10   C30   1.605069 S    
C40   C44   1.575861 S    
O15   V3    1.967005 S    
N2    O24   1.300468 A    
O4    V2    1.966819 S    
N7    O33   1.301408 A    
C10   C26   1.576701 S    
C34   C38   1.584274 S    
C63   H39   1.111318 S    
O7    C3    1.353227 A    
N1    O21   1.302799 A    
C13   N9    1.468052 S    
C32   C36   1.594858 S    
C11   C27   1.576707 S    
N14   O47   1.302413 A    
N11   O42   1.298369 A    
C27   C51   1.498787 S    
C14   C18   1.581471 S    
C19   N15   1.480717 S    
C58   H25   1.100189 S    
O16   V4    1.967007 S    
O4    C8    1.346332 A    
N19   O58   1.301235 A    
C43   C63   1.546849 S    
C15   N11   1.468055 S    
O1    V3    1.966814 S    
N18   O55   1.302033 A    
O2    V4    1.966812 S    
C25   C41   1.580242 S    
O3    V1    1.966816 S    
N4    O27   1.302802 A    
C30   C58   1.537073 S    
N4    O28   1.300467 A    
C14   C26   1.566393 S    
N9    O37   1.301206 A    
N14   O48   1.301438 A    
C1    O15   1.346453 A    
C2    O16   1.346458 A    
N6    O31   1.301399 A    
C64   H43   1.105437 S    
C38   C42   1.575845 S    
C60   H32   1.109660 S    
C9    C25   1.576703 S    
N3    O25   1.302792 A    
N15   O50   1.301400 A    
C37   C41   1.575845 S    
O14   V2    1.967013 S    
C6    C56   1.449646 S    
N13   O46   1.301431 A    
C30   N2    1.490932 S    
C4    C21   1.449452 S    
C43   H11   1.110231 S    
C57   H23   1.109668 S    
C20   H8    1.110910 S    
C12   C32   1.605066 S    
O11   C7    1.353328 A    
C60   H30   1.097904 S    
C10   N6    1.477052 S    
O12   C8    1.353326 A    
N7    O34   1.301967 A    
C62   H37   1.105434 S    
C12   N8    1.477048 S    
C20   N16   1.480694 S    
O10   V2    1.985054 S    
C17   H5    1.110915 S    
N2    O23   1.302805 A    
C31   C59   1.537062 S    
C17   N13   1.480715 S    
C63   H40   1.105436 S    
C34   C46   1.499669 S    
C31   C35   1.594856 S    
O7    V3    1.985107 S    
C30   C34   1.594849 S    
C16   N12   1.468058 S    
O8    V4    1.985111 S    
C10   H14   1.107759 S    
C35   C47   1.499672 S    
C26   C50   1.498788 S    
N10   O40   1.298362 A    
C44   C64   1.546840 S    
C58   H26   1.109670 S    
C11   N7    1.477048 S    
O18   V4    1.797632 S    
C17   C33   1.579695 S    
N17   O53   1.302029 A    
C39   H19   1.113382 S    
C28   C44   1.580245 S    
C18   N14   1.480715 S    
C36   C40   1.584275 S    
C29   N1    1.490934 S    
N20   O59   1.302030 A    
O5    C1    1.353223 A    
C33   C45   1.499669 S    
C23   C47   1.215708 T    
C12   H16   1.107763 S    
C32   N4    1.490935 S    
N15   O49   1.302413 A    
C16   C20   1.581474 S    
O8    C4    1.353228 A    
C64   H44   1.108351 S    
C15   C27   1.566394 S    
O9    C5    1.353325 A    
C19   C35   1.579687 S    
C1    C24   1.449464 S    
N5    O30   1.301964 A    
C60   H31   1.100196 S    
C2    C23   1.449447 S    
C59   H27   1.097901 S    
C57   H21   1.097900 S    
C3    C22   1.449454 S    
N8    O36   1.301958 A    
C18   H6    1.110915 S    
N6    O32   1.301964 A    
C38   N18   1.479081 S    
O6    V2    1.985116 S    
C41   C61   1.546847 S    
C44   H12   1.110235 S    
C32   C60   1.537057 S    
C61   H35   1.108340 S    
C29   C57   1.537072 S    
C21   C45   1.215704 T    
C62   H38   1.108341 S    
N12   O44   1.298358 A    
C20   C36   1.579691 S    
O9    V1    1.985050 S    
C13   H1    1.106451 S    
O5    V1    1.985120 S    
C27   C43   1.580233 S    
C26   C42   1.580244 S    
C15   H3    1.106447 S    
N16   O51   1.302411 A    
C40   H20   1.113380 S    
C63   H41   1.108340 S    
C9    N5    1.477053 S    
C16   H4    1.106454 S    
C3    O13   1.346456 A    
N20   O60   1.301257 A    
C14   N10   1.468054 S    
O17   V3    1.797632 S    
C18   C34   1.579695 S    
C52   C56   1.215208 T    
C39   N19   1.479082 S    
N10   O39   1.301207 A    
C12   C28   1.576698 S    
C9    H13   1.107758 S    
O6    C2    1.353227 A    
C15   C19   1.581466 S    
O11   V3    1.985041 S    
C11   H15   1.107754 S    
O12   V4    1.985038 S    
C24   C48   1.215700 T    
N1    O22   1.300469 A    
O10   C6    1.353324 A    
N9    O38   1.298364 A    
N5    O29   1.301396 A    
C41   H9    1.110231 S    
N19   O57   1.302030 A    
N16   O52   1.301495 A    
C50   C54   1.215212 T    
O2    C6    1.346333 A    
C14   H2    1.106450 S    
C39   C43   1.575843 S    
C28   C52   1.498793 S    
C19   H7    1.110926 S    
N3    O26   1.300465 A    
C8    C54   1.449639 S    
C9    C29   1.605068 S    
C33   C37   1.584273 S    
C42   H10   1.110230 S    
O20   V2    1.797618 S    
N18   O56   1.301242 A    
C42   C62   1.546847 S    
C35   C39   1.584267 S    
C13   C17   1.581472 S    
C25   C49   1.498791 S    
C49   C53   1.215210 T    
C59   H28   1.100189 S    
N8    O35   1.301411 A    
C29   C33   1.594846 S    
N17   O54   1.301241 A    
C61   H34   1.105436 S    
C64   H42   1.111331 S    
C7    C53   1.449639 S    
C4    O14   1.346455 A    
C59   H29   1.109676 S    
N12   O43   1.301200 A    
C11   C31   1.605070 S    
C57   H22   1.100187 S    
N13   O45   1.302410 A    
C58   H24   1.097901 S    
C31   N3    1.490943 S    
C13   C25   1.566389 S    
C38   H18   1.113380 S    
C40   N20   1.479080 S    
C37   N17   1.479080 S    
C22   C46   1.215703 T    
C37   H17   1.113380 S    
