data_mof_unit_28651.cif
_audit_creation_date              2012-10-26T21:05:56-0400
_audit_creation_method            fapswitch 2.2
_symmetry_space_group_name_H-M    P1
_symmetry_Int_Tables_number       1
_space_group_crystal_system       triclinic
_cell_length_a                    13.338098
_cell_length_b                    18.163507
_cell_length_c                    19.438114
_cell_angle_alpha                 89.809416
_cell_angle_beta                  90.210241
_cell_angle_gamma                 72.090381
_cell_volume                      4480.93221744

loop_
_atom_site_label
_atom_site_type_symbol
_atom_type_description
_atom_site_fract_x
_atom_site_fract_y
_atom_site_fract_z
_atom_type_partial_charge
C1    C     C_R   0.499681 0.499967 0.632486 0.543267
C2    C     C_R   0.817522 0.431786 0.496865 -0.042004
C3    C     C_R   0.506404 0.566053 0.255766 -0.115862
C4    C     C_R   0.701143 0.458257 0.500069 0.561109
C5    C     C_R   0.507757 0.566517 0.183863 0.320709
C6    C     C_R   0.498758 0.501786 0.147623 0.048743
C7    C     C_R   0.494387 0.436004 0.183797 -0.193033
C8    C     C_R   0.495973 0.435132 0.255366 -0.145963
C9    C     C_R   0.500778 0.500420 0.291943 -0.030270
C10   C     C_R   0.570493 0.443237 0.036260 -0.182113
C11   C     C_R   0.570029 0.442518 0.964686 -0.137220
C12   C     C_R   0.981168 0.465095 0.504866 -0.016876
C13   C     C_R   0.495185 0.500645 0.927880 -0.019797
C14   C     C_R   0.419573 0.558826 0.963447 -0.096879
C15   C     C_R   0.417756 0.558696 0.035344 0.324691
C16   C     C_R   0.500223 0.500105 0.367509 0.555797
C17   C     C_R   0.495575 0.501634 0.072023 0.047223
C18   C     C_R   0.490073 0.568547 0.815878 -0.110370
C19   C     C_R   0.491769 0.568300 0.744241 -0.113360
C20   C     C_R   0.498421 0.500165 0.708034 0.022312
C21   C     C_R   0.503336 0.432373 0.744656 -0.131502
C22   C     C_R   0.502816 0.432458 0.816282 -0.121886
C23   C     C_R   0.876122 0.477385 0.525401 -0.092262
C24   C     C_R   0.495995 0.500562 0.852310 0.035767
C25   C     C_R   0.568851 0.263974 0.542297 0.381320
C26   C     C_R   0.572209 0.184982 0.540775 -0.182828
C27   C     C_R   0.500413 0.161512 0.500574 -0.038528
C28   C     C_R   0.299244 0.541714 0.502683 0.608484
C29   C     C_R   0.428918 0.217000 0.459748 -0.125596
C30   C     C_R   0.431569 0.294565 0.457732 0.379142
C31   C     C_R   0.409541 0.058847 0.518228 0.275256
C32   C     C_R   0.411373 0.980831 0.516866 -0.147931
C33   C     C_R   0.503406 0.920943 0.499728 -0.006540
C34   C     C_R   0.032079 0.520976 0.522216 -0.056735
C35   C     C_R   0.595277 0.941082 0.483958 0.274901
C36   C     C_R   0.592562 0.019494 0.484070 -0.146279
C37   C     C_R   0.500544 0.078938 0.501026 -0.001114
C38   C     C_R   0.453490 0.809367 0.552809 -0.176319
C39   C     C_R   0.453002 0.732082 0.552006 0.018328
C40   C     C_R   0.044383 0.626687 0.597449 0.291016
C41   C     C_R   0.547943 0.710034 0.447760 0.031051
C42   C     C_R   0.549439 0.787020 0.446323 -0.107039
C43   C     C_R   0.502562 0.838136 0.499618 0.036829
C44   C     C_R   0.185603 0.566527 0.517224 -0.039515
C45   C     C_R   0.987418 0.577250 0.573678 -0.019045
C46   C     C_R   0.870091 0.364144 0.459763 0.285010
C47   C     C_R   0.979309 0.344136 0.449741 0.262199
C48   C     C_R   0.033355 0.395161 0.471044 -0.112120
C49   C     C_3   0.180810 0.734808 0.549943 -0.119189
C50   C     C_3   0.621300 0.625976 0.142360 -0.120522
C51   C     C_3   0.252627 0.591114 0.078470 -0.122588
C52   C     C_3   0.746219 0.690473 0.623589 -0.121143
C53   C     C_3   0.663446 0.250788 0.645393 -0.158381
C54   C     C_3   0.338325 0.323272 0.353955 -0.115489
C55   C     C_3   0.309916 0.124858 0.605330 -0.139815
C56   C     C_R   0.886100 0.583400 0.599555 0.298559
C57   C     C_3   0.762419 0.873547 0.516263 -0.140960
C58   C     C_3   0.969382 0.746816 0.645139 -0.055162
C59   C     C_3   0.112327 0.530776 0.373356 -0.118047
C60   C     C_3   0.827481 0.251807 0.466037 -0.064172
C61   C     C_3   0.107821 0.226854 0.452157 -0.119183
C62   C     C_R   0.832527 0.533510 0.575367 -0.102673
C63   C     C_R   0.125948 0.522755 0.489535 0.199839
C64   C     C_R   0.141924 0.622852 0.567504 0.211446
Cu1   Cu    Cu3+1 0.500030 0.426630 0.500000 1.094719
Cu2   Cu    Cu3+1 0.499970 0.573370 0.500000 0.935451
H1    H     H_    0.222789 0.720182 0.500310 0.145630
H2    H     H_    0.629380 0.397442 0.937984 0.119715
H3    H     H_    0.360596 0.603518 0.935495 0.122666
H4    H     H_    0.271652 0.537226 0.109995 0.108036
H5    H     H_    0.217974 0.582429 0.028104 0.107149
H6    H     H_    0.191958 0.636640 0.106519 0.146520
H7    H     H_    0.485533 0.621534 0.842910 0.112731
H8    H     H_    0.487698 0.621459 0.717308 0.123026
H9    H     H_    0.507372 0.379302 0.718062 0.128960
H10   H     H_    0.724411 0.742304 0.657013 0.124961
H11   H     H_    0.680045 0.665440 0.625196 0.129940
H12   H     H_    0.211315 0.777724 0.576212 0.121788
H13   H     H_    0.755969 0.710394 0.570438 0.114630
H14   H     H_    0.506324 0.379627 0.843595 0.103652
H15   H     H_    0.693699 0.286988 0.680685 0.137833
H16   H     H_    0.727656 0.195434 0.638620 0.096826
H17   H     H_    0.593520 0.241091 0.670421 0.099310
H18   H     H_    0.629140 0.141758 0.571191 0.089995
H19   H     H_    0.372744 0.199095 0.429145 0.123870
H20   H     H_    0.274329 0.296583 0.360155 0.125327
H21   H     H_    0.409053 0.282246 0.329700 0.080641
H22   H     H_    0.308520 0.373022 0.318211 0.147857
H23   H     H_    0.095836 0.763464 0.538786 0.071542
H24   H     H_    0.376816 0.142728 0.626051 0.123026
H25   H     H_    0.306292 0.071047 0.631337 0.108219
H26   H     H_    0.236154 0.171418 0.617521 0.132031
H27   H     H_    0.339636 0.967312 0.528560 0.120878
H28   H     H_    0.733052 0.857756 0.565990 0.101227
H29   H     H_    0.789140 0.925385 0.522660 0.103960
H30   H     H_    0.832002 0.824969 0.500959 0.130551
H31   H     H_    0.662421 0.034181 0.469538 0.119914
H32   H     H_    0.416597 0.846153 0.595206 0.085864
H33   H     H_    0.907024 0.770564 0.683851 0.140618
H34   H     H_    0.664854 0.573707 0.112590 0.114570
H35   H     H_    0.931464 0.759704 0.593576 0.057042
H36   H     H_    0.028930 0.777422 0.652069 0.132335
H37   H     H_    0.415057 0.710948 0.593312 0.144704
H38   H     H_    0.585449 0.671396 0.406756 0.122836
H39   H     H_    0.585860 0.806470 0.403178 0.149290
H40   H     H_    0.135120 0.584811 0.371997 0.103627
H41   H     H_    0.025026 0.544808 0.374860 0.119610
H42   H     H_    0.139922 0.499069 0.324898 0.136982
H43   H     H_    0.827049 0.260304 0.522823 0.124756
H44   H     H_    0.901377 0.207352 0.450421 0.139467
H45   H     H_    0.659277 0.625905 0.193473 0.100276
H46   H     H_    0.761572 0.228908 0.453392 0.140980
H47   H     H_    0.117118 0.377439 0.462764 0.198825
H48   H     H_    0.077544 0.217242 0.503695 0.107566
H49   H     H_    0.178417 0.246464 0.457794 0.142335
H50   H     H_    0.133274 0.170144 0.425713 0.163407
H51   H     H_    0.757751 0.536970 0.598681 0.140765
H52   H     H_    0.510824 0.616925 0.282982 0.131180
H53   H     H_    0.626781 0.677355 0.113469 0.148864
H54   H     H_    0.488692 0.385524 0.156493 0.113818
H55   H     H_    0.492788 0.383494 0.281975 0.146137
H56   H     H_    0.630238 0.398759 0.063880 0.117549
N1    N     N_R   0.500010 0.316380 0.499980 -0.197962
N2    N     N_R   0.499860 0.683650 0.499960 -0.227365
O1    O     O_R   0.500040 0.438010 0.599820 -0.478447
O2    O     O_3   0.514076 0.631492 0.149237 -0.523063
O3    O     O_3   0.341913 0.616042 0.069451 -0.523006
O4    O     O_3   0.839982 0.637359 0.649576 -0.524755
O5    O     O_3   0.637932 0.290195 0.581924 -0.540045
O6    O     O_3   0.361977 0.351430 0.417605 -0.494931
O7    O     O_3   0.316627 0.115713 0.533382 -0.592657
O8    O     O_3   0.685931 0.884572 0.463889 -0.573666
O9    O     O_3   0.015453 0.667070 0.658385 -0.478115
O10   O     O_3   0.160452 0.483070 0.429152 -0.540501
O11   O     O_3   0.813051 0.321145 0.428680 -0.526353
O12   O     O_R   0.499990 0.561930 0.599810 -0.521428
O13   O     O_3   0.029649 0.279147 0.411481 -0.557761
O14   O     O_R   0.651020 0.407800 0.499990 -0.420080
O15   O     O_R   0.650970 0.531720 0.499980 -0.524413
O16   O     O_R   0.500010 0.438070 0.400190 -0.459062
O17   O     O_R   0.499960 0.561990 0.400180 -0.526850
O18   O     O_R   0.349030 0.468280 0.500020 -0.422435
O19   O     O_R   0.348980 0.592200 0.500010 -0.495413
O20   O     O_3   0.198685 0.669013 0.593079 -0.534359

loop_
_geom_bond_atom_site_label_1
_geom_bond_atom_site_label_2
_ccdc_geom_bond_type
C27   C29   A    
C41   C42   A    
C57   O8    S    
C35   C36   A    
C12   C48   A    
C25   O5    S    
C52   O4    S    
C7    C8    A    
Cu2   O17   S    
C2    C46   A    
C12   C23   A    
C26   C27   A    
C55   H26   S    
C3    C9    A    
C41   N2    A    
C36   C37   A    
C9    C16   S    
C1    O1    A    
C55   H24   S    
C54   H21   S    
C8    H55   S    
C10   C17   A    
C49   O20   S    
C49   H12   S    
C53   H15   S    
C18   C19   A    
C34   C63   A    
C62   H51   S    
C31   O7    S    
C60   H43   S    
C46   O11   S    
Cu1   O16   S    
C23   C62   A    
Cu2   O15   S    
C31   C32   A    
C45   C56   A    
C8    C9    A    
C57   H30   S    
C5    O2    S    
C61   H49   S    
C55   H25   S    
C36   H31   S    
C50   O2    S    
C51   H4    S    
C1    O12   A    
C29   H19   S    
C38   H32   S    
C56   C62   A    
Cu1   N1    S    
C32   H27   S    
C44   C63   A    
C15   O3    S    
C13   C14   A    
C16   O16   A    
C51   H5    S    
C58   O9    S    
C40   C45   A    
C54   O6    S    
C59   H40   S    
C50   H53   S    
C33   C43   S    
C63   O10   S    
C38   C39   A    
C18   C24   A    
C58   H35   S    
Cu2   O19   S    
C64   O20   S    
C52   H10   S    
C25   C26   A    
C30   O6    S    
C28   C44   S    
C59   H41   S    
C39   N2    A    
C31   C37   A    
C13   C24   S    
C53   H16   S    
Cu1   O1    S    
C2    C4    S    
C29   C30   A    
C60   H46   S    
C3    H52   S    
C47   C48   A    
C47   O13   S    
C61   H50   S    
C28   O19   A    
C30   N1    A    
C25   N1    A    
C60   O11   S    
C34   C45   A    
C58   H36   S    
Cu1   O14   S    
C18   H7    S    
C55   O7    S    
C57   H28   S    
C57   H29   S    
C14   H3    S    
C22   C24   A    
C28   O18   A    
C42   C43   A    
C12   C34   A    
C52   H11   S    
C52   H13   S    
C61   H48   S    
C11   H2    S    
C54   H20   S    
C15   C17   A    
C6    C17   S    
C46   C47   A    
C1    C20   S    
C26   H18   S    
C49   H1    S    
C44   C64   A    
C7    H54   S    
C19   H8    S    
C58   H33   S    
C49   H23   S    
C3    C5    A    
C39   H37   S    
C6    C7    A    
C40   O9    S    
C21   H9    S    
C59   O10   S    
C50   H34   S    
C59   H42   S    
C40   C64   A    
C41   H38   S    
C53   H17   S    
C51   O3    S    
C32   C33   A    
C19   C20   A    
C16   O17   A    
C22   H14   S    
C38   C43   A    
C4    O15   A    
C54   H22   S    
Cu1   O18   S    
C11   C13   A    
C61   O13   S    
C5    C6    A    
C27   C37   S    
C50   H45   S    
C33   C35   A    
Cu2   O12   S    
Cu2   N2    S    
C56   O4    S    
C42   H39   S    
C60   H44   S    
C10   C11   A    
C4    O14   A    
C10   H56   S    
C53   O5    S    
C20   C21   A    
Cu1   Cu2   S    
C51   H6    S    
C2    C23   A    
C14   C15   A    
C21   C22   A    
C35   O8    S    
C48   H47   S    
