data_mof_unit_28275.cif
_audit_creation_date              2012-12-11T14:29:37-0500
_audit_creation_method            fapswitch 2.2
_symmetry_space_group_name_H-M    P1
_symmetry_Int_Tables_number       1
_space_group_crystal_system       triclinic
_cell_length_a                    6.943441
_cell_length_b                    14.764627
_cell_length_c                    16.244112
_cell_angle_alpha                 90.717031
_cell_angle_beta                  90.692432
_cell_angle_gamma                 89.813641
_cell_volume                      1665.04275763

loop_
_atom_site_label
_atom_site_type_symbol
_atom_type_description
_atom_site_fract_x
_atom_site_fract_y
_atom_site_fract_z
_atom_type_partial_charge
O1    O     O_R   0.494400 0.416610 0.413880 -0.547998
O2    O     O_R   0.823920 0.406790 0.585520 -0.538927
O3    O     O_R   0.994250 0.583390 0.586120 -0.536020
C1    C     C_R   0.656987 0.385416 0.613027 0.735969
O4    O     O_R   0.824110 0.405730 0.414490 -0.540872
O5    O     O_R   0.994440 0.582310 0.413870 -0.538034
C2    C     C_R   0.654455 0.383717 0.386316 0.740157
O6    O     O_R   0.494210 0.417690 0.586130 -0.536740
O7    O     O_3   0.660810 0.557940 0.500000 -0.369560
V1    V     V_3+5 0.935650 0.489250 0.500000 1.449222
O8    O     O_R   0.324160 0.593210 0.414480 -0.547307
C3    C     C_R   0.155449 0.611232 0.383943 0.675567
O9    O     O_R   0.323970 0.594270 0.585510 -0.536749
C4    C     C_R   0.156174 0.615124 0.614670 0.692151
V2    V     V_3+5 0.435660 0.510750 0.500000 1.448498
O10   O     O_3   0.160630 0.442060 0.500000 -0.372165
C5    C     C_R   0.158279 0.564476 0.785794 -0.153341
C6    C     C_R   0.159985 0.537551 0.867680 -0.127153
C7    C     C_R   0.148591 0.601889 0.930603 -0.082746
C8    C     C_R   0.134429 0.693591 0.912107 -0.116274
C9    C     C_R   0.131275 0.723185 0.829416 0.067370
C10   C     C_R   0.144787 0.657161 0.765138 0.065612
C11   C     C_R   0.111699 0.816559 0.810531 -0.182534
C12   C     C_R   0.101744 0.843875 0.725771 -0.026640
C13   C     C_R   0.137167 0.777786 0.663010 0.058474
C14   C     C_R   0.148229 0.684445 0.682056 -0.155975
C15   C     C_R   0.058265 0.934579 0.700579 -0.049292
C16   C     C_R   0.083638 0.961063 0.617427 -0.039308
C17   C     C_R   0.138733 0.895743 0.557928 -0.061413
C18   C     C_R   0.159127 0.805592 0.581041 -0.177994
H1    H     H_    0.168841 0.511895 0.739017 0.110629
H2    H     H_    0.170953 0.466402 0.882370 0.130240
H3    H     H_    0.150184 0.580661 0.994162 0.165554
H4    H     H_    0.124584 0.740671 0.963464 0.124494
H5    H     H_    0.191689 0.756427 0.533188 0.138349
C19   C     C_2   0.000465 0.717135 0.287908 -0.190843
C20   C     C_2   0.150245 0.661389 0.305545 -0.164860
H6    H     H_    0.884651 0.723403 0.332080 0.156262
C21   C     C_2   0.976181 0.768512 0.210078 0.046044
C22   C     C_2   0.122139 0.819917 0.181205 -0.300177
H7    H     H_    0.258459 0.820088 0.214654 0.173955
C23   C     C_2   0.729692 0.254008 0.815582 -0.016999
C24   C     C_2   0.603238 0.183048 0.819225 -0.165152
C25   C     C_2   0.721989 0.324838 0.750082 -0.199143
C26   C     C_2   0.654206 0.312290 0.672841 -0.203343
H8    H     H_    0.780492 0.391104 0.766208 0.112825
H9    H     H_    0.607744 0.246748 0.649976 0.153353
C27   C     C_2   0.779888 0.209281 0.214311 -0.093949
C28   C     C_2   0.614941 0.182047 0.177169 -0.279740
H10   H     H_    0.915806 0.180650 0.193987 0.139997
H11   H     H_    0.477444 0.210098 0.195328 0.124727
C29   C     C_2   0.791485 0.277885 0.282265 -0.114095
C30   C     C_2   0.637712 0.315423 0.319477 -0.293173
H12   H     H_    0.935250 0.297426 0.302540 0.137566
H13   H     H_    0.492709 0.296572 0.301262 0.129697
O11   O     O_R   0.770210 0.079270 0.910680 -0.512150
O12   O     O_R   0.440150 0.091160 0.082270 -0.552403
O13   O     O_R   0.269970 0.914530 0.082860 -0.542976
C31   C     C_R   0.609262 0.113297 0.110409 0.765585
O14   O     O_R   0.440480 0.090100 0.911240 -0.537532
O15   O     O_R   0.270310 0.913460 0.910610 -0.532620
C32   C     C_R   0.607632 0.113719 0.884857 0.752582
O16   O     O_R   0.769870 0.080340 0.082930 -0.533513
O17   O     O_3   0.603660 0.938980 0.996790 -0.380265
V3    V     V_3+5 0.328750 0.007610 0.996740 1.520775
O18   O     O_R   0.940600 0.902510 0.911180 -0.551307
C33   C     C_R   0.107642 0.883830 0.880119 0.694969
O19   O     O_R   0.940270 0.903570 0.082200 -0.534623
C34   C     C_R   0.109469 0.881883 0.110209 0.729406
V4    V     V_3+5 0.828770 0.986010 0.996670 1.527959
O20   O     O_3   0.103730 0.054750 0.996710 -0.355191
C35   C     C_2   0.163105 0.916740 0.469086 0.736260
O21   O     O_2   0.068083 0.976523 0.436425 -0.564785
O22   O     O_R   0.291229 0.865194 0.421808 -0.659580
H14   H     H_    0.294037 0.884746 0.362235 0.300591
C36   C     C_2   0.303640 0.638053 0.245362 0.429221
H15   H     H_    0.443054 0.614566 0.267391 0.068074
O23   O     O_2   0.273409 0.639318 0.171178 -0.530374
C37   C     C_2   0.785297 0.762191 0.168779 0.794440
O24   O     O_2   0.639140 0.772739 0.208969 -0.582617
O25   O     O_R   0.772297 0.740629 0.084814 -0.651368
H16   H     H_    0.634094 0.737534 0.064097 0.303851
C38   C     C_2   0.877020 0.271831 0.881064 0.419090
H17   H     H_    0.006630 0.308650 0.865952 0.067558
O26   O     O_2   0.851319 0.251165 0.952624 -0.536027
C39   C     C_2   0.433075 0.176676 0.763477 0.792916
O27   O     O_2   0.405411 0.107063 0.723609 -0.553941
O28   O     O_R   0.304231 0.249377 0.757434 -0.666028
H18   H     H_    0.194456 0.236715 0.717242 0.314673
C40   C     C_2   0.960728 0.998471 0.756940 0.472799
H19   H     H_    0.821660 0.980325 0.781281 0.029976
O29   O     O_2   0.033981 0.070745 0.776304 -0.510113
C41   C     C_2   0.055342 0.056886 0.592130 0.516352
H20   H     H_    0.158884 0.088325 0.552037 0.062844
O30   O     O_2   0.913873 0.100300 0.613165 -0.530700

loop_
_geom_bond_atom_site_label_1
_geom_bond_atom_site_label_2
_ccdc_geom_bond_type
C41   H20   S    
C7    C8    A    
C12   C15   A    
C1    O6    A    
C22   C34   S    
O25   H16   S    
C25   C26   D    
C18   H5    S    
C16   C17   A    
C36   O23   D    
O5    C3    A    
C39   O28   S    
O12   C31   A    
V2    O10   S    
C15   C40   S    
O14   C32   A    
C6    C7    A    
C26   H9    S    
C11   C33   S    
C3    C20   S    
O8    V2    S    
C25   H8    S    
O19   C34   A    
C28   H11   S    
C11   C12   A    
V4    O20   S    
O1    V2    S    
O17   V4    S    
O7    V1    S    
C17   C35   S    
C8    H4    S    
O28   H18   S    
C27   H10   S    
O18   C33   A    
C41   O30   D    
O9    C4    A    
C23   C25   S    
C29   H12   S    
C1    C26   S    
C30   H13   S    
O22   H14   S    
C12   C13   A    
C35   O22   S    
C7    H3    S    
C21   C22   D    
O4    C2    A    
C39   O27   D    
C13   C14   A    
V3    O20   S    
C16   C41   S    
C21   C37   S    
O2    C1    A    
C17   C18   A    
O15   C33   A    
O13   V3    S    
C40   O29   D    
C38   H17   S    
O16   V4    S    
C5    C6    A    
C4    C14   S    
O3    C4    A    
C22   H7    S    
C38   O26   D    
C20   C36   S    
O14   V3    S    
O6    V2    S    
O11   V4    S    
O9    V2    S    
C5    H1    S    
O11   C32   A    
C6    H2    S    
C23   C24   D    
C2    C30   S    
O2    V1    S    
C29   C30   D    
C37   O25   S    
C13   C18   A    
C19   C20   D    
O1    C2    A    
C24   C39   S    
C19   C21   S    
C23   C38   S    
O12   V3    S    
C35   O21   D    
O5    V1    S    
O8    C3    A    
O13   C34   A    
C31   O16   A    
C5    C10   A    
C28   C31   S    
O17   V3    S    
C9    C11   A    
O7    V2    S    
O4    V1    S    
O3    V1    S    
V1    O10   S    
C36   H15   S    
C40   H19   S    
O18   V4    S    
C27   C28   D    
C19   H6    S    
C37   O24   D    
O15   V3    S    
C27   C29   S    
C8    C9    A    
O19   V4    S    
C10   C14   A    
C15   C16   A    
C9    C10   A    
C24   C32   S    
