data_mof_unit_59675.cif
_audit_creation_date              2013-03-05T16:01:06-0500
_audit_creation_method            fapswitch 2.2
_symmetry_space_group_name_H-M    P1
_symmetry_Int_Tables_number       1
_space_group_crystal_system       triclinic
_cell_length_a                    14.955742
_cell_length_b                    15.013936
_cell_length_c                    15.84
_cell_angle_alpha                 74.111072
_cell_angle_beta                  102.402765
_cell_angle_gamma                 116.034008
_cell_volume                      3055.3102347

loop_
_atom_site_label
_atom_site_type_symbol
_atom_site_description
_atom_site_fract_x
_atom_site_fract_y
_atom_site_fract_z
_atom_type_partial_charge
O1    O     O_R   0.977900 0.338120 0.529810 -0.628625
O2    O     O_R   0.022100 0.661880 0.470190 -0.624655
O3    O     O_R   0.839850 0.379180 0.491620 -0.509252
O4    O     O_R   0.160150 0.620820 0.508380 -0.583743
C1    C     C_R   0.880273 0.312442 0.513704 0.805698
C2    C     C_R   0.119800 0.687192 0.483573 0.770860
O5    O     O_R   0.069010 0.479460 0.640020 -0.584222
O6    O     O_R   0.930990 0.520540 0.359980 -0.598002
O7    O     O_R   0.930960 0.520530 0.601820 -0.564568
O8    O     O_R   0.069040 0.479470 0.398180 -0.576031
C3    C     C_R   0.999946 0.499717 0.659752 0.849284
C4    C     C_R   0.000172 0.500451 0.340225 0.787834
Cu1   Cu    Cu3+1 0.081740 0.475690 0.522610 0.961553
Cu2   Cu    Cu3+1 0.918260 0.524310 0.477390 0.977952
C5    C     C_3   0.975944 0.405499 0.047944 -0.150668
C6    C     C_3   0.024250 0.594857 0.951980 -0.157965
C7    C     C_3   0.908557 0.439521 0.969088 -0.155013
C8    C     C_3   0.091638 0.560834 0.030837 -0.139270
H1    H     H_    0.833405 0.389722 0.942388 0.151533
H2    H     H_    0.166792 0.610634 0.057531 0.154597
H3    H     H_    0.956119 0.327764 0.088674 0.147849
H4    H     H_    0.044076 0.672589 0.911245 0.148651
H5    H     H_    0.877340 0.562625 0.011025 0.158584
H6    H     H_    0.122854 0.437732 0.988897 0.161802
C9    C     C_1   0.000104 0.499606 0.749745 -0.129844
C10   C     C_1   0.000067 0.500649 0.250214 -0.120354
C11   C     C_3   0.067511 0.465891 0.994622 -0.127507
C12   C     C_3   0.932683 0.534465 0.005304 -0.150134
C13   C     C_3   0.000124 0.499913 0.917295 0.166003
C14   C     C_3   0.000071 0.500441 0.082633 0.165204
C15   C     C_1   0.000133 0.499670 0.825462 -0.037072
C16   C     C_1   0.000056 0.500645 0.174480 -0.033255
C17   C     C_R   0.811935 0.203658 0.525008 -0.069537
C18   C     C_R   0.189064 0.794500 0.475005 -0.059639
C19   C     C_R   0.779574 0.026481 0.582841 -0.155543
C20   C     C_R   0.221255 0.970875 0.453960 -0.155727
C21   C     C_R   0.846879 0.127892 0.566253 -0.186509
C22   C     C_R   0.153723 0.870634 0.456878 -0.192802
C23   C     C_R   0.709140 0.175479 0.498602 -0.117932
C24   C     C_R   0.292731 0.820364 0.488767 -0.145010
C25   C     C_R   0.638784 0.075301 0.524824 0.098953
C26   C     C_R   0.361534 0.918752 0.497170 0.100478
C27   C     C_R   0.675897 0.999775 0.563120 0.085756
C28   C     C_R   0.324423 0.995311 0.473949 0.089253
C29   C     C_R   0.533098 0.048242 0.513104 -0.086753
C30   C     C_R   0.465991 0.943884 0.525208 -0.096011
C31   C     C_R   0.505857 0.870101 0.569415 0.325074
C32   C     C_R   0.492090 0.121659 0.496149 0.343226
C33   C     C_R   0.609522 0.898964 0.585184 -0.263043
C34   C     C_R   0.389797 0.095125 0.474476 -0.265965
H7    H     H_    0.638598 0.842316 0.619251 0.181990
H8    H     H_    0.360665 0.152617 0.462842 0.181154
H9    H     H_    0.318948 0.762940 0.492159 0.166020
H10   H     H_    0.685218 0.232997 0.457372 0.188644
H11   H     H_    0.074241 0.852913 0.444705 0.152736
H12   H     H_    0.925946 0.146877 0.586275 0.151254
H13   H     H_    0.808448 0.969081 0.613930 0.140230
H14   H     H_    0.192642 0.029176 0.438259 0.142818
N1    N     N_R   0.795440 0.560790 0.443380 -0.243583
N2    N     N_R   0.204560 0.439210 0.556620 -0.253762
C35   C     C_R   0.710594 0.660010 0.345653 -0.254003
C36   C     C_R   0.291942 0.348517 0.661685 -0.242355
C37   C     C_R   0.789157 0.628557 0.366070 0.157309
C38   C     C_R   0.208934 0.371912 0.634836 0.179437
C39   C     C_R   0.721813 0.521624 0.499697 0.161977
C40   C     C_R   0.283903 0.487412 0.506380 0.137085
C41   C     C_R   0.633807 0.542735 0.475303 -0.053417
C42   C     C_R   0.375248 0.473622 0.537681 0.019585
C43   C     C_R   0.634938 0.619624 0.400295 0.100293
C44   C     C_R   0.373095 0.396972 0.613289 0.099377
C45   C     C_R   0.545767 0.493362 0.522232 0.067108
C46   C     C_R   0.467018 0.528692 0.496566 0.120017
C47   C     C_R   0.484812 0.619642 0.433570 -0.119285
C48   C     C_R   0.530914 0.407607 0.591369 -0.151377
C49   C     C_R   0.563518 0.660306 0.382651 -0.176552
C50   C     C_R   0.450178 0.364793 0.638948 -0.186694
H15   H     H_    0.569955 0.726076 0.330225 0.144609
H16   H     H_    0.445668 0.301668 0.693922 0.161925
H17   H     H_    0.709494 0.718205 0.287473 0.181666
H18   H     H_    0.293101 0.291198 0.720642 0.182304
H19   H     H_    0.439247 0.661697 0.422702 0.128587
H20   H     H_    0.577954 0.367895 0.610552 0.233309
C51   C     C_2   0.267361 0.540681 0.415469 0.389214
H21   H     H_    0.247700 0.604788 0.402850 0.078338
O9    O     O_2   0.275981 0.513017 0.353104 -0.545471
C52   C     C_2   0.743784 0.476539 0.591937 0.427721
H22   H     H_    0.747917 0.512973 0.643998 0.012515
O10   O     O_2   0.751257 0.395498 0.611553 -0.470043
C53   C     C_2   0.127060 0.319152 0.692925 0.383779
H23   H     H_    0.051047 0.307958 0.669091 0.120972
O11   O     O_2   0.144166 0.285347 0.771191 -0.556326
C54   C     C_2   0.867491 0.677364 0.304922 0.382964
H24   H     H_    0.944348 0.690042 0.327627 0.113008
O12   O     O_2   0.846733 0.706783 0.226393 -0.556408
N3    N     N_R   0.444445 0.769967 0.612460 0.106267
O13   O     O_R   0.381235 0.757946 0.664014 -0.332044
O14   O     O_R   0.463814 0.693343 0.612989 -0.396652
N4    N     N_R   0.549081 0.217360 0.520306 0.096271
O15   O     O_R   0.595733 0.220443 0.599517 -0.346355
O16   O     O_R   0.546724 0.299527 0.466943 -0.391650

loop_
_geom_bond_atom_site_label_1
_geom_bond_atom_site_label_2
_geom_bond_distance
_ccdc_geom_bond_type
C9    C15   1.199536 T    
C40   C42   1.433929 A    
C6    C12   1.548716 S    
C11   C13   1.534908 S    
C7    C13   1.534914 S    
N3    O13   1.301645 A    
H6    C11   1.110167 S    
C39   C52   1.465761 S    
C23   C25   1.413632 A    
Cu1   N2    2.064163 S    
C29   C30   1.427152 A    
C10   C16   1.199602 T    
Cu2   N1    2.064164 S    
C17   C23   1.402571 A    
C48   C50   1.372404 A    
C18   C24   1.405271 A    
C36   H18   1.085870 S    
C19   C21   1.396332 A    
C50   H16   1.085500 S    
C20   H14   1.083991 S    
C52   O10   1.219408 D    
C23   H10   1.078093 S    
C3    C9    1.424522 S    
C28   C34   1.385277 A    
C31   N3    1.436782 S    
C36   C44   1.381747 A    
C26   C30   1.434025 A    
O4    Cu1   1.943070 S    
C35   C37   1.395846 A    
C36   C38   1.385511 A    
C40   C51   1.471247 S    
C21   H12   1.082909 S    
C22   H11   1.083050 S    
C12   C14   1.534939 S    
C39   C41   1.436238 A    
C1    C17   1.482359 S    
C37   C54   1.480828 S    
C34   H8    1.085085 S    
C8    C14   1.534935 S    
C53   O11   1.221971 D    
C19   C27   1.406196 A    
C41   C45   1.448366 A    
O6    C4    1.313060 A    
C24   C26   1.404709 A    
N2    C40   1.378992 A    
Cu1   Cu2   2.748068 S    
C25   C27   1.411764 A    
O2    C2    1.322128 A    
C26   C28   1.416115 A    
C38   C53   1.485576 S    
C48   H20   1.058266 S    
C47   H19   1.077263 S    
C31   C33   1.398952 A    
C52   H22   1.085590 S    
C27   C33   1.392460 A    
O6    Cu2   1.928057 S    
C33   H7    1.084536 S    
C6    C13   1.535002 S    
C17   C21   1.400791 A    
C2    C18   1.470663 S    
C4    C10   1.424628 S    
C41   C43   1.408920 A    
O5    C3    1.312856 A    
O7    Cu2   1.926506 S    
C49   H15   1.084367 S    
C5    C11   1.548694 S    
C51   H21   1.081965 S    
O5    Cu1   1.928058 S    
C42   C46   1.443767 A    
C54   O12   1.221636 D    
H5    C12   1.110168 S    
O7    C3    1.312814 A    
O3    Cu2   1.943068 S    
O8    C4    1.312673 A    
O4    C2    1.312704 A    
C51   O9    1.221221 D    
N4    O15   1.300230 A    
N4    O16   1.300787 A    
C44   C50   1.381206 A    
O1    C1    1.321093 A    
C20   C28   1.404428 A    
O1    Cu1   1.955085 S    
C47   C49   1.384280 A    
C5    C14   1.535019 S    
C29   C32   1.422631 A    
C35   C43   1.388579 A    
C5    C7    1.548747 S    
C30   C31   1.431325 A    
C6    H4    1.110136 S    
C18   C22   1.397803 A    
C7    C12   1.548732 S    
C8    C11   1.548726 S    
C46   C47   1.407179 A    
O3    C1    1.319407 A    
O8    Cu1   1.926506 S    
C45   C48   1.409873 A    
N3    O14   1.301409 A    
C32   N4    1.422440 S    
N1    C37   1.376921 A    
C19   H13   1.083802 S    
N2    C38   1.377661 A    
C20   C22   1.391026 A    
C45   C46   1.434707 A    
C13   C15   1.455660 S    
N1    C39   1.385794 A    
C14   C16   1.455742 S    
C35   H17   1.085438 S    
C32   C34   1.389718 A    
C54   H24   1.074563 S    
C7    H1    1.110152 S    
C43   C49   1.393956 A    
C8    H2    1.110144 S    
O2    Cu2   1.955084 S    
C5    H3    1.110132 S    
C6    C8    1.548766 S    
C24   H9    1.078091 S    
C42   C44   1.410361 A    
C25   C29   1.431585 A    
C53   H23   1.070434 S    
