data_mof_unit_15535.cif
_audit_creation_date              2013-03-05T15:48:34-0500
_audit_creation_method            fapswitch 2.2
_symmetry_space_group_name_H-M    P1
_symmetry_Int_Tables_number       1
_space_group_crystal_system       triclinic
_cell_length_a                    17.512886
_cell_length_b                    17.533346
_cell_length_c                    45.086172
_cell_angle_alpha                 89.969181
_cell_angle_beta                  90.04872
_cell_angle_gamma                 120.16576
_cell_volume                      11969.2937912

loop_
_atom_site_label
_atom_site_type_symbol
_atom_site_description
_atom_site_fract_x
_atom_site_fract_y
_atom_site_fract_z
_atom_type_partial_charge
O1    O     O_R   0.509640 0.171340 0.784000 -0.504631
O2    O     O_R   0.661700 0.490360 0.716000 -0.509646
O3    O     O_R   0.828660 0.338300 0.784000 -0.506329
O4    O     O_R   0.509640 0.171340 0.716000 -0.507544
O5    O     O_R   0.661700 0.490360 0.784000 -0.504163
O6    O     O_R   0.828660 0.338300 0.716000 -0.510954
O7    O     O_R   0.171340 0.509640 0.284000 -0.513104
O8    O     O_R   0.490360 0.661700 0.216000 -0.505684
O9    O     O_R   0.338300 0.828660 0.284000 -0.507283
O10   O     O_R   0.171340 0.509640 0.216000 -0.509671
O11   O     O_R   0.490360 0.661700 0.284000 -0.509622
O12   O     O_R   0.338300 0.828660 0.216000 -0.508048
O13   O     O_R   0.539230 0.345420 0.781810 -0.466462
O14   O     O_R   0.806190 0.460770 0.718190 -0.465309
O15   O     O_R   0.654580 0.193810 0.781810 -0.469836
O16   O     O_R   0.539230 0.345420 0.718190 -0.464668
O17   O     O_R   0.806190 0.460770 0.781810 -0.465236
O18   O     O_R   0.654580 0.193810 0.718190 -0.469768
O19   O     O_R   0.345420 0.539230 0.281810 -0.464450
O20   O     O_R   0.460770 0.806190 0.218190 -0.466697
O21   O     O_R   0.193810 0.654580 0.281810 -0.468672
O22   O     O_R   0.345420 0.539230 0.218190 -0.466382
O23   O     O_R   0.460770 0.806190 0.281810 -0.465586
O24   O     O_R   0.193810 0.654580 0.218190 -0.472050
C1    C     C_R   0.587835 0.424506 0.794887 0.557390
C2    C     C_R   0.827308 0.405918 0.704210 0.562287
C3    C     C_R   0.577574 0.167373 0.795207 0.555542
C4    C     C_R   0.589343 0.424306 0.704794 0.557836
C5    C     C_R   0.829954 0.408075 0.795624 0.560325
C6    C     C_R   0.576257 0.164842 0.705140 0.556532
C7    C     C_R   0.424551 0.588979 0.295126 0.559478
C8    C     C_R   0.406104 0.826756 0.203945 0.559196
C9    C     C_R   0.164212 0.575928 0.294654 0.557406
C10   C     C_R   0.424570 0.588114 0.205046 0.557097
C11   C     C_R   0.409509 0.833060 0.295357 0.564638
C12   C     C_R   0.164181 0.576251 0.205499 0.554427
Cr1   Cr    Cr6+3 0.530290 0.262330 0.750000 1.085100
Cr2   Cr    Cr6+3 0.732040 0.469710 0.750000 1.082374
Cr3   Cr    Cr6+3 0.737670 0.267960 0.750000 1.082901
Cr4   Cr    Cr6+3 0.262330 0.530290 0.250000 1.082599
Cr5   Cr    Cr6+3 0.469710 0.732040 0.250000 1.081956
Cr6   Cr    Cr6+3 0.267960 0.737670 0.250000 1.081173
O25   O     O_3   0.666667 0.333333 0.750000 -0.326208
O26   O     O_3   0.333333 0.666667 0.250000 -0.321122
H1    H     H_    0.901468 0.256805 0.983249 0.204225
H2    H     H_    0.309817 0.014299 0.528095 0.201733
H3    H     H_    0.694310 0.678334 0.972695 0.207921
H4    H     H_    0.950439 0.266878 0.520622 0.202354
H5    H     H_    0.288070 0.958099 0.964424 0.193512
H6    H     H_    0.709048 0.687385 0.526163 0.196581
H7    H     H_    0.291998 0.984677 0.475066 0.196761
H8    H     H_    0.950966 0.281579 0.033878 0.201757
H9    H     H_    0.694204 0.703298 0.472899 0.191310
H10   H     H_    0.263335 0.913973 0.015988 0.197404
H11   H     H_    0.996462 0.293796 0.469444 0.202772
H12   H     H_    0.684184 0.691083 0.026138 0.205305
C13   C     C_R   0.853956 0.424858 0.827767 -0.023338
C14   C     C_R   0.562585 0.126035 0.674740 -0.021578
C15   C     C_R   0.562028 0.437693 0.825684 -0.018544
C16   C     C_R   0.855750 0.422094 0.672643 -0.022195
C17   C     C_R   0.568284 0.134921 0.826210 -0.022822
C18   C     C_R   0.568320 0.438592 0.673296 -0.020786
C19   C     C_R   0.430252 0.868156 0.326604 -0.019617
C20   C     C_R   0.126362 0.564145 0.175194 -0.022039
C21   C     C_R   0.439843 0.566755 0.326341 -0.023101
C22   C     C_R   0.422138 0.849831 0.171666 -0.024376
C23   C     C_R   0.125569 0.561746 0.324929 -0.021193
C24   C     C_R   0.438503 0.563123 0.174182 -0.019728
C25   C     C_R   0.971171 0.553107 0.036949 0.003329
C26   C     C_R   0.553281 0.985521 0.469087 0.005546
C27   C     C_R   0.411370 0.438181 0.030574 -0.004466
C28   C     C_R   0.005287 0.559266 0.467492 -0.003993
C29   C     C_R   0.538070 0.943843 0.025901 0.006696
C30   C     C_R   0.427021 0.443779 0.468746 -0.006613
C31   C     C_R   0.571816 0.017543 0.531318 0.005001
C32   C     C_R   0.921112 0.526449 0.976159 0.010612
C33   C     C_R   0.452690 0.417303 0.529162 -0.006422
C34   C     C_R   0.567078 0.996873 0.965283 0.000864
C35   C     C_R   0.954475 0.528745 0.527998 0.013716
C36   C     C_R   0.431075 0.415238 0.969147 0.001430
C37   C     C_R   0.025540 0.572964 0.062362 0.449510
C38   C     C_R   0.544556 0.980486 0.437750 0.438089
C39   C     C_R   0.400638 0.471266 0.058233 0.431893
C40   C     C_R   0.053493 0.576293 0.440664 0.438325
C41   C     C_R   0.528840 0.939552 0.057501 0.443018
C42   C     C_R   0.412390 0.478034 0.442002 0.437547
C43   C     C_R   0.584866 0.057433 0.559640 0.446849
C44   C     C_R   0.915805 0.517864 0.944750 0.448940
C45   C     C_R   0.484908 0.404583 0.556785 0.433444
C46   C     C_R   0.583541 0.047911 0.939199 0.446450
C47   C     C_R   0.947917 0.518771 0.559157 0.444477
C48   C     C_R   0.461315 0.400706 0.941543 0.435385
O27   O     O_2   0.090334 0.644643 0.061439 -0.476447
O28   O     O_2   0.612156 0.022323 0.424857 -0.495764
O29   O     O_2   0.331456 0.470446 0.060850 -0.453151
O30   O     O_2   0.120729 0.646041 0.440243 -0.461246
O31   O     O_2   0.597344 0.980593 0.070076 -0.506603
O32   O     O_2   0.343405 0.478594 0.441059 -0.446222
O33   O     O_2   0.654531 0.124054 0.562168 -0.475175
O34   O     O_2   0.946391 0.586788 0.933129 -0.511729
O35   O     O_2   0.482149 0.334466 0.559528 -0.463307
O36   O     O_2   0.651044 0.118164 0.939257 -0.467301
O37   O     O_2   0.987404 0.586846 0.571396 -0.509991
O38   O     O_2   0.452327 0.327935 0.939056 -0.470394
N1    N     N_R   0.024104 0.510112 0.081707 -0.365332
N2    N     N_R   0.467038 0.954724 0.422118 -0.352767
N3    N     N_R   0.472059 0.523613 0.077368 -0.370606
N4    N     N_R   0.044105 0.511328 0.420718 -0.365402
N5    N     N_R   0.450442 0.913320 0.073272 -0.359281
N6    N     N_R   0.481481 0.531339 0.422466 -0.368286
N7    N     N_R   0.516665 0.041969 0.579081 -0.366961
N8    N     N_R   0.901164 0.444872 0.927569 -0.357620
N9    N     N_R   0.536837 0.474816 0.576243 -0.367076
N10   N     N_R   0.517832 0.033866 0.918690 -0.370124
N11   N     N_R   0.926030 0.443403 0.575396 -0.352877
N12   N     N_R   0.518205 0.470324 0.922287 -0.370408
C49   C     C_R   0.994870 0.428888 0.067097 0.494993
C50   C     C_R   0.413211 0.979494 0.438304 0.522101
C51   C     C_R   0.553934 0.569823 0.061879 0.502632
C52   C     C_R   0.018513 0.431548 0.435611 0.500465
C53   C     C_R   0.387908 0.921382 0.054720 0.491842
C54   C     C_R   0.564610 0.579249 0.437057 0.502028
C55   C     C_R   0.438523 0.018164 0.563160 0.497124
C56   C     C_R   0.911555 0.383739 0.945624 0.494563
C57   C     C_R   0.583449 0.557654 0.561480 0.507011
C58   C     C_R   0.433748 0.994194 0.931647 0.501778
C59   C     C_R   0.942810 0.384866 0.558204 0.506008
C60   C     C_R   0.565645 0.552335 0.937608 0.504013
O39   O     O_2   0.990301 0.366175 0.079317 -0.409944
O40   O     O_2   0.372408 0.009641 0.425837 -0.402289
O41   O     O_2   0.625364 0.607671 0.074414 -0.402027
O42   O     O_2   0.007627 0.367108 0.422690 -0.413589
O43   O     O_2   0.330189 0.932291 0.064629 -0.397339
O44   O     O_2   0.634356 0.618965 0.423548 -0.416325
O45   O     O_2   0.369134 0.991862 0.575499 -0.408065
O46   O     O_2   0.929958 0.331528 0.935594 -0.394539
O47   O     O_2   0.619554 0.627825 0.574869 -0.411423
O48   O     O_2   0.367753 0.964468 0.916657 -0.412882
O49   O     O_2   0.962822 0.334330 0.569325 -0.403090
O50   O     O_2   0.599553 0.623611 0.924985 -0.401164
C61   C     C_R   0.965928 0.413394 0.037271 0.041613
C62   C     C_R   0.415713 0.984939 0.469687 0.035337
C63   C     C_R   0.557319 0.568932 0.030633 0.039173
C64   C     C_R   0.999717 0.419433 0.466262 0.043516
C65   C     C_R   0.395462 0.931851 0.023664 0.035333
C66   C     C_R   0.570618 0.577955 0.468343 0.042982
C67   C     C_R   0.433440 0.013948 0.531749 0.043739
C68   C     C_R   0.916120 0.387540 0.976928 0.033564
C69   C     C_R   0.584700 0.562653 0.530167 0.044423
C70   C     C_R   0.421494 0.978529 0.962727 0.045525
C71   C     C_R   0.953310 0.391811 0.526874 0.031064
C72   C     C_R   0.568032 0.555581 0.968814 0.040677
C73   C     C_R   0.951955 0.475235 0.022321 -0.075189
C74   C     C_R   0.487560 0.989111 0.485131 -0.078045
C75   C     C_R   0.488075 0.497881 0.015229 -0.072124
C76   C     C_R   0.986532 0.480754 0.481666 -0.073455
C77   C     C_R   0.472740 0.947282 0.009270 -0.078438
C78   C     C_R   0.503884 0.504663 0.483816 -0.069099
C79   C     C_R   0.497085 0.005269 0.516065 -0.073558
C80   C     C_R   0.927299 0.462302 0.992053 -0.080897
C81   C     C_R   0.513269 0.494758 0.514339 -0.070810
C82   C     C_R   0.486776 0.972864 0.979128 -0.072399
C83   C     C_R   0.962382 0.466172 0.511922 -0.077942
C84   C     C_R   0.495315 0.489304 0.984529 -0.072598
C85   C     C_R   0.959163 0.619218 0.021784 0.198482
C86   C     C_R   0.632600 0.000850 0.483933 0.212906
C87   C     C_R   0.342099 0.360883 0.015529 0.209342
C88   C     C_R   0.999098 0.627093 0.483881 0.197428
C89   C     C_R   0.619344 0.962500 0.011454 0.210959
C90   C     C_R   0.361348 0.363396 0.483318 0.208255
C91   C     C_R   0.641508 0.014872 0.515249 0.201736
C92   C     C_R   0.934135 0.605643 0.991126 0.210199
C93   C     C_R   0.373395 0.350821 0.514307 0.207051
C94   C     C_R   0.634442 0.989174 0.981211 0.197192
C95   C     C_R   0.971718 0.609899 0.514003 0.220386
C96   C     C_R   0.350679 0.350844 0.984163 0.211128
C97   C     C_R   0.945449 0.333692 0.022806 -0.071671
C98   C     C_R   0.351134 0.992765 0.485858 -0.071130
C99   C     C_R   0.631292 0.633827 0.014900 -0.074354
C100  C     C_R   0.987325 0.343014 0.480823 -0.067227
C101  C     C_R   0.327667 0.932685 0.006493 -0.075210
C102  C     C_R   0.643878 0.644131 0.484053 -0.081267
C103  C     C_R   0.360453 0.007987 0.516428 -0.065838
C104  C     C_R   0.918311 0.319862 0.993297 -0.070239
C105  C     C_R   0.650785 0.636572 0.514698 -0.075167
C106  C     C_R   0.341186 0.956843 0.976595 -0.076386
C107  C     C_R   0.962570 0.328352 0.510543 -0.071518
C108  C     C_R   0.636206 0.627635 0.984225 -0.071047
C109  C     C_R   0.087229 0.477445 0.130115 0.241858
C110  C     C_R   0.382561 0.909139 0.372041 0.242554
C111  C     C_R   0.521944 0.608377 0.127706 0.241552
C112  C     C_R   0.082599 0.469212 0.369060 0.251734
C113  C     C_R   0.373467 0.884544 0.125908 0.238607
C114  C     C_R   0.524321 0.616644 0.372813 0.251752
C115  C     C_R   0.470234 0.077766 0.630486 0.235948
C116  C     C_R   0.885974 0.375191 0.874113 0.237280
C117  C     C_R   0.619064 0.522450 0.626628 0.249335
C118  C     C_R   0.481547 0.095456 0.871506 0.232257
C119  C     C_R   0.894603 0.371001 0.628188 0.238260
C120  C     C_R   0.605453 0.521231 0.872270 0.235708
C121  C     C_R   0.119645 0.495186 0.158688 -0.152287
C122  C     C_R   0.370891 0.883929 0.342045 -0.149796
C123  C     C_R   0.513347 0.619754 0.158143 -0.148134
C124  C     C_R   0.104263 0.484077 0.339189 -0.149181
C125  C     C_R   0.359574 0.857126 0.155420 -0.152517
C126  C     C_R   0.514736 0.625806 0.342154 -0.150349
C127  C     C_R   0.488924 0.111105 0.659200 -0.149172
C128  C     C_R   0.865053 0.364441 0.843941 -0.146719
C129  C     C_R   0.626966 0.513828 0.657501 -0.150838
C130  C     C_R   0.499362 0.128842 0.842936 -0.159376
C131  C     C_R   0.864795 0.358945 0.657330 -0.147902
C132  C     C_R   0.618389 0.511917 0.841965 -0.149951
C133  C     C_R   0.111953 0.626476 0.161076 0.146411
C134  C     C_R   0.498947 0.870107 0.342750 0.138117
C135  C     C_R   0.370987 0.491514 0.158877 0.140166
C136  C     C_R   0.127581 0.629164 0.341665 0.142161
C137  C     C_R   0.490651 0.849918 0.155994 0.138636
C138  C     C_R   0.373776 0.496391 0.342149 0.143876
C139  C     C_R   0.625236 0.113747 0.659995 0.147085
C140  C     C_R   0.851078 0.491663 0.843460 0.134755
C141  C     C_R   0.500095 0.371032 0.657203 0.137041
C142  C     C_R   0.632669 0.123215 0.840561 0.148881
C143  C     C_R   0.861644 0.492168 0.656706 0.137045
C144  C     C_R   0.489418 0.370186 0.840538 0.137912
C145  C     C_R   0.080348 0.614121 0.130950 -0.046869
C146  C     C_R   0.517399 0.901556 0.372786 -0.036050
C147  C     C_R   0.381069 0.471469 0.128553 -0.052596
C148  C     C_R   0.095178 0.613999 0.371696 -0.063594
C149  C     C_R   0.506228 0.874198 0.125224 -0.038154
C150  C     C_R   0.386124 0.477038 0.372273 -0.039517
C151  C     C_R   0.612210 0.082195 0.629814 -0.043109
C152  C     C_R   0.871928 0.505858 0.874478 -0.045854
C153  C     C_R   0.482581 0.381311 0.626734 -0.050944
C154  C     C_R   0.619005 0.087917 0.870062 -0.027452
C155  C     C_R   0.888317 0.506194 0.626239 -0.037120
C156  C     C_R   0.470334 0.377814 0.871138 -0.052361
C157  C     C_R   0.062804 0.533473 0.113626 0.162344
C158  C     C_R   0.457798 0.925079 0.389275 0.176141
C159  C     C_R   0.458661 0.533663 0.110718 0.164296
C160  C     C_R   0.072708 0.530952 0.387632 0.162276
C161  C     C_R   0.444607 0.892789 0.107162 0.170110
C162  C     C_R   0.464181 0.540806 0.389502 0.166385
C163  C     C_R   0.532151 0.065516 0.612583 0.159343
C164  C     C_R   0.888148 0.443183 0.892999 0.169112
C165  C     C_R   0.545208 0.459751 0.609507 0.166691
C166  C     C_R   0.538688 0.070812 0.887199 0.169070
C167  C     C_R   0.905350 0.441568 0.609294 0.172531
C168  C     C_R   0.530531 0.456454 0.889122 0.161824
H13   H     H_    0.142104 0.452569 0.168109 0.189824
H14   H     H_    0.309585 0.869937 0.331642 0.186489
H15   H     H_    0.564634 0.679120 0.168719 0.179634
H16   H     H_    0.116269 0.436502 0.327931 0.191877
H17   H     H_    0.297771 0.842923 0.165879 0.181203
H18   H     H_    0.563919 0.685833 0.331437 0.183326
H19   H     H_    0.443433 0.127808 0.669449 0.189645
H20   H     H_    0.858223 0.306082 0.833019 0.188103
H21   H     H_    0.685953 0.564127 0.668453 0.183359
H22   H     H_    0.456650 0.150243 0.833481 0.182631
H23   H     H_    0.846682 0.296388 0.667979 0.190355
H24   H     H_    0.677954 0.563084 0.831534 0.177682
N13   N     N_R   0.806401 0.531618 0.829357 -0.273887
O51   O     O_R   0.846039 0.594574 0.809964 -0.002290
O52   O     O_R   0.845415 0.594723 0.809870 -0.002291
N14   N     N_R   0.709609 0.150157 0.673860 -0.280666
O53   O     O_R   0.724003 0.107270 0.694500 -0.004845
O54   O     O_R   0.725529 0.108322 0.694819 -0.004850
N15   N     N_R   0.444440 0.286142 0.825826 -0.280274
O55   O     O_R   0.384008 0.269211 0.805584 -0.002155
O56   O     O_R   0.383575 0.268472 0.805472 -0.002155
N16   N     N_R   0.819887 0.536212 0.669652 -0.275334
O57   O     O_R   0.859966 0.597650 0.689217 -0.003658
O58   O     O_R   0.860227 0.598787 0.689452 -0.003650
N17   N     N_R   0.719172 0.167130 0.827433 -0.274055
O59   O     O_R   0.743301 0.131077 0.807085 -0.004849
O60   O     O_R   0.741692 0.129665 0.806936 -0.004850
N18   N     N_R   0.457795 0.286092 0.670739 -0.275574
O61   O     O_R   0.396308 0.265616 0.690698 -0.004208
O62   O     O_R   0.396314 0.264351 0.690502 -0.004210
N19   N     N_R   0.534695 0.819052 0.330761 -0.276414
O63   O     O_R   0.596956 0.851620 0.310805 -0.002506
O64   O     O_R   0.596777 0.850741 0.310846 -0.002508
N20   N     N_R   0.147785 0.710572 0.175450 -0.276486
O65   O     O_R   0.104656 0.724539 0.195985 -0.005095
O66   O     O_R   0.105924 0.726057 0.196318 -0.005103
N21   N     N_R   0.288216 0.455064 0.329129 -0.264242
O67   O     O_R   0.265870 0.395145 0.308980 -0.004296
O68   O     O_R   0.265462 0.394028 0.308600 -0.004287
N22   N     N_R   0.529545 0.803434 0.169330 -0.272493
O69   O     O_R   0.592272 0.841597 0.189018 -0.006139
O70   O     O_R   0.592149 0.839583 0.189187 -0.006155
N23   N     N_R   0.182169 0.717194 0.330918 -0.284599
O71   O     O_R   0.152895 0.751275 0.311438 -0.001272
O72   O     O_R   0.153202 0.751714 0.311390 -0.001272
N24   N     N_R   0.284950 0.449829 0.172456 -0.278321
O73   O     O_R   0.263002 0.387984 0.192776 -0.002375
O74   O     O_R   0.262189 0.387833 0.192841 -0.002376
N25   N     N_R   0.921089 0.670757 0.975381 0.137161
O75   O     O_R   0.856873 0.646508 0.956545 -0.319445
O76   O     O_R   0.980980 0.753757 0.974627 -0.234388
N26   N     N_R   0.717726 0.021985 0.531219 0.119462
O77   O     O_R   0.716851 0.016700 0.559575 -0.369586
O78   O     O_R   0.781391 0.017781 0.518109 -0.232414
N27   N     N_R   0.275489 0.281414 0.967955 0.125352
O79   O     O_R   0.287060 0.254524 0.942621 -0.342980
O80   O     O_R   0.193685 0.251589 0.976257 -0.223451
N28   N     N_R   0.958649 0.673068 0.530674 0.138321
O81   O     O_R   0.887321 0.645491 0.545977 -0.344792
O82   O     O_R   0.022837 0.752365 0.536389 -0.235493
N29   N     N_R   0.714390 0.003573 0.966132 0.115448
O83   O     O_R   0.725125 0.022684 0.938252 -0.374625
O84   O     O_R   0.768476 0.981226 0.977577 -0.225918
N30   N     N_R   0.302266 0.276330 0.530023 0.113946
O85   O     O_R   0.319356 0.246930 0.553988 -0.342432
O86   O     O_R   0.218628 0.242936 0.522978 -0.237375
N31   N     N_R   0.700800 0.996536 0.467179 0.146523
O87   O     O_R   0.679675 0.932392 0.449069 -0.351370
O88   O     O_R   0.781761 0.061330 0.466744 -0.243680
N32   N     N_R   0.970878 0.697299 0.038052 0.121576
O89   O     O_R   0.984085 0.703887 0.066331 -0.366791
O90   O     O_R   0.956741 0.757003 0.026531 -0.225208
N33   N     N_R   0.287417 0.292808 0.467028 0.118977
O91   O     O_R   0.260215 0.311636 0.442853 -0.354368
O92   O     O_R   0.254667 0.208874 0.473459 -0.241501
N34   N     N_R   0.685977 0.954068 0.028112 0.143759
O93   O     O_R   0.662377 0.885750 0.045161 -0.332734
O94   O     O_R   0.767134 0.018915 0.030396 -0.241763
N35   N     N_R   0.019175 0.711149 0.469923 0.120565
O95   O     O_R   0.036751 0.725447 0.442177 -0.362303
O96   O     O_R   0.013482 0.773024 0.483851 -0.229482
N36   N     N_R   0.267784 0.290201 0.031560 0.120555
O97   O     O_R   0.242553 0.306734 0.056558 -0.338788
O98   O     O_R   0.231516 0.207183 0.023713 -0.232565
C169  C     C_3   0.880184 0.591087 0.886134 -0.170733
C170  C     C_3   0.870722 0.661354 0.868559 -0.289115
C171  C     C_3   0.888226 0.740250 0.887422 -0.338009
H25   H     H_    0.859686 0.721688 0.909811 0.277536
H26   H     H_    0.960148 0.784687 0.889680 0.165218
H27   H     H_    0.857939 0.774930 0.876098 0.188891
H28   H     H_    0.920467 0.688366 0.850625 0.170314
H29   H     H_    0.804330 0.635096 0.859356 0.234622
H30   H     H_    0.832150 0.568116 0.904658 0.266150
H31   H     H_    0.952296 0.632034 0.889538 0.227167
C172  C     C_3   0.687853 0.074514 0.616167 -0.191308
C173  C     C_3   0.771472 0.085552 0.632743 -0.274017
C174  C     C_3   0.840101 0.081795 0.612589 -0.322144
H32   H     H_    0.816360 0.014065 0.604939 0.191275
H33   H     H_    0.858008 0.125201 0.592862 0.273830
H34   H     H_    0.902069 0.104556 0.625441 0.167355
H35   H     H_    0.810312 0.151658 0.642838 0.239493
H36   H     H_    0.752600 0.035149 0.650179 0.178202
H37   H     H_    0.657072 0.011150 0.604664 0.208337
H38   H     H_    0.717016 0.131350 0.602411 0.288324
C175  C     C_3   0.393835 0.295668 0.885005 -0.188371
C176  C     C_3   0.320497 0.216525 0.867348 -0.283433
C177  C     C_3   0.244420 0.148015 0.886300 -0.331211
H39   H     H_    0.266563 0.137048 0.908016 0.271801
H40   H     H_    0.194748 0.168370 0.889904 0.179859
H41   H     H_    0.212260 0.083603 0.874432 0.179840
H42   H     H_    0.290560 0.239869 0.850584 0.183757
H43   H     H_    0.348504 0.178615 0.856884 0.225202
H44   H     H_    0.430344 0.267479 0.895882 0.263948
H45   H     H_    0.357918 0.319076 0.898660 0.225525
C178  C     C_3   0.901485 0.592733 0.613597 -0.167151
C179  C     C_3   0.890252 0.664359 0.629537 -0.290094
C180  C     C_3   0.904397 0.738173 0.608602 -0.328585
H46   H     H_    0.972641 0.771880 0.600181 0.197230
H47   H     H_    0.858978 0.714053 0.589485 0.280479
H48   H     H_    0.890699 0.784550 0.620984 0.175331
H49   H     H_    0.824862 0.639446 0.638974 0.248013
H50   H     H_    0.939611 0.695201 0.647576 0.167344
H51   H     H_    0.974117 0.633051 0.612549 0.228010
H52   H     H_    0.859495 0.571968 0.593546 0.267147
C181  C     C_3   0.691527 0.071669 0.882639 -0.183007
C182  C     C_3   0.778030 0.089045 0.865924 -0.269407
C183  C     C_3   0.846081 0.083765 0.885945 -0.334081
H53   H     H_    0.861769 0.125059 0.906138 0.273236
H54   H     H_    0.821831 0.014891 0.892623 0.194694
H55   H     H_    0.909350 0.109326 0.873564 0.157839
H56   H     H_    0.762241 0.041988 0.847554 0.171258
H57   H     H_    0.817335 0.156495 0.856775 0.238961
H58   H     H_    0.718779 0.117329 0.900488 0.292699
H59   H     H_    0.658465 0.003367 0.890715 0.187307
C184  C     C_3   0.403709 0.302619 0.612308 -0.181946
C185  C     C_3   0.326589 0.229561 0.630731 -0.280148
C186  C     C_3   0.246693 0.163244 0.612836 -0.333030
H60   H     H_    0.207736 0.193427 0.605347 0.186746
H61   H     H_    0.264321 0.136762 0.593328 0.273901
H62   H     H_    0.205108 0.105324 0.627275 0.163716
H63   H     H_    0.348491 0.187200 0.641515 0.236133
H64   H     H_    0.302837 0.258949 0.647431 0.178821
H65   H     H_    0.373127 0.329757 0.597579 0.208238
H66   H     H_    0.435223 0.268848 0.601899 0.273562
C187  C     C_3   0.600776 0.909257 0.386373 -0.175046
C188  C     C_3   0.665846 0.888589 0.370333 -0.288403
C189  C     C_3   0.740978 0.900459 0.390225 -0.325657
H67   H     H_    0.778377 0.969050 0.398133 0.198319
H68   H     H_    0.717224 0.855733 0.409584 0.277116
H69   H     H_    0.784513 0.884353 0.377102 0.177016
H70   H     H_    0.634385 0.821407 0.362261 0.252951
H71   H     H_    0.696699 0.933768 0.351245 0.163895
H72   H     H_    0.646335 0.980699 0.386468 0.231542
H73   H     H_    0.578732 0.870491 0.407258 0.250226
C190  C     C_3   0.072121 0.690436 0.118060 -0.183162
C191  C     C_3   0.091796 0.778581 0.134110 -0.265397
C192  C     C_3   0.088992 0.846510 0.113262 -0.321712
H74   H     H_    0.119299 0.850378 0.091317 0.268074
H75   H     H_    0.020078 0.829743 0.109673 0.186562
H76   H     H_    0.126425 0.913385 0.123458 0.172410
H77   H     H_    0.044578 0.765719 0.152173 0.173928
H78   H     H_    0.159101 0.815305 0.143782 0.232343
H79   H     H_    0.122390 0.715290 0.101401 0.284902
H80   H     H_    0.004294 0.659457 0.110271 0.210573
C193  C     C_3   0.312337 0.392249 0.386241 -0.195978
C194  C     C_3   0.231674 0.321275 0.368493 -0.285795
C195  C     C_3   0.160831 0.246753 0.387140 -0.329767
H81   H     H_    0.184664 0.203364 0.395605 0.195631
H82   H     H_    0.138465 0.271666 0.405993 0.274226
H83   H     H_    0.101471 0.207495 0.372984 0.172540
H84   H     H_    0.193936 0.350262 0.359230 0.249227
H85   H     H_    0.252268 0.292003 0.350737 0.177494
H86   H     H_    0.342950 0.358848 0.397922 0.193688
H87   H     H_    0.280822 0.417523 0.400290 0.287969
C196  C     C_3   0.593683 0.887939 0.113298 -0.169754
C197  C     C_3   0.662869 0.875602 0.130807 -0.283808
C198  C     C_3   0.742618 0.894727 0.112166 -0.337360
H88   H     H_    0.724132 0.858101 0.090996 0.277517
H89   H     H_    0.781232 0.966274 0.107365 0.180656
H90   H     H_    0.783007 0.873566 0.125034 0.175906
H91   H     H_    0.689538 0.923367 0.149335 0.165427
H92   H     H_    0.637416 0.809073 0.139523 0.241473
H93   H     H_    0.577226 0.849426 0.092472 0.259889
H94   H     H_    0.633596 0.960419 0.112310 0.223630
C199  C     C_3   0.102674 0.693714 0.387188 -0.174096
C200  C     C_3   0.108192 0.775355 0.371414 -0.275074
C201  C     C_3   0.102392 0.842978 0.391402 -0.306148
H95   H     H_    0.035389 0.816618 0.400244 0.195568
H96   H     H_    0.149956 0.866514 0.410197 0.278397
H97   H     H_    0.118320 0.902288 0.377988 0.167741
H98   H     H_    0.173324 0.815350 0.361105 0.233546
H99   H     H_    0.056797 0.754281 0.354099 0.168980
H100  H     H_    0.040999 0.665188 0.399564 0.221212
H101  H     H_    0.166953 0.719346 0.398692 0.275516
C202  C     C_3   0.302199 0.391928 0.114467 -0.188468
C203  C     C_3   0.222196 0.318993 0.132206 -0.280327
C204  C     C_3   0.152265 0.243316 0.113451 -0.327996
H102  H     H_    0.129424 0.266623 0.094423 0.279013
H103  H     H_    0.177540 0.200491 0.105505 0.188924
H104  H     H_    0.092871 0.203753 0.127502 0.164282
H105  H     H_    0.244648 0.289123 0.149337 0.178128
H106  H     H_    0.183723 0.346916 0.142232 0.235176
H107  H     H_    0.273728 0.426511 0.103414 0.279066
H108  H     H_    0.327399 0.357893 0.100431 0.204117
N37   N     N_R   0.083799 0.400009 0.119366 0.090699
O99   O     O_R   0.137897 0.406432 0.098779 -0.332748
O100  O     O_R   0.023518 0.322960 0.129573 -0.319559
N38   N     N_R   0.309007 0.906259 0.385408 0.065331
O101  O     O_R   0.285844 0.963332 0.377020 -0.337740
O102  O     O_R   0.274874 0.856966 0.408434 -0.365209
N39   N     N_R   0.597979 0.678519 0.114881 0.076761
O103  O     O_R   0.590779 0.723631 0.093105 -0.359179
O104  O     O_R   0.675017 0.690943 0.123341 -0.316077
N40   N     N_R   0.090779 0.398110 0.379694 0.091980
O105  O     O_R   0.036706 0.317800 0.370609 -0.338150
O106  O     O_R   0.151225 0.414230 0.399312 -0.341160
N41   N     N_R   0.310326 0.903611 0.116011 0.095617
O107  O     O_R   0.243348 0.841369 0.102419 -0.372660
O108  O     O_R   0.318335 0.980759 0.120422 -0.302486
N42   N     N_R   0.594012 0.691160 0.386483 0.076300
O109  O     O_R   0.674740 0.717836 0.377964 -0.345997
O110  O     O_R   0.577573 0.729311 0.408298 -0.361960
N43   N     N_R   0.387263 0.063402 0.620845 0.106531
O111  O     O_R   0.314522 0.000374 0.632462 -0.302247
O112  O     O_R   0.385196 0.119433 0.602739 -0.361368
N44   N     N_R   0.904451 0.311679 0.884170 0.097589
O113  O     O_R   0.840999 0.243322 0.896936 -0.364049
O114  O     O_R   0.981799 0.319514 0.880058 -0.298507
N45   N     N_R   0.693636 0.592929 0.613185 0.074757
O115  O     O_R   0.718441 0.673475 0.621296 -0.340200
O116  O     O_R   0.730579 0.577430 0.590834 -0.358764
N46   N     N_R   0.399227 0.081960 0.883064 0.083004
O117  O     O_R   0.396929 0.123805 0.906501 -0.343682
O118  O     O_R   0.325269 0.020018 0.871077 -0.310100
N47   N     N_R   0.904529 0.302076 0.617977 0.093057
O119  O     O_R   0.966978 0.289318 0.628038 -0.324861
O120  O     O_R   0.844081 0.246589 0.600414 -0.365653
N48   N     N_R   0.673544 0.599498 0.884909 0.078948
O121  O     O_R   0.719155 0.596402 0.907078 -0.359987
O122  O     O_R   0.684777 0.674748 0.875314 -0.317683

loop_
_geom_bond_atom_site_label_1
_geom_bond_atom_site_label_2
_geom_bond_distance
_ccdc_geom_bond_type
C88   C95   1.421497 A    
C118  N46   1.436758 S    
N39   O103  1.305629 A    
C131  H23   1.088219 S    
C38   O28   1.185529 D    
C19   C122  1.390035 A    
C51   C63   1.410471 A    
C198  H88   1.104276 S    
N4    C52   1.406360 Am   
N23   O71   1.302994 A    
C52   C64   1.411872 A    
C109  C157  1.456603 A    
N46   O117  1.298880 A    
C120  C168  1.446340 A    
C144  N15   1.437186 S    
N27   O80   1.309104 A    
C169  C170  1.541789 S    
C33   C45   1.429738 A    
N20   O65   1.294229 A    
C94   N29   1.460274 S    
C196  H93   1.106956 S    
C42   N6    1.406322 Am   
C184  H65   1.099731 S    
N8    C56   1.428121 Am   
C55   C67   1.418574 A    
N40   O106  1.296469 A    
O21   C9    1.336780 A    
C145  C157  1.506039 A    
O10   Cr4   2.106372 S    
H11   C100  1.083023 S    
C18   C141  1.390762 A    
O12   Cr6   2.106657 S    
C92   N25   1.456211 S    
C170  H28   1.105978 S    
H5    C106  1.089316 S    
N34   O93   1.303268 A    
C89   C94   1.422499 A    
N42   O110  1.300967 A    
C88   N35   1.473177 S    
H7    C98   1.086750 S    
O1    Cr1   2.108152 S    
C45   O35   1.212107 D    
O3    Cr3   2.105448 S    
N2    C50   1.422225 Am   
O7    C9    1.320486 A    
Cr6   O26   2.071956 S    
C200  C201  1.533161 S    
C133  N20   1.434675 S    
C197  H91   1.106466 S    
C45   N9    1.409742 Am   
N36   O97   1.295930 A    
C87   N36   1.460056 S    
C10   C24   1.515466 S    
C171  H26   1.103404 S    
C54   C66   1.415418 A    
C99   C108  1.393436 A    
C119  N47   1.383619 S    
C102  C105  1.398852 A    
C36   C48   1.425262 A    
C197  H92   1.091341 S    
C100  C107  1.392155 A    
C35   C95   1.442731 A    
O14   Cr2   1.993934 S    
C65   C77   1.399744 A    
C20   C133  1.392628 A    
O15   C3    1.330886 A    
N27   O79   1.290376 A    
C183  H53   1.108577 S    
C172  H38   1.061569 S    
N28   O81   1.290101 A    
C112  C124  1.388121 A    
C152  C169  1.521101 S    
O14   C2    1.348157 A    
C174  H34   1.112055 S    
C190  H80   1.086464 S    
C48   N12   1.419305 Am   
O15   Cr3   1.991190 S    
C28   C40   1.418799 A    
C57   C69   1.413974 A    
O5    C1    1.321677 A    
C198  H90   1.112390 S    
N16   O58   1.311784 A    
C180  H48   1.107787 S    
C153  C184  1.522746 S    
C184  C185  1.554664 S    
C169  H30   1.107997 S    
N26   O77   1.281280 A    
C7    C21   1.519161 S    
C173  H35   1.104966 S    
C142  C154  1.435345 A    
N7    C163  1.553402 S    
C202  H107  1.080597 S    
C139  N14   1.425655 S    
C47   O37   1.173826 D    
C91   N26   1.465212 S    
C97   C104  1.392187 A    
C187  C188  1.539343 S    
C115  N43   1.412440 S    
O23   Cr5   1.994648 S    
Cr2   O25   2.068097 S    
N21   O68   1.316270 A    
C180  H46   1.101117 S    
N18   O61   1.308050 A    
N5    C53   1.439723 Am   
N44   O113  1.290121 A    
N9    C165  1.542293 S    
C117  C165  1.430929 A    
C182  H56   1.101884 S    
C46   N10   1.397684 Am   
C204  H102  1.107388 S    
C26   C38   1.418980 A    
C41   O31   1.187529 D    
C188  C189  1.517195 S    
C48   O38   1.209796 D    
O21   Cr6   1.991286 S    
N8    C164  1.573126 S    
N45   O116  1.298478 A    
N33   O91   1.296451 A    
C149  C196  1.524248 S    
N1    C157  1.555018 S    
C11   C19   1.506929 S    
C12   C20   1.485940 S    
C77   C82   1.413337 A    
C200  H99   1.104949 S    
H1    C104  1.089562 S    
C196  H94   1.101277 S    
C186  H61   1.108819 S    
C116  C128  1.396511 A    
C28   C76   1.398671 A    
C156  C168  1.486220 A    
C140  N13   1.434146 S    
C153  C165  1.477173 A    
N39   O104  1.310341 A    
C136  C148  1.440603 A    
C148  C199  1.508338 S    
C150  C193  1.531728 S    
N23   O72   1.306180 A    
C148  C160  1.488215 A    
C22   C137  1.392306 A    
N43   O112  1.291366 A    
C68   C80   1.401580 A    
N13   O51   1.301815 A    
N10   C58   1.401838 Am   
C176  H43   1.110575 S    
C112  C160  1.446579 A    
C146  C187  1.525115 S    
C65   C101  1.423057 A    
C179  C180  1.517945 S    
O3    C5    1.320853 A    
C24   C135  1.399355 A    
H8    C97   1.086980 S    
C54   O44   1.222228 D    
N32   O90   1.298682 A    
C59   C71   1.421870 A    
C112  N40   1.408261 S    
C60   C72   1.407885 A    
C36   C84   1.401583 A    
C64   C100  1.407289 A    
C47   N11   1.385504 Am   
N38   O101  1.310072 A    
N41   O107  1.286606 A    
C116  N44   1.382658 S    
C195  H82   1.113375 S    
C63   C99   1.412588 A    
C49   O39   1.195843 D    
C35   C47   1.413205 A    
C194  H85   1.105163 S    
C17   C130  1.381723 A    
C175  H44   1.100174 S    
C29   C77   1.393826 A    
C138  N21   1.422191 S    
N19   O64   1.300377 A    
C85   N32   1.474050 S    
C203  H106  1.109186 S    
C27   C87   1.454599 A    
C134  N19   1.431703 S    
C28   C88   1.450041 A    
C23   C136  1.388119 A    
N48   O121  1.296988 A    
C154  C166  1.497685 A    
C119  C131  1.390524 A    
C27   C39   1.427468 A    
N29   O84   1.299588 A    
O22   C10   1.346865 A    
C37   N1    1.395322 Am   
C113  C125  1.393956 A    
C187  H73   1.110813 S    
O8    Cr5   2.110187 S    
C15   C144  1.398001 A    
C192  H76   1.115132 S    
N35   O96   1.300290 A    
C22   C125  1.375762 A    
C170  C171  1.518361 S    
C110  C122  1.405563 A    
C30   C42   1.426086 A    
C199  H101  1.108624 S    
C171  H25   1.100773 S    
C55   O45   1.198559 D    
C203  C204  1.530264 S    
N22   O70   1.306059 A    
C179  H49   1.086794 S    
C64   C76   1.393641 A    
C204  H104  1.113519 S    
C150  C162  1.478252 A    
O2    Cr2   2.107811 S    
C63   C75   1.409284 A    
N47   O119  1.302610 A    
N19   O63   1.303788 A    
H10   C101  1.090609 S    
O8    C10   1.319770 A    
C62   C74   1.406916 A    
C30   C78   1.402937 A    
C29   C41   1.431648 A    
C56   C68   1.413289 A    
C123  H15   1.085252 S    
C31   C43   1.418392 A    
C197  C198  1.516707 S    
C177  H40   1.105810 S    
C169  H31   1.105640 S    
C95   N28   1.449118 S    
C121  H13   1.090036 S    
C156  C175  1.523616 S    
C16   C143  1.381370 A    
C125  H17   1.088908 S    
C135  N24   1.440024 S    
O20   C8    1.343378 A    
C183  H55   1.114419 S    
C115  C163  1.452314 A    
C141  C153  1.438127 A    
N16   O57   1.292789 A    
C113  C161  1.451922 A    
C139  C151  1.443319 A    
N46   O118  1.317168 A    
C193  H87   1.071873 S    
C70   C106  1.406182 A    
C101  C106  1.397022 A    
C66   C78   1.412432 A    
C13   C140  1.391199 A    
N20   O66   1.303036 A    
C73   C80   1.414629 A    
C60   O50   1.221607 D    
C74   C79   1.416254 A    
H9    C102  1.089586 S    
C58   C70   1.423326 A    
C61   C73   1.398380 A    
C62   C98   1.409582 A    
C120  N48   1.408873 S    
N17   O60   1.304878 A    
C135  C147  1.444713 A    
O17   Cr2   1.992220 S    
C38   N2    1.387866 Am   
C154  C181  1.542079 S    
C118  C130  1.384011 A    
C25   C85   1.448869 A    
C133  C145  1.441057 A    
O19   Cr4   1.991576 S    
C170  H29   1.094273 S    
Cr4   O26   2.067745 S    
N42   O109  1.304307 A    
N34   O94   1.303540 A    
C176  C177  1.529878 S    
C1    C15   1.514005 S    
C201  H96   1.111722 S    
C2    C16   1.487584 S    
C4    C18   1.518725 S    
C20   C121  1.373847 A    
C69   C105  1.413699 A    
C193  C194  1.554602 S    
O17   C5    1.341676 A    
C113  N41   1.379913 S    
C110  C158  1.430510 A    
C72   C108  1.409928 A    
O19   C7    1.351323 A    
C175  C176  1.554723 S    
C34   C46   1.416713 A    
C71   C107  1.410284 A    
C145  C190  1.530258 S    
C13   C128  1.377484 A    
C191  H78   1.109400 S    
C61   C97   1.415508 A    
C41   N5    1.403164 Am   
C188  H70   1.082311 S    
N24   O73   1.320433 A    
C189  H69   1.108344 S    
C43   N7    1.394415 Am   
C67   C103  1.409333 A    
C109  N37   1.414401 S    
N37   O100  1.310781 A    
C138  C150  1.441993 A    
C78   C81   1.406778 A    
C58   O48   1.207418 D    
N12   C168  1.547686 S    
C76   C83   1.413123 A    
C172  H37   1.091833 S    
N28   O82   1.300870 A    
C178  C179  1.543340 S    
C174  H33   1.108375 S    
C190  H79   1.069692 S    
C181  H59   1.097719 S    
C98   C103  1.397770 A    
O16   Cr1   1.993168 S    
N31   O87   1.284795 A    
C26   C74   1.387894 A    
O5    Cr2   2.109618 S    
C198  H89   1.106903 S    
N1    C49   1.411323 Am   
N3    C51   1.426065 Am   
N26   O78   1.296808 A    
N11   C167  1.567544 S    
C33   C81   1.403106 A    
C70   C82   1.405831 A    
C173  H36   1.101976 S    
C66   C102  1.413245 A    
N7    C55   1.409548 Am   
C184  H66   1.097553 S    
H4    C107  1.087610 S    
C56   O46   1.201492 D    
N40   O105  1.306576 A    
C57   O47   1.223200 D    
N29   O83   1.290103 A    
N3    C159  1.545772 S    
C132  H24   1.083527 S    
C25   C73   1.396844 A    
Cr1   O25   2.065393 S    
C90   N33   1.461640 S    
C49   C61   1.414166 A    
O18   Cr3   1.990418 S    
N21   O67   1.292026 A    
C50   O40   1.218420 D    
C149  C161  1.511855 A    
N44   O114  1.304426 A    
N5    C161  1.561234 S    
N15   O55   1.313015 A    
C147  C159  1.481174 A    
N25   O76   1.298100 A    
C182  H57   1.106522 S    
N48   O122  1.305877 A    
C44   O34   1.170943 D    
N47   O120  1.287861 A    
C5    C13   1.496214 S    
C89   N34   1.455837 S    
C117  N45   1.406627 S    
C194  C195  1.524704 S    
Cr5   O26   2.065610 S    
C69   C81   1.412120 A    
C191  H77   1.100625 S    
C29   C89   1.445888 A    
C8    C22   1.498828 S    
C186  H60   1.105361 S    
C33   C93   1.451963 A    
C152  C164  1.515880 A    
C171  H27   1.111347 S    
C189  H67   1.100394 S    
C130  H22   1.078622 S    
C142  N17   1.437686 S    
C26   C86   1.439880 A    
C144  C156  1.441843 A    
N35   O95   1.282682 A    
N6    C54   1.423987 Am   
N15   O56   1.319506 A    
C147  C202  1.523021 S    
N10   C166  1.526757 S    
C118  C166  1.456631 A    
C40   N4    1.394913 Am   
N30   O86   1.314022 A    
C42   O32   1.213800 D    
C16   C131  1.380195 A    
C178  H52   1.104829 S    
C25   C37   1.416340 A    
C44   N8    1.405211 Am   
C115  C127  1.390201 A    
O4    Cr1   2.108952 S    
N14   O54   1.308844 A    
N2    C158  1.550772 S    
O9    C11   1.313616 A    
O6    Cr3   2.106455 S    
O10   C12   1.323022 A    
C185  H63   1.104883 S    
C176  H42   1.108311 S    
C90   C93   1.446082 A    
O16   C4    1.352073 A    
C172  C173  1.566502 S    
C146  C158  1.498876 A    
C151  C172  1.527210 S    
C202  H108  1.103160 S    
N25   O75   1.298063 A    
C190  C191  1.580037 S    
N45   O115  1.304066 A    
N43   O111  1.305408 A    
C67   C79   1.391932 A    
C185  C186  1.524717 S    
O20   Cr5   1.993454 S    
N11   C59   1.430004 Am   
O6    C2    1.310047 A    
O24   Cr6   1.990827 S    
N30   O85   1.294883 A    
O9    Cr6   2.106381 S    
C120  C132  1.408163 A    
C111  N39   1.405223 S    
C116  C164  1.450228 A    
C187  H72   1.096016 S    
C180  H47   1.102511 S    
C21   C138  1.390893 A    
C192  H75   1.101044 S    
N9    C57   1.423795 Am   
C86   N31   1.447496 S    
C199  H100  1.088981 S    
C141  N18   1.424850 S    
C32   C92   1.455291 A    
C40   O30   1.198001 D    
C179  H50   1.109337 S    
C204  H103  1.105761 S    
C155  C178  1.525761 S    
C127  H19   1.081320 S    
C23   C124  1.376890 A    
C3    C17   1.486798 S    
N41   O108  1.303258 A    
C182  C183  1.533857 S    
C129  H21   1.082921 S    
C46   O36   1.204714 D    
C177  H39   1.104551 S    
N33   O92   1.315396 A    
O7    Cr4   2.108060 S    
O18   C6    1.335820 A    
C32   C44   1.422178 A    
O13   Cr1   1.994101 S    
C200  H98   1.097963 S    
C119  C167  1.434223 A    
C186  H62   1.114601 S    
C137  C149  1.436514 A    
C85   C92   1.433127 A    
C27   C75   1.402305 A    
C86   C91   1.428228 A    
C19   C134  1.391256 A    
O12   C8    1.321936 A    
C24   C123  1.385523 A    
O13   C1    1.344897 A    
C59   O49   1.212709 D    
C155  C167  1.515786 A    
C43   O33   1.197318 D    
C183  H54   1.101663 S    
C111  C159  1.439280 A    
C114  C126  1.411097 A    
N6    C162  1.541988 S    
N31   O88   1.297121 A    
C140  C152  1.434986 A    
C114  N42   1.404792 S    
N4    C160  1.556309 S    
C36   C96   1.455555 A    
C143  N16   1.428479 S    
C193  H86   1.105672 S    
C196  C197  1.549085 S    
N13   O52   1.305080 A    
O22   Cr4   1.993239 S    
N14   O53   1.297827 A    
Cr3   O25   2.071822 S    
C21   C126  1.391023 A    
C109  C121  1.378535 A    
C93   N30   1.457753 S    
H2    C103  1.083889 S    
C151  C163  1.497059 A    
N32   O89   1.290433 A    
C17   C142  1.401217 A    
C185  H64   1.105332 S    
C37   O27   1.198164 D    
C14   C139  1.389646 A    
C51   O41   1.220479 D    
C195  H81   1.103236 S    
C68   C104  1.413866 A    
C178  H51   1.102865 S    
N17   O59   1.299836 A    
N36   O98   1.310851 A    
C195  H83   1.114493 S    
C110  N38   1.400352 S    
C39   O29   1.210271 D    
C173  C174  1.534969 S    
C72   C84   1.409801 A    
C143  C155  1.432090 A    
C194  H84   1.098369 S    
C175  H45   1.097053 S    
C122  H14   1.080481 S    
N18   O62   1.298978 A    
C203  H105  1.109715 S    
C34   C82   1.396721 A    
C71   C83   1.403787 A    
C111  C123  1.405864 A    
C31   C91   1.440706 A    
C53   C65   1.409757 A    
C126  H18   1.082674 S    
C15   C132  1.384023 A    
C9    C23   1.488337 S    
C137  N22   1.430560 S    
O1    C3    1.325779 A    
C31   C79   1.395586 A    
C191  C192  1.536898 S    
C32   C80   1.382630 A    
C114  C162  1.427005 A    
C52   O42   1.198461 D    
C35   C83   1.379113 A    
C50   C62   1.417373 A    
C75   C84   1.405069 A    
C136  N23   1.431096 S    
O23   C11   1.351743 A    
O24   C12   1.329253 A    
N38   O102  1.289529 A    
C96   N27   1.462248 S    
N22   O69   1.304861 A    
C201  H97   1.110432 S    
H3    C108  1.089570 S    
C202  C203  1.561443 S    
C188  H71   1.109052 S    
C181  C182  1.579104 S    
N24   O74   1.322597 A    
C189  H68   1.105376 S    
C14   C127  1.372161 A    
C6    C14   1.495198 S    
C18   C129  1.393096 A    
C39   N3    1.412972 Am   
O11   Cr5   2.108776 S    
C192  H74   1.109000 S    
N37   O99   1.290713 A    
C134  C146  1.436434 A    
C30   C90   1.453251 A    
C117  C129  1.414203 A    
O11   C7    1.314952 A    
C201  H95   1.097712 S    
C124  H16   1.083763 S    
C177  H41   1.113493 S    
C199  C200  1.556984 S    
N12   C60   1.426350 Am   
C34   C94   1.443692 A    
O2    C4    1.314121 A    
C128  H20   1.086849 S    
C53   O43   1.205444 D    
C174  H32   1.098195 S    
H6    C105  1.089996 S    
C181  H58   1.064129 S    
O4    C6    1.322287 A    
C87   C96   1.442421 A    
H12   C99   1.089828 S    
