data_mof_unit_15508.cif
_audit_creation_date              2012-12-11T15:43:11-0500
_audit_creation_method            fapswitch 2.2
_symmetry_space_group_name_H-M    P1
_symmetry_Int_Tables_number       1
_space_group_crystal_system       triclinic
_cell_length_a                    19.186381
_cell_length_b                    11.016507
_cell_length_c                    18.770351
_cell_angle_alpha                 89.954353
_cell_angle_beta                  89.608364
_cell_angle_gamma                 89.902567
_cell_volume                      3967.33127239

loop_
_atom_site_label
_atom_site_type_symbol
_atom_type_description
_atom_site_fract_x
_atom_site_fract_y
_atom_site_fract_z
_atom_type_partial_charge
Br1   Br    Br    0.674593 0.712064 0.397686 -0.519149
Br2   Br    Br    0.405059 0.865458 0.563199 -0.552443
Br3   Br    Br    0.174613 0.212037 0.397672 -0.519055
Br4   Br    Br    0.905075 0.365508 0.563187 -0.552301
C1    C     C_R   0.711560 0.329199 0.138921 0.563250
C2    C     C_R   0.993348 0.994172 0.032958 -0.145810
C3    C     C_R   0.755019 0.433175 0.571786 0.013027
C4    C     C_R   0.728692 0.377788 0.352293 0.571008
C5    C     C_R   0.271810 0.373265 0.646205 0.560307
C6    C     C_R   0.228690 0.877783 0.352295 0.571015
C7    C     C_R   0.771807 0.873274 0.646208 0.560285
C8    C     C_R   0.531328 0.156596 0.352654 0.530102
C9    C     C_R   0.465976 0.158112 0.645793 0.552287
C10   C     C_R   0.031324 0.656596 0.352650 0.530100
C11   C     C_R   0.965965 0.658110 0.645789 0.552288
C12   C     C_R   0.742353 0.969729 0.353181 0.573485
C13   C     C_R   0.511440 0.492892 0.961273 -0.137471
C14   C     C_R   0.260046 0.973092 0.644918 0.560534
C15   C     C_R   0.242356 0.469722 0.353178 0.573482
C16   C     C_R   0.760049 0.473099 0.644915 0.560531
C17   C     C_R   0.498507 0.161412 0.924834 0.001340
C18   C     C_R   0.502295 0.163203 0.074652 0.002032
C19   C     C_R   0.998507 0.661412 0.924834 0.001339
C20   C     C_R   0.002295 0.663203 0.074652 0.002033
C21   C     C_R   0.505236 0.272784 0.961335 0.022660
C22   C     C_R   0.499924 0.274132 0.036723 0.025829
C23   C     C_R   0.005236 0.772784 0.961335 0.022659
C24   C     C_R   0.493348 0.494172 0.032958 -0.145810
C25   C     C_R   0.999924 0.774132 0.036723 0.025829
C26   C     C_R   0.497357 0.054124 0.037033 -0.171422
C27   C     C_R   0.498792 0.052987 0.963778 -0.172638
C28   C     C_R   0.997357 0.554124 0.037033 -0.171422
C29   C     C_R   0.998792 0.552987 0.963778 -0.172638
C30   C     C_R   0.779517 0.840159 0.938468 0.001851
C31   C     C_R   0.219748 0.842789 0.061853 -0.000458
C32   C     C_R   0.279517 0.340159 0.938468 0.001852
C33   C     C_R   0.719748 0.342790 0.061853 -0.000458
C34   C     C_R   0.720917 0.797630 0.976169 0.001375
C35   C     C_R   0.272983 0.787629 0.021427 -0.002989
C36   C     C_R   0.220917 0.297630 0.976169 0.001375
C37   C     C_R   0.288261 0.329198 0.861123 0.565519
C38   C     C_R   0.772983 0.287629 0.021427 -0.002989
C39   C     C_R   0.710984 0.831659 0.046763 0.062251
C40   C     C_R   0.283140 0.821940 0.950901 0.056257
C41   C     C_R   0.210984 0.331659 0.046763 0.062251
C42   C     C_R   0.783141 0.321940 0.950901 0.056256
C43   C     C_R   0.823686 0.922417 0.049339 -0.153585
C44   C     C_R   0.179353 0.941680 0.954480 -0.151493
C45   C     C_R   0.323686 0.422417 0.049339 -0.153584
C46   C     C_R   0.679353 0.441680 0.954480 -0.151493
C47   C     C_R   0.833288 0.893056 0.977786 -0.139759
C48   C     C_R   0.211560 0.829199 0.138921 0.563250
C49   C     C_R   0.169867 0.911674 0.025476 -0.137169
C50   C     C_R   0.333288 0.393056 0.977786 -0.139759
C51   C     C_R   0.669867 0.411674 0.025476 -0.137170
C52   C     C_3   0.644575 0.811503 0.961568 -0.244383
C53   C     C_3   0.350169 0.779995 0.032709 -0.239608
C54   C     C_3   0.144575 0.311503 0.961568 -0.244384
C55   C     C_3   0.850169 0.279995 0.032709 -0.239607
C56   C     C_3   0.635619 0.853351 0.038351 -0.048425
C57   C     C_3   0.359773 0.821549 0.955818 -0.046485
C58   C     C_3   0.135619 0.353351 0.038351 -0.048427
C59   C     C_R   0.788261 0.829198 0.861123 0.565520
C60   C     C_3   0.859773 0.321549 0.955818 -0.046486
C61   C     C_R   0.759751 0.900817 0.083190 0.013228
C62   C     C_R   0.239301 0.904592 0.917503 0.010775
C63   C     C_R   0.259751 0.400817 0.083190 0.013230
C64   C     C_R   0.739301 0.404592 0.917503 0.010774
C65   C     C_R   0.531339 0.155388 0.146920 0.526895
C66   C     C_R   0.468967 0.154978 0.852812 0.522872
C67   C     C_R   0.031339 0.655388 0.146920 0.526887
C68   C     C_R   0.968967 0.654978 0.852812 0.522877
C69   C     C_R   0.487987 0.170857 0.572685 0.016134
C70   C     C_R   0.516500 0.383107 0.925038 -0.100763
C71   C     C_R   0.503442 0.159104 0.424366 0.011865
C72   C     C_R   0.987952 0.670855 0.572677 0.016202
C73   C     C_R   0.003455 0.659101 0.424367 0.011886
C74   C     C_R   0.516299 0.070059 0.540726 0.084670
C75   C     C_R   0.522422 0.062863 0.468585 0.060531
C76   C     C_R   0.016362 0.570126 0.540739 0.084626
C77   C     C_R   0.022510 0.562932 0.468602 0.060574
C78   C     C_R   0.468932 0.258870 0.454492 -0.168055
C79   C     C_R   0.460169 0.263523 0.528840 -0.152970
C80   C     C_R   0.968836 0.758766 0.454469 -0.168061
C81   C     C_R   0.490352 0.386257 0.071373 -0.108760
C82   C     C_R   0.960037 0.763402 0.528813 -0.152934
C83   C     C_3   0.583582 0.008316 0.554580 -0.279269
C84   C     C_3   0.590638 0.999383 0.474507 -0.241244
C85   C     C_3   0.083690 0.508548 0.554610 -0.279319
C86   C     C_3   0.090768 0.499611 0.474538 -0.241332
C87   C     C_R   0.753242 0.903343 0.574188 -0.014522
C88   C     C_R   0.242814 0.917534 0.423628 0.014985
C89   C     C_R   0.253250 0.403314 0.574182 -0.014466
C90   C     C_R   0.742822 0.417548 0.423623 0.014983
C91   C     C_R   0.778074 0.008452 0.543332 -0.028759
C92   C     C_R   0.016500 0.883107 0.925038 -0.100763
C93   C     C_R   0.186020 0.947330 0.467063 0.078703
C94   C     C_R   0.278064 0.508436 0.543329 -0.028761
C95   C     C_R   0.686029 0.447349 0.467058 0.078714
C96   C     C_R   0.778611 0.021284 0.471132 -0.022432
C97   C     C_R   0.192222 0.957725 0.539038 0.003095
C98   C     C_R   0.278609 0.521265 0.471129 -0.022423
C99   C     C_R   0.692231 0.457742 0.539034 0.003108
C100  C     C_R   0.719821 0.830228 0.456105 0.100127
C101  C     C_R   0.314839 0.909011 0.528164 0.111355
C102  C     C_R   0.219847 0.330187 0.456094 0.100110
C103  C     C_R   0.990352 0.886257 0.071373 -0.108761
C104  C     C_R   0.814849 0.409031 0.528157 0.111357
C105  C     C_R   0.720632 0.815587 0.530405 -0.131543
C106  C     C_R   0.308346 0.905695 0.454068 -0.139399
C107  C     C_R   0.220659 0.315541 0.530395 -0.131526
C108  C     C_R   0.808353 0.405704 0.454062 -0.139395
C109  C     C_3   0.844988 0.074254 0.551951 -0.232780
C110  C     C_3   0.116316 0.888661 0.473234 -0.233583
C111  C     C_3   0.344958 0.574285 0.551958 -0.232765
C112  C     C_3   0.616328 0.388674 0.473230 -0.233595
C113  C     C_R   0.742181 0.968242 0.148026 0.543930
C114  C     C_R   0.011440 0.992892 0.961273 -0.137471
C115  C     C_R   0.257780 0.968642 0.852019 0.540740
C116  C     C_R   0.242181 0.468242 0.148026 0.543929
C117  C     C_R   0.757780 0.468642 0.852019 0.540743
C118  C     C_3   0.847520 0.083855 0.471438 -0.233009
C119  C     C_3   0.122960 0.901011 0.553060 -0.282407
C120  C     C_3   0.347506 0.583872 0.471444 -0.232997
C121  C     C_3   0.622972 0.401019 0.553056 -0.282421
C122  C     C_R   0.752480 0.932006 0.425926 0.030104
C123  C     C_R   0.255010 0.933157 0.571792 0.013019
C124  C     C_R   0.252491 0.431983 0.425919 0.030142
Cr1   Cr    Cr6+3 0.772010 0.169670 0.250090 1.023063
Cr2   Cr    Cr6+3 0.383290 0.010760 0.749160 1.090623
Cr3   Cr    Cr6+3 0.116710 0.510760 0.250840 1.087590
Cr4   Cr    Cr6+3 0.883290 0.510760 0.749160 1.090626
Cr5   Cr    Cr6+3 0.227990 0.169670 0.749910 1.022871
Cr6   Cr    Cr6+3 0.272010 0.669670 0.250090 1.023059
Cr7   Cr    Cr6+3 0.727990 0.669670 0.749910 1.022854
Cr8   Cr    Cr6+3 0.615000 0.323260 0.249260 1.045935
Cr9   Cr    Cr6+3 0.385000 0.323260 0.750740 1.030328
Cr10  Cr    Cr6+3 0.115000 0.823260 0.249260 1.045943
Cr11  Cr    Cr6+3 0.885000 0.823260 0.750740 1.030327
Cr12  Cr    Cr6+3 0.616710 0.010760 0.250840 1.087570
H1    H     H_    0.496403 0.967472 0.064180 0.169995
H2    H     H_    0.133853 0.555726 0.452673 0.129861
H3    H     H_    0.576509 0.918806 0.580993 0.186775
H4    H     H_    0.633760 0.055416 0.452646 0.129966
H5    H     H_    0.622699 0.069256 0.579338 0.119111
H6    H     H_    0.586513 0.905241 0.454192 0.208798
H7    H     H_    0.122753 0.569586 0.579370 0.119097
H8    H     H_    0.086701 0.405461 0.454227 0.208777
H9    H     H_    0.699415 0.733019 0.553068 0.171594
H10   H     H_    0.353158 0.883936 0.420994 0.156285
H11   H     H_    0.199451 0.232965 0.553057 0.171590
H12   H     H_    0.496750 0.965479 0.937665 0.159856
H13   H     H_    0.853164 0.383941 0.420987 0.156295
H14   H     H_    0.888442 0.020152 0.573890 0.163261
H15   H     H_    0.118006 0.792852 0.455151 0.132568
H16   H     H_    0.388417 0.520219 0.573913 0.163287
H17   H     H_    0.618018 0.292864 0.455145 0.132599
H18   H     H_    0.834465 0.159973 0.580427 0.195766
H19   H     H_    0.074298 0.945967 0.450350 0.175295
H20   H     H_    0.334401 0.659997 0.580429 0.195746
H21   H     H_    0.574312 0.445986 0.450347 0.175269
H22   H     H_    0.844162 0.177555 0.451196 0.176524
H23   H     H_    0.996403 0.467472 0.064180 0.169995
H24   H     H_    0.085064 0.966337 0.576580 0.162027
H25   H     H_    0.344135 0.677563 0.451194 0.176518
H26   H     H_    0.585073 0.466338 0.576578 0.161997
H27   H     H_    0.889560 0.028087 0.446790 0.140009
H28   H     H_    0.126931 0.812429 0.581240 0.126052
H29   H     H_    0.389560 0.528120 0.446810 0.140008
H30   H     H_    0.626948 0.312432 0.581232 0.126080
H31   H     H_    0.530115 0.385439 0.869043 0.144275
H32   H     H_    0.476438 0.391441 0.127210 0.145729
H33   H     H_    0.030115 0.885439 0.869043 0.144277
H34   H     H_    0.996750 0.465479 0.937665 0.159856
H35   H     H_    0.976438 0.891441 0.127210 0.145728
H36   H     H_    0.020886 0.077018 0.933455 0.153918
H37   H     H_    0.981039 0.078574 0.058893 0.158738
H38   H     H_    0.520886 0.577018 0.933455 0.153918
H39   H     H_    0.481039 0.578574 0.058893 0.158738
H40   H     H_    0.862982 0.975044 0.075731 0.143333
H41   H     H_    0.143798 0.006242 0.931389 0.148637
H42   H     H_    0.362982 0.475044 0.075731 0.143333
H43   H     H_    0.643798 0.506242 0.931389 0.148637
H44   H     H_    0.880260 0.921895 0.951438 0.185962
H45   H     H_    0.451892 0.333843 0.421603 0.124396
H46   H     H_    0.126763 0.952791 0.053451 0.188769
H47   H     H_    0.380260 0.421896 0.951438 0.185962
H48   H     H_    0.626763 0.452791 0.053451 0.188769
H49   H     H_    0.119163 0.223209 0.950399 0.151476
H50   H     H_    0.867809 0.185500 0.042103 0.156681
H51   H     H_    0.619163 0.723209 0.950399 0.151476
H52   H     H_    0.367809 0.685500 0.042103 0.156682
H53   H     H_    0.633416 0.884158 0.922073 0.141973
H54   H     H_    0.369201 0.847262 0.072169 0.143881
H55   H     H_    0.133416 0.384158 0.922074 0.141974
H56   H     H_    0.431854 0.338422 0.551861 0.137207
H57   H     H_    0.869201 0.347262 0.072169 0.143881
H58   H     H_    0.623208 0.951406 0.043086 0.143510
H59   H     H_    0.381007 0.914663 0.951108 0.143466
H60   H     H_    0.123208 0.451405 0.043086 0.143510
H61   H     H_    0.881007 0.414663 0.951108 0.143465
H62   H     H_    0.951708 0.833648 0.421562 0.124404
H63   H     H_    0.931603 0.838166 0.551814 0.137244
H64   H     H_    0.076681 0.419030 0.581029 0.186696
I1    I     I_    0.581662 0.737170 0.110482 -0.401126
I2    I     I_    0.398621 0.693638 0.880431 -0.398145
I3    I     I_    0.081662 0.237169 0.110482 -0.401118
I4    I     I_    0.898621 0.193638 0.880431 -0.398141
O1    O     O_R   0.787520 0.042810 0.170440 -0.538000
O2    O     O_R   0.454050 0.051210 0.669140 -0.455476
O3    O     O_R   0.045950 0.551210 0.330860 -0.497037
O4    O     O_R   0.954050 0.551210 0.669140 -0.455454
O5    O     O_R   0.681390 0.959480 0.325510 -0.461080
O6    O     O_R   0.318610 0.959480 0.674490 -0.446900
O7    O     O_R   0.181390 0.459480 0.325510 -0.461079
O8    O     O_R   0.818610 0.459480 0.674490 -0.446922
O9    O     O_3   0.667900 0.167900 0.250060 -0.296603
O10   O     O_3   0.332100 0.167900 0.749940 -0.290021
O11   O     O_3   0.167900 0.667900 0.250060 -0.296607
O12   O     O_R   0.212480 0.042810 0.829560 -0.539775
O13   O     O_3   0.832100 0.667900 0.749940 -0.290029
O14   O     O_R   0.765640 0.292100 0.175020 -0.494538
O15   O     O_R   0.234360 0.292100 0.824980 -0.498558
O16   O     O_R   0.265640 0.792100 0.175020 -0.494536
O17   O     O_R   0.734360 0.792100 0.824980 -0.498559
O18   O     O_R   0.670190 0.408840 0.168540 -0.487541
O19   O     O_R   0.329810 0.408840 0.831460 -0.480160
O20   O     O_R   0.170190 0.908840 0.168540 -0.487538
O21   O     O_R   0.829810 0.908840 0.831460 -0.480158
O22   O     O_R   0.556620 0.251410 0.175160 -0.528583
O23   O     O_R   0.287520 0.542810 0.170440 -0.538001
O24   O     O_R   0.443380 0.251410 0.824840 -0.527147
O25   O     O_R   0.056620 0.751410 0.175160 -0.528586
O26   O     O_R   0.943380 0.751410 0.824840 -0.527142
O27   O     O_R   0.545960 0.049620 0.170320 -0.499601
O28   O     O_R   0.454040 0.049620 0.829680 -0.510768
O29   O     O_R   0.045960 0.549620 0.170320 -0.499605
O30   O     O_R   0.954040 0.549620 0.829680 -0.510765
O31   O     O_R   0.681390 0.958010 0.176690 -0.466967
O32   O     O_R   0.318610 0.958010 0.823310 -0.478284
O33   O     O_R   0.181390 0.458010 0.176690 -0.466969
O34   O     O_R   0.712480 0.542810 0.829560 -0.539774
O35   O     O_R   0.818610 0.458010 0.823310 -0.478284
O36   O     O_R   0.787510 0.044390 0.330970 -0.527052
O37   O     O_R   0.212490 0.044390 0.669030 -0.524620
O38   O     O_R   0.287510 0.544390 0.330970 -0.527054
O39   O     O_R   0.712490 0.544390 0.669030 -0.524620
O40   O     O_R   0.765630 0.293570 0.323840 -0.513443
O41   O     O_R   0.234370 0.293570 0.676160 -0.505812
O42   O     O_R   0.265630 0.793570 0.323840 -0.513448
O43   O     O_R   0.734370 0.793570 0.676160 -0.505811
O44   O     O_R   0.670190 0.410420 0.329080 -0.470759
O45   O     O_R   0.556610 0.252880 0.323980 -0.515521
O46   O     O_R   0.329810 0.410420 0.670920 -0.510561
O47   O     O_R   0.170190 0.910420 0.329080 -0.470743
O48   O     O_R   0.829810 0.910420 0.670920 -0.510568
O49   O     O_R   0.443390 0.252880 0.676020 -0.522539
O50   O     O_R   0.056610 0.752880 0.323980 -0.515524
O51   O     O_R   0.943390 0.752880 0.676020 -0.522556
O52   O     O_R   0.545950 0.051210 0.330860 -0.497075

loop_
_geom_bond_atom_site_label_1
_geom_bond_atom_site_label_2
_ccdc_geom_bond_type
C13   H38   S    
C74   C83   S    
C95   C99   A    
C83   C84   S    
Cr10  O50   S    
C54   C58   S    
C50   H47   S    
C27   H12   S    
C1    C33   S    
C111  H16   S    
C23   C25   A    
C51   H48   S    
C54   H55   S    
C5    O41   A    
C5    O46   A    
Cr4   O4    S    
C89   C94   A    
C109  H14   S    
C101  C106  A    
C57   H59   S    
C109  C118  S    
C37   O19   A    
C23   C92   A    
C59   O17   A    
C17   C27   A    
Cr2   O32   S    
C30   C47   A    
C97   C119  S    
C26   H1    S    
C43   C61   A    
C10   O3    A    
C96   C122  A    
C67   O29   A    
Cr7   O34   S    
C92   C114  A    
C80   C82   A    
C98   C124  A    
C53   H54   S    
C100  C105  A    
C56   I1    S    
C31   C49   A    
C45   C50   A    
C35   C53   S    
C28   H23   S    
C102  C124  A    
C15   C124  S    
C33   C38   A    
C1    O18   A    
Cr3   O11   S    
C21   C70   A    
C38   C42   A    
C10   C73   S    
C90   C108  A    
C76   C85   S    
Cr2   O10   S    
Cr4   O30   S    
C20   C25   A    
C86   H8    S    
C103  H35   S    
Cr5   O15   S    
C40   C62   A    
C121  H30   S    
C48   O20   A    
C16   O39   A    
C120  H29   S    
C46   H43   S    
C68   O26   A    
C19   C29   A    
Cr11  O51   S    
Cr9   O10   S    
C41   C63   A    
Cr12  O27   S    
Cr1   O9    S    
C2    C103  A    
Cr2   O6    S    
Cr4   O8    S    
C19   C23   A    
C109  H18   S    
C45   C63   A    
C63   C116  S    
C18   C65   S    
C96   C118  S    
Cr9   O46   S    
C16   O8    A    
C56   H58   S    
C57   I2    S    
C59   O21   A    
Cr11  O13   S    
C60   H61   S    
C1    O14   A    
C52   H51   S    
C114  H36   S    
C32   C50   A    
C3    C99   A    
C119  H28   S    
C32   C37   S    
C14   O6    A    
Cr10  O25   S    
C54   H49   S    
Cr9   O24   S    
C98   C120  S    
C9    O2    A    
C116  O23   A    
C75   C84   S    
C88   C93   A    
C102  C107  A    
Br3   C102  S    
C117  O34   A    
Cr7   O13   S    
C55   H57   S    
Cr6   O38   S    
Cr5   O12   S    
C36   C54   S    
C92   H33   S    
C101  C123  A    
C78   H45   S    
Cr3   O7    S    
Cr4   O13   S    
C81   H32   S    
Cr7   O39   S    
Cr8   O45   S    
C32   C36   A    
C4    C90   S    
C53   H52   S    
C60   I4    S    
C47   H44   S    
C10   O50   A    
C95   C112  S    
Cr12  O52   S    
Cr7   O17   S    
C91   C96   A    
Cr1   O14   S    
C43   C47   A    
Cr8   O9    S    
C73   C80   A    
C21   C22   A    
C94   C98   A    
C5    C89   S    
Cr8   O22   S    
C78   C79   A    
Cr12  O31   S    
C7    O43   A    
C104  C108  A    
C42   C60   S    
C6    O42   A    
C30   C34   A    
C64   C117  S    
C105  H9    S    
C49   H46   S    
C20   C28   A    
C42   C64   A    
C11   O4    A    
C8    O45   A    
C7    C87   S    
C14   C123  S    
C12   O36   A    
Br4   C104  S    
C112  H21   S    
Cr4   O35   S    
Cr8   O18   S    
C58   I3    S    
C73   C77   A    
C39   C61   A    
C46   C51   A    
C45   H42   S    
Cr11  O26   S    
C7    O48   A    
C55   C60   S    
C34   C52   S    
Cr11  O21   S    
C66   O28   A    
Cr6   O23   S    
Cr10  O20   S    
C29   H34   S    
Br1   C100  S    
C113  O31   A    
C70   H31   S    
C86   H2    S    
Cr12  O5    S    
C89   C107  A    
C110  C119  S    
C39   C56   S    
C37   O15   A    
C9    C69   S    
Cr10  O11   S    
C48   O16   A    
Cr6   O16   S    
C112  C121  S    
C84   H6    S    
C2    H37   S    
Cr3   O33   S    
C13   C70   A    
C40   C57   S    
C68   O30   A    
Cr2   O2    S    
C79   H56   S    
C77   C86   S    
Cr5   O41   S    
Cr1   O1    S    
Cr10  O47   S    
C85   C86   S    
C72   C82   A    
C110  H15   S    
C111  C120  S    
C11   O51   A    
C20   C67   S    
C80   H62   S    
C6    O47   A    
C117  O35   A    
C17   C21   A    
C4    O44   A    
C9    O49   A    
C118  H27   S    
C83   H5    S    
C74   C75   A    
C13   C24   A    
C19   C68   S    
C25   C103  A    
C108  H13   S    
C72   C76   A    
Cr7   O43   S    
C76   C77   A    
C106  H10   S    
C107  H11   S    
C38   C55   S    
Cr3   O29   S    
C71   C78   A    
C53   C57   S    
C35   C40   A    
Cr1   O36   S    
Cr9   O49   S    
C44   C49   A    
C43   H40   S    
C111  H20   S    
Br2   C101  S    
Cr5   O10   S    
C118  H22   S    
C17   C66   S    
C62   C115  S    
C83   H3    S    
C28   C29   A    
C87   C105  A    
C113  O1    A    
C121  H26   S    
C65   O27   A    
C58   H60   S    
C112  H17   S    
Cr9   O19   S    
C18   C26   A    
C65   O22   A    
Cr3   O3    S    
C119  H24   S    
C31   C48   S    
C14   O37   A    
C88   C106  A    
C94   C111  S    
C26   C27   A    
C52   H53   S    
C71   C75   A    
C90   C95   A    
C91   C109  S    
C22   C81   A    
C85   H7    S    
C31   C35   A    
C61   C113  S    
Cr2   O28   S    
C30   C59   S    
C97   C123  A    
C84   H4    S    
C69   C74   A    
Cr11  O48   S    
C15   O7    A    
C116  O33   A    
C67   O25   A    
C12   O5    A    
C99   C121  S    
C24   H39   S    
C66   O24   A    
C110  H19   S    
C12   C122  S    
C115  O32   A    
C6    C88   S    
C120  H25   S    
C33   C51   A    
C52   C56   S    
Cr12  O9    S    
C34   C39   A    
C85   H64   S    
C100  C122  A    
C36   C41   A    
C4    O40   A    
C87   C91   A    
C3    C16   S    
C18   C22   A    
C8    C71   S    
Cr5   O37   S    
C24   C81   A    
C44   H41   S    
Cr6   O42   S    
C3    C104  A    
Cr8   O44   S    
C55   H50   S    
C11   C72   S    
C8    O52   A    
C44   C62   A    
C93   C110  S    
C46   C64   A    
C82   H63   S    
C69   C79   A    
C115  O12   A    
C93   C97   A    
Cr6   O11   S    
C15   O38   A    
C2    C114  A    
C41   C58   S    
Cr1   O40   S    
