data_mof_unit_21120.cif
_audit_creation_date              2012-12-11T14:40:20-0500
_audit_creation_method            fapswitch 2.2
_symmetry_space_group_name_H-M    P1
_symmetry_Int_Tables_number       1
_space_group_crystal_system       triclinic
_cell_length_a                    19.603024
_cell_length_b                    10.909473
_cell_length_c                    19.490021
_cell_angle_alpha                 89.734465
_cell_angle_beta                  97.890742
_cell_angle_gamma                 90.22652
_cell_volume                      4128.57721879

loop_
_atom_site_label
_atom_site_type_symbol
_atom_type_description
_atom_site_fract_x
_atom_site_fract_y
_atom_site_fract_z
_atom_type_partial_charge
C1    C     C_R   0.727490 0.946392 0.358380 0.544947
C2    C     C_3   0.260269 0.365035 0.561875 0.048650
C3    C     C_3   0.049681 0.331450 0.622699 -0.366116
C4    C     C_3   0.411090 0.756642 0.512009 -0.016376
C5    C     C_3   0.457726 0.647966 0.504130 -0.374038
C6    C     C_3   0.618293 0.952502 0.578835 0.011538
C7    C     C_3   0.566888 0.914598 0.626898 -0.337445
C8    C     C_3   0.505464 0.874985 0.076181 0.012798
C9    C     C_3   0.467455 0.754362 0.059752 -0.390341
C10   C     C_3   0.532681 0.880482 0.909466 0.001636
C11   C     C_3   0.545170 0.857203 0.835229 -0.342359
C12   C     C_3   0.004915 0.375218 0.076315 0.012563
C13   C     C_3   0.246766 0.890823 0.434553 0.069583
C14   C     C_3   0.966717 0.254756 0.059943 -0.390877
C15   C     C_3   0.032275 0.380111 0.909669 0.002040
C16   C     C_3   0.044829 0.356011 0.835530 -0.343468
C17   C     C_3   0.767288 0.845336 0.559603 0.025405
C18   C     C_3   0.746699 0.473260 0.463519 -0.152250
C19   C     C_3   0.273148 0.497964 0.540676 -0.130116
C20   C     C_3   0.263554 0.016421 0.466008 -0.179569
C21   C     C_3   0.795732 0.962278 0.529632 -0.114969
C22   C     C_3   0.805959 0.427023 0.517538 -0.127572
C23   C     C_3   0.199668 0.500692 0.498448 -0.151854
C24   C     C_3   0.316988 0.955212 0.521035 -0.126825
C25   C     C_R   0.274987 0.954927 0.638605 0.546244
C26   C     C_3   0.724505 0.982544 0.485695 -0.092423
C27   C     C_3   0.790421 0.295198 0.493691 0.287303
C28   C     C_3   0.188300 0.367601 0.519961 0.290683
C29   C     C_3   0.299216 0.829205 0.489321 0.298368
C30   C     C_3   0.697442 0.865804 0.515903 0.288091
C31   C     C_3   0.739473 0.276337 0.546146 -0.120410
C32   C     C_3   0.218067 0.316455 0.457839 -0.085709
C33   C     C_3   0.242337 0.806593 0.534579 -0.121861
C34   C     C_3   0.719334 0.786800 0.458338 -0.095966
C35   C     C_3   0.753858 0.409130 0.569144 0.026345
C36   C     C_R   0.209927 0.493290 0.367339 0.564758
C37   C     C_3   0.230493 0.449422 0.436719 0.036404
C38   C     C_3   0.259528 0.932024 0.566076 0.022086
C39   C     C_3   0.747832 0.903341 0.428400 0.031744
C40   C     C_3   0.550755 0.268696 0.967000 -0.166472
C41   C     C_3   0.499823 0.271129 0.020792 -0.148944
C42   C     C_3   0.050878 0.768501 0.966981 -0.166230
C43   C     C_3   0.999945 0.771270 0.020766 -0.149034
C44   C     C_3   0.593399 0.167372 0.009198 -0.150040
C45   C     C_3   0.456082 0.169767 0.981388 -0.102302
C46   C     C_3   0.093358 0.667015 0.009205 -0.150052
C47   C     C_R   0.774169 0.451539 0.639284 0.545142
C48   C     C_3   0.956053 0.670073 0.981382 -0.102379
C49   C     C_3   0.541912 0.170858 0.062606 0.011442
C50   C     C_3   0.506923 0.168208 0.927413 0.022157
C51   C     C_3   0.041871 0.670841 0.062607 0.011295
C52   C     C_3   0.006899 0.668181 0.927416 0.022502
C53   C     C_R   0.534181 0.179695 0.337199 0.548118
C54   C     C_R   0.462554 0.180775 0.660513 0.528040
C55   C     C_R   0.035085 0.679758 0.337890 0.548361
C56   C     C_R   0.964215 0.680407 0.661633 0.531067
C57   C     C_3   0.498970 0.069353 0.023144 0.276670
C58   C     C_3   0.679983 0.323888 0.491508 -0.182075
C59   C     C_3   0.548166 0.067120 0.968359 0.259368
C60   C     C_3   0.998777 0.569491 0.023166 0.276483
C61   C     C_3   0.047975 0.566926 0.968385 0.259420
C62   C     C_1   0.763252 0.424772 0.904267 -0.003762
C63   C     C_1   0.236485 0.426285 0.095449 -0.009323
C64   C     C_1   0.263248 0.924768 0.904264 -0.003820
C65   C     C_1   0.736481 0.926302 0.095442 -0.006899
C66   C     C_1   0.747419 0.407567 0.034470 -0.033335
C67   C     C_1   0.252142 0.408701 0.965144 -0.008445
C68   C     C_1   0.247411 0.907556 0.034465 -0.032924
C69   C     C_3   0.291026 0.315033 0.499870 -0.197466
C70   C     C_1   0.752140 0.908723 0.965137 -0.008589
C71   C     C_1   0.754544 0.414638 0.963831 -0.035351
C72   C     C_1   0.245039 0.416292 0.035831 -0.025719
C73   C     C_1   0.254537 0.914631 0.963826 -0.035631
C74   C     C_1   0.745036 0.916313 0.035825 -0.025413
C75   C     C_1   0.742313 0.394674 0.094775 -0.001462
C76   C     C_1   0.257357 0.395220 0.904914 0.009680
C77   C     C_1   0.242306 0.894663 0.094770 0.000678
C78   C     C_1   0.757354 0.895240 0.904907 0.009393
C79   C     C_R   0.724524 0.308438 0.367267 0.576749
C80   C     C_3   0.189219 0.869597 0.479588 -0.159368
C81   C     C_R   0.273220 0.316615 0.631408 0.562456
C82   C     C_R   0.239119 0.860350 0.362527 0.553204
C83   C     C_R   0.775066 0.810389 0.632355 0.563561
C84   C     C_R   0.721681 0.953077 0.163490 0.534657
C85   C     C_R   0.278222 0.952560 0.836342 0.548126
C86   C     C_R   0.221685 0.453065 0.163497 0.543690
C87   C     C_R   0.778222 0.452560 0.836342 0.547210
C88   C     C_R   0.562882 0.182231 0.136892 0.569192
C89   C     C_R   0.473652 0.178265 0.856608 0.547121
C90   C     C_R   0.062864 0.682226 0.136887 0.569732
C91   C     C_3   0.790940 0.767160 0.502128 -0.190712
C92   C     C_R   0.973645 0.678260 0.856612 0.547131
C93   C     C_R   0.735766 0.360326 0.164233 0.546337
C94   C     C_R   0.264177 0.360437 0.835669 0.548289
C95   C     C_R   0.235763 0.860318 0.164228 0.538686
C96   C     C_R   0.764174 0.860450 0.835664 0.547718
C97   C     C_1   0.479358 0.174891 0.591564 -0.036676
C98   C     C_1   0.509032 0.171685 0.402507 -0.012252
C99   C     C_1   0.984297 0.673515 0.594044 -0.030136
C100  C     C_1   0.013089 0.671788 0.404679 -0.025725
C101  C     C_1   0.496174 0.170002 0.461077 -0.067105
C102  C     C_3   0.731994 0.340855 0.440102 0.059765
C103  C     C_1   0.487155 0.171971 0.531459 -0.084830
C104  C     C_1   0.002378 0.669498 0.463948 -0.079965
C105  C     C_1   0.993794 0.670528 0.534434 -0.084623
C106  C     C_3   0.694812 0.457630 0.516081 -0.123595
C107  C     C_3   0.303446 0.448294 0.477119 -0.094236
C108  C     C_3   0.206387 0.996413 0.512686 -0.129900
C109  C     C_3   0.819149 0.884875 0.470647 -0.116431
C110  C     C_3   0.902268 0.252437 0.474901 0.000448
C111  C     C_3   0.949637 0.151373 0.456386 -0.366255
C112  C     C_3   0.089181 0.397482 0.571377 0.008094
Cr1   Cr    Cr6+3 0.765830 0.160660 0.268180 1.021564
Cr2   Cr    Cr6+3 0.384070 0.324050 0.751550 1.014397
Cr3   Cr    Cr6+3 0.115930 0.824050 0.248450 1.011352
Cr4   Cr    Cr6+3 0.884070 0.824050 0.751550 1.014723
Cr5   Cr    Cr6+3 0.234170 0.160660 0.731820 1.011176
Cr6   Cr    Cr6+3 0.265830 0.660660 0.268180 1.041961
Cr7   Cr    Cr6+3 0.734170 0.660660 0.731820 1.006387
Cr8   Cr    Cr6+3 0.612110 0.009150 0.248770 1.007681
Cr9   Cr    Cr6+3 0.387890 0.009150 0.751230 0.979441
Cr10  Cr    Cr6+3 0.112110 0.509150 0.248770 1.002519
Cr11  Cr    Cr6+3 0.887890 0.509150 0.751230 0.982278
Cr12  Cr    Cr6+3 0.615930 0.324050 0.248450 1.016598
H1    H     H_    0.628424 0.281368 0.479240 0.116444
H2    H     H_    0.299580 0.566025 0.577249 0.143726
H3    H     H_    0.273599 0.093857 0.432005 0.111003
H4    H     H_    0.827356 0.030534 0.561989 0.171048
H5    H     H_    0.737262 0.197820 0.582192 0.095278
H6    H     H_    0.192520 0.245157 0.422762 0.137697
H7    H     H_    0.231233 0.728614 0.567686 0.095130
H8    H     H_    0.685462 0.719201 0.427844 0.127683
H9    H     H_    0.650349 0.165612 0.022095 0.120040
H10   H     H_    0.398995 0.170323 0.969285 0.131717
H11   H     H_    0.150304 0.665000 0.022113 0.119808
H12   H     H_    0.330484 0.241881 0.503621 0.115176
H13   H     H_    0.898968 0.670910 0.969268 0.131710
H14   H     H_    0.368529 0.993421 0.540587 0.107578
H15   H     H_    0.695208 0.068824 0.475723 0.098420
H16   H     H_    0.857230 0.471439 0.529919 0.095168
H17   H     H_    0.161625 0.576337 0.495135 0.084773
H18   H     H_    0.924371 0.290763 0.525846 0.123242
H19   H     H_    0.899958 0.325321 0.434462 0.156991
H20   H     H_    0.928818 0.110870 0.405585 0.163948
H21   H     H_    0.001694 0.189647 0.453148 0.131079
H22   H     H_    0.953988 0.078473 0.496716 0.149268
H23   H     H_    0.136838 0.834804 0.460305 0.131998
H24   H     H_    0.051768 0.438997 0.529977 0.135960
H25   H     H_    0.120414 0.471283 0.600210 0.135940
H26   H     H_    0.085051 0.306286 0.670075 0.166658
H27   H     H_    0.008913 0.392071 0.637627 0.114256
H28   H     H_    0.025584 0.246410 0.599439 0.151500
H29   H     H_    0.408001 0.768226 0.568304 0.133720
H30   H     H_    0.435042 0.839230 0.491372 0.150331
H31   H     H_    0.457426 0.626249 0.448471 0.170516
H32   H     H_    0.511264 0.670341 0.527305 0.141564
H33   H     H_    0.440275 0.566778 0.531606 0.139113
H34   H     H_    0.820694 0.681419 0.511639 0.112874
H35   H     H_    0.596407 0.026998 0.543986 0.131588
H36   H     H_    0.664850 0.989585 0.611577 0.136423
H37   H     H_    0.583085 0.827747 0.654163 0.176387
H38   H     H_    0.564234 0.986607 0.666398 0.105028
H39   H     H_    0.515148 0.901624 0.596861 0.126742
H40   H     H_    0.572762 0.349844 0.943227 0.136623
H41   H     H_    0.478530 0.355005 0.041824 0.147246
H42   H     H_    0.073013 0.849501 0.943190 0.136686
H43   H     H_    0.978778 0.855284 0.041775 0.146912
H44   H     H_    0.516254 0.881039 0.133352 0.185910
H45   H     H_    0.655856 0.525888 0.526941 0.148117
H46   H     H_    0.555660 0.872417 0.055728 0.156340
H47   H     H_    0.450460 0.746280 0.003272 0.145668
H48   H     H_    0.501797 0.676281 0.077196 0.103264
H49   H     H_    0.421272 0.749877 0.086963 0.175265
H50   H     H_    0.477747 0.905771 0.910020 0.171752
H51   H     H_    0.541454 0.792707 0.938214 0.130599
H52   H     H_    0.595219 0.810301 0.835272 0.168911
H53   H     H_    0.503681 0.797751 0.808688 0.089179
H54   H     H_    0.546277 0.944742 0.806190 0.170870
H55   H     H_    0.015666 0.381368 0.133484 0.185148
H56   H     H_    0.349643 0.481071 0.455519 0.166225
H57   H     H_    0.055131 0.372331 0.055908 0.156047
H58   H     H_    0.949714 0.246628 0.003467 0.145995
H59   H     H_    0.000932 0.176532 0.077435 0.102747
H60   H     H_    0.920522 0.250585 0.087148 0.174825
H61   H     H_    0.977369 0.405732 0.910066 0.171843
H62   H     H_    0.040904 0.292561 0.938665 0.130651
H63   H     H_    0.094963 0.309287 0.835764 0.168194
H64   H     H_    0.003448 0.296094 0.809207 0.089172
H65   H     H_    0.045781 0.443207 0.806142 0.172218
H66   H     H_    0.168329 0.065060 0.525092 0.174435
H67   H     H_    0.868932 0.892822 0.449852 0.133468
H68   H     H_    0.750796 0.548032 0.425736 0.123911
O1    O     O_R   0.783230 0.287800 0.346510 -0.491222
O2    O     O_R   0.454570 0.285140 0.836900 -0.513118
O3    O     O_R   0.045430 0.785140 0.163100 -0.509240
O4    O     O_R   0.954570 0.785140 0.836900 -0.513305
O5    O     O_R   0.677850 0.374730 0.185500 -0.510012
O6    O     O_R   0.322150 0.374730 0.814500 -0.491259
O7    O     O_R   0.177850 0.874730 0.185500 -0.513309
O8    O     O_R   0.822150 0.874730 0.814500 -0.491124
O9    O     O_3   0.664630 0.164620 0.255130 -0.300753
O10   O     O_3   0.335370 0.164620 0.744870 -0.263865
O11   O     O_3   0.164630 0.664620 0.255130 -0.297034
O12   O     O_R   0.216770 0.287800 0.653490 -0.485406
O13   O     O_3   0.835370 0.664620 0.744870 -0.265681
O14   O     O_R   0.760130 0.037060 0.338610 -0.495473
O15   O     O_R   0.239870 0.037060 0.661390 -0.510189
O16   O     O_R   0.260130 0.537060 0.338610 -0.484007
O17   O     O_R   0.739870 0.537060 0.661390 -0.515085
O18   O     O_R   0.666620 0.921370 0.332440 -0.514848
O19   O     O_R   0.333380 0.921370 0.667560 -0.529426
O20   O     O_R   0.166620 0.421370 0.332440 -0.522541
O21   O     O_R   0.833380 0.421370 0.667560 -0.520272
O22   O     O_R   0.557170 0.082420 0.312350 -0.487454
O23   O     O_R   0.283230 0.787800 0.346510 -0.471397
O24   O     O_R   0.442830 0.082420 0.687650 -0.518535
O25   O     O_R   0.057170 0.582420 0.312350 -0.503564
O26   O     O_R   0.942830 0.582420 0.687650 -0.517943
O27   O     O_R   0.548310 0.285980 0.316250 -0.512061
O28   O     O_R   0.451690 0.285980 0.683750 -0.512372
O29   O     O_R   0.048310 0.785980 0.316250 -0.507556
O30   O     O_R   0.951690 0.785980 0.683750 -0.511952
O31   O     O_R   0.680520 0.375500 0.327470 -0.505891
O32   O     O_R   0.319480 0.375500 0.672530 -0.512032
O33   O     O_R   0.180520 0.875500 0.327470 -0.512993
O34   O     O_R   0.716770 0.787800 0.653490 -0.494907
O35   O     O_R   0.819480 0.875500 0.672530 -0.514234
O36   O     O_R   0.780350 0.286970 0.193350 -0.506667
O37   O     O_R   0.219650 0.286970 0.806650 -0.526426
O38   O     O_R   0.280350 0.786970 0.193350 -0.508974
O39   O     O_R   0.719650 0.786970 0.806650 -0.525152
O40   O     O_R   0.757460 0.036290 0.196640 -0.500935
O41   O     O_R   0.242540 0.036290 0.803360 -0.497238
O42   O     O_R   0.257460 0.536290 0.196640 -0.494007
O43   O     O_R   0.742540 0.536290 0.803360 -0.497311
O44   O     O_R   0.663740 0.920540 0.179290 -0.538485
O45   O     O_R   0.554500 0.081650 0.170370 -0.497093
O46   O     O_R   0.336260 0.920540 0.820710 -0.515009
O47   O     O_R   0.163740 0.420540 0.179290 -0.534763
O48   O     O_R   0.836260 0.420540 0.820710 -0.515567
O49   O     O_3   0.836437 0.202826 0.478627 -0.559815
O50   O     O_3   0.129283 0.311604 0.540909 -0.557533
O51   O     O_3   0.345270 0.736383 0.474281 -0.542515
O52   O     O_3   0.632585 0.850658 0.538719 -0.550162
O53   O     O_3   0.462161 0.972764 0.050322 -0.557793
O54   O     O_3   0.580899 0.967399 0.940387 -0.576912
O55   O     O_3   0.961786 0.473159 0.050356 -0.557758
O56   O     O_R   0.445500 0.081650 0.829630 -0.513027
O57   O     O_3   0.080580 0.467064 0.940395 -0.576607
O58   O     O_R   0.054500 0.581650 0.170370 -0.498072
O59   O     O_R   0.945500 0.581650 0.829630 -0.513335
O60   O     O_R   0.545430 0.285140 0.163100 -0.509758

loop_
_geom_bond_atom_site_label_1
_geom_bond_atom_site_label_2
_ccdc_geom_bond_type
C44   C49   S    
C10   H50   S    
C4    H30   S    
C21   C26   S    
C38   C108  S    
C53   O27   A    
C53   O22   A    
Cr8   O9    S    
Cr10  O25   S    
C29   C33   S    
C107  H56   S    
C70   C78   T    
C6    C7    S    
Cr6   O16   S    
Cr6   O11   S    
C17   C91   S    
C95   O38   A    
C6    O52   S    
C32   H6    S    
C6    H35   S    
C69   C107  S    
C49   C57   S    
C55   O25   A    
C83   O35   A    
C54   O24   A    
C22   C35   S    
C90   O58   A    
C45   C57   S    
C45   H10   S    
C86   O42   A    
C48   H13   S    
C85   O41   A    
C50   C59   S    
C31   C58   S    
C13   C29   S    
C36   C37   S    
C84   O44   A    
Cr6   O38   S    
Cr9   O10   S    
C37   C107  S    
C52   C61   S    
C111  H21   S    
C51   C90   S    
C36   O16   A    
Cr4   O8    S    
C43   C51   S    
C26   C39   S    
C57   C59   S    
Cr5   O41   S    
C66   C75   T    
C44   C59   S    
Cr8   O22   S    
C15   C16   S    
C22   H16   S    
C100  C104  T    
C87   O43   A    
C12   O55   S    
Cr11  O13   S    
C110  H18   S    
C67   C72   S    
C18   C102  S    
C96   O39   A    
C42   H42   S    
C25   O19   A    
C95   O7    A    
C24   C29   S    
C91   H34   S    
Cr3   O3    S    
C8    H44   S    
C76   C94   S    
C46   H11   S    
C34   C91   S    
C79   O31   A    
C80   H23   S    
C90   O3    A    
C20   C24   S    
C78   C96   S    
C8    C9    S    
C41   H41   S    
C55   C100  S    
C70   C74   S    
C24   C38   S    
C64   C73   T    
Cr2   O10   S    
C79   C102  S    
C9    H49   S    
Cr6   O23   S    
C58   C102  S    
Cr1   O9    S    
C2    C69   S    
C43   C48   S    
C4    O51   S    
C11   H53   S    
Cr4   O13   S    
Cr7   O39   S    
Cr8   O45   S    
C88   O60   A    
C27   C102  S    
C33   H7    S    
C112  O50   S    
C4    H29   S    
C2    C19   S    
Cr12  O27   S    
C34   H8    S    
C60   O55   S    
C101  C103  S    
C12   H57   S    
C30   O52   S    
C14   H59   S    
C17   C30   S    
C44   H9    S    
C49   C88   S    
C108  H66   S    
C28   O50   S    
C27   O49   S    
C20   C108  S    
C41   C49   S    
C104  C105  S    
C15   H62   S    
C8    H46   S    
C48   C60   S    
C81   O12   A    
Cr9   O56   S    
Cr8   O18   S    
C99   C105  T    
C82   O33   A    
Cr7   O17   S    
C30   C34   S    
Cr4   O35   S    
C27   C31   S    
C34   C39   S    
C39   C109  S    
Cr9   O24   S    
C28   C32   S    
C20   H3    S    
C57   O53   S    
C26   H15   S    
C16   H64   S    
C111  H22   S    
C19   C23   S    
C65   C84   S    
C46   C61   S    
C24   H14   S    
C68   C73   S    
C23   C37   S    
Cr3   O7    S    
C46   C51   S    
C77   C95   S    
C17   C21   S    
C65   C74   T    
C110  C111  S    
Cr3   O11   S    
C60   C61   S    
C94   O6    A    
Cr10  O11   S    
C93   O5    A    
C18   C106  S    
C66   C71   S    
Cr11  O59   S    
C25   C38   S    
Cr10  O58   S    
C7    H37   S    
Cr6   O42   S    
C50   C89   S    
C14   H60   S    
Cr10  O47   S    
Cr12  O31   S    
C40   C44   S    
C3    C112  S    
C18   H68   S    
C86   O47   A    
C11   H52   S    
C54   C97   S    
C11   H54   S    
C97   C103  T    
C32   C37   S    
C21   H4    S    
C54   O28   A    
C1    O14   A    
C112  H25   S    
C14   H58   S    
C111  H20   S    
C36   O20   A    
C10   O54   S    
Cr7   O43   S    
C40   C41   S    
Cr11  O26   S    
C12   C14   S    
C8    O53   S    
C26   C30   S    
C69   H12   S    
C5    H33   S    
C22   C27   S    
Cr11  O21   S    
C63   C86   S    
C42   C46   S    
C106  H45   S    
C31   C35   S    
C9    H47   S    
C23   C28   S    
C42   C43   S    
Cr5   O10   S    
Cr5   O12   S    
C98   C101  T    
C110  O49   S    
C64   C85   S    
C10   H51   S    
C75   C93   S    
Cr1   O40   S    
Cr11  O48   S    
C92   O59   A    
C68   C77   T    
C96   O8    A    
C81   O32   A    
C3    H28   S    
C56   O26   A    
Cr5   O15   S    
C3    H26   S    
C87   O48   A    
Cr2   O2    S    
C13   C20   S    
C1    O18   A    
C18   C22   S    
Cr1   O1    S    
Cr3   O29   S    
C40   H40   S    
C9    H48   S    
Cr2   O28   S    
C4    C5    S    
Cr1   O36   S    
C16   H63   S    
Cr12  O60   S    
C6    H36   S    
C89   O56   A    
C33   C80   S    
Cr3   O33   S    
C32   C69   S    
C51   C60   S    
C43   H43   S    
C53   C98   S    
C5    H32   S    
C15   O57   S    
C62   C87   S    
C80   C108  S    
C19   H2    S    
C3    H27   S    
C33   C38   S    
C79   O1    A    
C29   O51   S    
C55   O29   A    
Cr12  O9    S    
Cr2   O32   S    
Cr1   O14   S    
Cr7   O13   S    
C47   O17   A    
C47   O21   A    
C13   C82   S    
C35   C106  S    
C5    H31   S    
Cr8   O44   S    
C56   O30   A    
C93   O36   A    
C91   C109  S    
C7    H39   S    
C45   C50   S    
C109  H67   S    
C92   O4    A    
C89   O2    A    
Cr12  O5    S    
Cr5   O37   S    
C62   C71   T    
C59   O54   S    
Cr10  O20   S    
Cr9   O19   S    
Cr4   O30   S    
C110  H19   S    
C84   O40   A    
C13   C80   S    
C88   O45   A    
C52   C92   S    
C10   C11   S    
C1    C39   S    
C82   O23   A    
Cr4   O4    S    
C112  H24   S    
C40   C50   S    
C48   C52   S    
C12   H55   S    
C63   C72   T    
C94   O37   A    
C58   H1    S    
C61   O57   S    
C15   H61   S    
Cr2   O6    S    
C58   C106  S    
C41   C45   S    
C7    H38   S    
C23   H17   S    
C2    C81   S    
C2    C28   S    
C67   C76   T    
C56   C99   S    
C17   C83   S    
C35   C47   S    
C25   O15   A    
C16   H65   S    
C83   O34   A    
Cr9   O46   S    
Cr7   O34   S    
C42   C52   S    
C21   C109  S    
C85   O46   A    
C31   H5    S    
C19   C107  S    
