data_mof_unit_13844.cif
_audit_creation_date              2012-12-10T16:44:38-0500
_audit_creation_method            fapswitch 2.2
_symmetry_space_group_name_H-M    P1
_symmetry_Int_Tables_number       1
_space_group_crystal_system       triclinic
_cell_length_a                    14.998032
_cell_length_b                    8.764429
_cell_length_c                    7.600937
_cell_angle_alpha                 103.702289
_cell_angle_beta                  95.526868
_cell_angle_gamma                 95.709994
_cell_volume                      958.429444264

loop_
_atom_site_label
_atom_site_type_symbol
_atom_type_description
_atom_site_fract_x
_atom_site_fract_y
_atom_site_fract_z
_atom_type_partial_charge
C1    C     C_R   0.495422 0.199909 0.452984 0.781335
C2    C     C_R   0.504529 0.800089 0.547021 0.781001
C3    C     C_R   0.023843 0.270962 0.239675 -0.165279
C4    C     C_R   0.976510 0.717211 0.768867 -0.170017
C5    C     C_2   0.484183 0.030003 0.430135 0.228254
C6    C     C_2   0.515722 0.969998 0.569892 0.227919
C7    C     C_R   0.329463 0.501447 0.500291 0.852768
C8    C     C_R   0.670530 0.497159 0.499538 0.854212
C9    C     C_R   0.825595 0.601374 0.634020 -0.291548
C10   C     C_R   0.174699 0.390120 0.371109 -0.289072
C11   C     C_R   0.766888 0.491898 0.498776 -0.067043
C12   C     C_R   0.233159 0.504592 0.501251 -0.065074
C13   C     C_R   0.799592 0.381274 0.362006 0.379358
C14   C     C_R   0.200351 0.622141 0.629560 0.381983
C15   C     C_R   0.893907 0.380897 0.363244 0.002220
C16   C     C_R   0.106147 0.617832 0.633311 0.001096
C17   C     C_R   0.953007 0.496305 0.498280 0.040173
C18   C     C_R   0.047093 0.501135 0.499730 0.037855
C19   C     C_R   0.918257 0.605664 0.633859 0.101115
C20   C     C_R   0.081976 0.387817 0.368694 0.101906
C21   C     C_R   0.930852 0.266554 0.237451 -0.187921
C22   C     C_R   0.069476 0.723020 0.769413 -0.186659
Cu1   Cu    Cu3+1 0.510010 0.517380 0.684380 1.195780
Cu2   Cu    Cu3+1 0.489990 0.482620 0.315620 1.195507
H1    H     H_    0.798826 0.686218 0.737264 0.185874
H2    H     H_    0.201714 0.300918 0.273303 0.181184
H3    H     H_    0.889210 0.171064 0.137943 0.147068
H4    H     H_    0.111576 0.808544 0.879642 0.154952
H5    H     H_    0.050402 0.181786 0.140800 0.138933
H6    H     H_    0.950079 0.799924 0.875044 0.141271
N1    N     N_2   0.474890 0.456420 0.038520 0.105274
N2    N     N_2   0.525110 0.543580 0.961480 0.107066
O1    O     O_R   0.506510 0.286130 0.619770 -0.514993
O2    O     O_R   0.493490 0.713870 0.380230 -0.513414
O3    O     O_R   0.489600 0.256770 0.308360 -0.566174
O4    O     O_R   0.510400 0.743230 0.691640 -0.564692
O5    O     O_R   0.378710 0.514640 0.655720 -0.501335
O6    O     O_R   0.621290 0.485360 0.344280 -0.504708
O7    O     O_R   0.361800 0.485290 0.344300 -0.548795
O8    O     O_R   0.638200 0.514710 0.655700 -0.550672
O9    O     O_3   0.737783 0.272723 0.235296 -0.697523
H7    H     H_    0.760949 0.253804 0.115516 0.343726
O10   O     O_3   0.261951 0.739049 0.745981 -0.691051
H8    H     H_    0.235848 0.840204 0.766237 0.316307
O11   O     O_3   0.436451 0.931975 0.271225 -0.696025
H9    H     H_    0.412741 0.996466 0.190911 0.367699
O12   O     O_3   0.563426 0.068052 0.728821 -0.701916
H10   H     H_    0.587078 0.003607 0.809232 0.366340
S1    S     S_3+6 0.368488 0.358238 0.941339 0.155168
O13   O     O_2   0.302338 0.476690 0.945114 -0.254088
O14   O     O_2   0.365455 0.257093 0.751710 -0.315330
O15   O     O_3   0.334638 0.234709 0.067414 -0.538748
H11   H     H_    0.276264 0.176863 0.001462 0.335679
S2    S     S_3+6 0.631237 0.643063 0.058630 0.155625
O16   O     O_2   0.634386 0.743316 0.248709 -0.303168
O17   O     O_2   0.698060 0.525788 0.053562 -0.286755
O18   O     O_3   0.664113 0.767527 0.932896 -0.535354
H12   H     H_    0.722300 0.826238 0.998808 0.342703

loop_
_geom_bond_atom_site_label_1
_geom_bond_atom_site_label_2
_ccdc_geom_bond_type
Cu2   O6    S    
Cu1   Cu2   S    
C15   C17   A    
C14   C16   A    
C11   C13   A    
O9    H7    S    
N1    N2    D    
O10   H8    S    
S1    O15   S    
Cu1   N2    S    
C10   H2    S    
C13   O9    S    
C17   C18   A    
C7    O5    A    
Cu2   N1    S    
C1    O1    A    
C3    C20   A    
C22   H4    S    
O11   H9    S    
C9    C11   A    
C2    O2    A    
O18   H12   S    
C2    C6    S    
C10   C12   A    
C8    O6    A    
N1    S1    S    
C8    C11   S    
C1    C5    S    
N2    S2    S    
C17   C19   A    
C12   C14   A    
S1    O13   D    
C18   C20   A    
C13   C15   A    
C21   H3    S    
C5    C6    D    
S2    O17   D    
C7    C12   S    
C3    C21   A    
Cu2   O3    S    
C6    O12   S    
C9    H1    S    
Cu1   O8    S    
C15   C21   A    
Cu2   O7    S    
C4    C22   A    
O15   H11   S    
C1    O3    A    
C16   C18   A    
Cu1   O4    S    
C2    O4    A    
C3    H5    S    
C7    O7    A    
S2    O16   D    
C16   C22   A    
C8    O8    A    
Cu1   O1    S    
Cu1   O5    S    
C4    C19   A    
C5    O11   S    
C9    C19   A    
C4    H6    S    
O12   H10   S    
C10   C20   A    
C14   O10   S    
S1    O14   D    
S2    O18   S    
Cu2   O2    S    
