data_mof_unit_24266.cif
_audit_creation_date              2012-12-10T18:52:57-0500
_audit_creation_method            fapswitch 2.2
_symmetry_space_group_name_H-M    P1
_symmetry_Int_Tables_number       1
_space_group_crystal_system       triclinic
_cell_length_a                    9.904463
_cell_length_b                    10.638057
_cell_length_c                    16.68358
_cell_angle_alpha                 91.103415
_cell_angle_beta                  86.1369
_cell_angle_gamma                 91.057532
_cell_volume                      1753.27403559

loop_
_atom_site_label
_atom_site_type_symbol
_atom_type_description
_atom_site_fract_x
_atom_site_fract_y
_atom_site_fract_z
_atom_type_partial_charge
C1    C     C_R   0.501346 0.739533 0.498749 0.883397
C2    C     C_R   0.498653 0.260448 0.501121 0.890900
C3    C     C_R   0.585902 0.937744 0.441061 0.176045
C4    C     C_R   0.413732 0.062162 0.558528 0.178074
C5    C     C_R   0.581736 0.067196 0.443500 -0.215108
C6    C     C_R   0.418123 0.932736 0.556201 -0.217948
C7    C     C_R   0.496513 0.127909 0.501277 -0.074535
C8    C     C_R   0.503391 0.872034 0.498459 -0.071342
C9    C     C_R   0.931440 0.431261 0.444401 -0.105027
C10   C     C_R   0.068624 0.568856 0.555527 -0.103288
C11   C     C_R   0.074839 0.430982 0.443539 0.233197
C12   C     C_R   0.925288 0.569710 0.556124 0.238076
C13   C     C_R   0.481929 0.500416 0.653245 0.880328
C14   C     C_R   0.518006 0.507223 0.347192 0.883104
C15   C     C_R   0.471059 0.511075 0.740253 -0.107817
C16   C     C_R   0.528490 0.550466 0.264976 -0.109603
C17   C     C_R   0.580998 0.480428 0.784075 -0.245402
C18   C     C_R   0.424311 0.623381 0.238409 -0.258626
C19   C     C_R   0.575701 0.502240 0.866492 0.422118
C20   C     C_R   0.435616 0.673349 0.162081 0.408748
C21   C     C_R   0.459404 0.556927 0.904948 0.061286
C22   C     C_R   0.550819 0.647367 0.111049 0.066589
C23   C     C_R   0.346895 0.580729 0.861896 -0.178151
C24   C     C_R   0.659234 0.582991 0.139627 -0.154381
C25   C     C_R   0.352658 0.558348 0.779676 -0.189188
C26   C     C_R   0.648291 0.534733 0.216591 -0.188661
C27   C     C_2   0.450285 0.585624 0.990413 -0.122536
C28   C     C_2   0.545578 0.654741 0.024477 -0.100383
H1    H     H_    0.670812 0.439458 0.754385 0.183306
H2    H     H_    0.334451 0.642546 0.277087 0.192957
H3    H     H_    0.731500 0.482346 0.237439 0.167153
H4    H     H_    0.266232 0.581829 0.746732 0.165337
H5    H     H_    0.632063 0.692718 0.988673 0.181436
H6    H     H_    0.365871 0.544282 0.026473 0.183588
H7    H     H_    0.256069 0.619873 0.891656 0.180101
H8    H     H_    0.748024 0.562169 0.100419 0.198095
H9    H     H_    0.643602 0.121331 0.399952 0.151216
H10   H     H_    0.356248 0.878601 0.599752 0.149272
H11   H     H_    0.878951 0.377441 0.399974 0.143881
H12   H     H_    0.121188 0.622863 0.599839 0.139844
N1    N     N_R   0.142790 0.500030 0.500020 -0.098442
N2    N     N_R   0.857210 0.499970 0.499980 -0.098161
O1    O     O_R   0.385380 0.683250 0.500010 -0.616133
O2    O     O_R   0.614620 0.316750 0.499990 -0.613746
O3    O     O_R   0.614710 0.683220 0.500000 -0.623375
O4    O     O_R   0.385290 0.316780 0.500000 -0.620579
O5    O     O_R   0.371780 0.500040 0.615800 -0.620076
O6    O     O_R   0.628220 0.499960 0.384200 -0.618900
O7    O     O_R   0.601110 0.500010 0.615800 -0.615922
O8    O     O_R   0.398890 0.499990 0.384200 -0.618703
Zn1   Zn    Zn3+2 0.346870 0.500020 0.500000 0.943410
Zn2   Zn    Zn3+2 0.653130 0.499980 0.500000 0.945544
Cl1   Cl    Cl    0.301829 0.763494 0.130830 -0.615950
Cl2   Cl    Cl    0.713735 0.454380 0.919268 -0.643769
C29   C     C_3   0.673720 0.872343 0.376112 -0.833038
H13   H     H_    0.611477 0.804761 0.342162 0.236341
H14   H     H_    0.721864 0.940116 0.332634 0.237018
H15   H     H_    0.755787 0.821521 0.403128 0.256619
C30   C     C_3   0.325148 0.127508 0.623135 -0.843003
H16   H     H_    0.386662 0.195876 0.656999 0.232451
H17   H     H_    0.242848 0.177486 0.595750 0.258125
H18   H     H_    0.277262 0.059775 0.666725 0.234128
C31   C     C_3   0.148789 0.356699 0.377442 -0.803583
H19   H     H_    0.078870 0.292339 0.346364 0.200651
H20   H     H_    0.194081 0.421227 0.331348 0.250633
H21   H     H_    0.226087 0.296855 0.401010 0.268190
C32   C     C_3   0.851715 0.646355 0.621204 -0.810076
H22   H     H_    0.922185 0.710279 0.652186 0.198052
H23   H     H_    0.776057 0.706959 0.596725 0.266392
H24   H     H_    0.804767 0.583597 0.667615 0.249849

loop_
_geom_bond_atom_site_label_1
_geom_bond_atom_site_label_2
_ccdc_geom_bond_type
O2    Zn2   S    
C30   H16   S    
C29   H13   S    
C6    H10   S    
C15   C17   A    
C18   H2    S    
C5    H9    S    
C1    C8    S    
C17   H1    S    
C11   C31   S    
C2    C7    S    
C13   C15   S    
C9    H11   S    
C32   H24   S    
O1    Zn1   S    
O7    Zn2   S    
C25   H4    S    
C31   H20   S    
O8    Zn1   S    
C21   C27   S    
C31   H21   S    
C26   H3    S    
C22   C28   S    
C2    O4    A    
C10   N1    A    
C9    C11   A    
C1    O3    A    
C9    N2    A    
C24   H8    S    
C23   H7    S    
C10   C12   A    
C4    C7    A    
C13   O7    A    
C4    C30   S    
C16   C18   A    
C13   O5    A    
C17   C19   A    
N1    Zn1   S    
C24   C26   A    
C28   H5    S    
C11   N1    A    
C18   C20   A    
C29   H14   S    
C27   H6    S    
C16   C26   A    
C21   C23   A    
C12   C32   S    
C14   C16   S    
C30   H17   S    
C15   C25   A    
C14   O8    A    
C12   N2    A    
C32   H22   S    
C3    C5    A    
O6    Zn2   S    
C23   C25   A    
C19   Cl2   S    
C4    C6    A    
C3    C8    A    
C22   C24   A    
C2    O2    A    
C27   C28   D    
C5    C7    A    
C14   O6    A    
C29   H15   S    
C10   H12   S    
C6    C8    A    
C30   H18   S    
O3    Zn2   S    
C19   C21   A    
C3    C29   S    
O4    Zn1   S    
C1    O1    A    
O5    Zn1   S    
C31   H19   S    
C20   C22   A    
C20   Cl1   S    
C32   H23   S    
N2    Zn2   S    
