data_mof_unit_65311.cif
_audit_creation_date              2012-12-10T16:50:31-0500
_audit_creation_method            fapswitch 2.2
_symmetry_space_group_name_H-M    P1
_symmetry_Int_Tables_number       1
_space_group_crystal_system       triclinic
_cell_length_a                    26.248432
_cell_length_b                    26.248334
_cell_length_c                    22.290369
_cell_angle_alpha                 89.99975
_cell_angle_beta                  53.932883
_cell_angle_gamma                 89.999434
_cell_volume                      12413.948402

loop_
_atom_site_label
_atom_site_type_symbol
_atom_type_description
_atom_site_fract_x
_atom_site_fract_y
_atom_site_fract_z
_atom_type_partial_charge
C1    C     C_R   0.650523 0.750051 0.699044 0.504268
C2    C     C_3   0.031853 0.264589 0.043079 -0.213539
C3    C     C_2   0.556389 0.748040 0.499483 -0.094878
C4    C     C_2   0.993511 0.720891 0.456917 -0.159335
C5    C     C_2   0.993510 0.279109 0.456917 -0.159281
C6    C     C_2   0.493511 0.220891 0.456917 -0.159335
C7    C     C_2   0.493510 0.779109 0.456917 -0.159280
C8    C     C_3   0.532104 0.236359 0.043078 -0.213549
C9    C     C_3   0.531851 0.764598 0.043079 -0.213539
C10   C     C_3   0.964038 0.803384 0.043037 -0.213534
C11   C     C_3   0.964424 0.196513 0.043037 -0.213552
C12   C     C_3   0.463477 0.303229 0.043037 -0.213529
C13   C     C_3   0.464433 0.696511 0.043037 -0.213551
C14   C     C_3   0.007100 0.803372 0.956933 -0.213429
C15   C     C_3   0.007486 0.196526 0.956933 -0.213421
C16   C     C_3   0.506539 0.303217 0.956933 -0.213422
C17   C     C_R   0.650523 0.249948 0.699044 0.504084
C18   C     C_3   0.507495 0.696523 0.956933 -0.213421
C19   C     C_1   0.110808 0.749948 0.778473 -0.005231
C20   C     C_1   0.110807 0.250053 0.778473 -0.005165
C21   C     C_1   0.610807 0.249947 0.778473 -0.005231
C22   C     C_1   0.610807 0.750053 0.778473 -0.005165
C23   C     C_3   0.963439 0.749982 0.073148 0.066730
C24   C     C_3   0.963439 0.250018 0.073148 0.066757
C25   C     C_3   0.463439 0.249982 0.073148 0.066732
C26   C     C_3   0.463439 0.750018 0.073148 0.066757
C27   C     C_3   0.075019 0.735784 0.956975 -0.213424
C28   C     C_R   0.150523 0.250051 0.699044 0.504268
C29   C     C_3   0.074916 0.264601 0.956975 -0.213420
C30   C     C_3   0.575166 0.236348 0.956975 -0.213431
C31   C     C_3   0.574913 0.764610 0.956975 -0.213419
C32   C     C_3   0.036599 0.749962 0.926861 0.066474
C33   C     C_3   0.036599 0.250038 0.926861 0.066463
C34   C     C_3   0.536599 0.249962 0.926861 0.066475
C35   C     C_3   0.536599 0.750039 0.926861 0.066463
C36   C     C_3   0.982529 0.710742 0.956951 -0.213888
C37   C     C_3   0.982247 0.288977 0.956951 -0.213883
C38   C     C_3   0.482944 0.210333 0.956952 -0.213888
C39   C     C_R   0.150523 0.749949 0.699044 0.504083
C40   C     C_3   0.482240 0.788970 0.956951 -0.213883
C41   C     C_3   0.939467 0.710753 0.043055 -0.213853
C42   C     C_3   0.939185 0.288965 0.043055 -0.213855
C43   C     C_3   0.439882 0.210345 0.043055 -0.213853
C44   C     C_3   0.439178 0.788958 0.043055 -0.213855
C45   C     C_R   0.849529 0.750006 0.300961 0.504873
C46   C     C_R   0.849529 0.249994 0.300962 0.504838
C47   C     C_R   0.349529 0.250006 0.300961 0.504873
C48   C     C_R   0.349529 0.749994 0.300962 0.504838
C49   C     C_1   0.077397 0.749952 0.845283 -0.074435
C50   C     C_2   0.942469 0.749680 0.502929 -0.094748
C51   C     C_1   0.077397 0.250049 0.845283 -0.074390
C52   C     C_1   0.577397 0.249952 0.845283 -0.074434
C53   C     C_1   0.577397 0.750049 0.845283 -0.074390
C54   C     C_1   0.922643 0.749993 0.154725 -0.075127
C55   C     C_1   0.922642 0.250007 0.154725 -0.075190
C56   C     C_1   0.422642 0.249993 0.154725 -0.075126
C57   C     C_1   0.422642 0.750007 0.154725 -0.075190
C58   C     C_1   0.889236 0.750000 0.221534 -0.006193
C59   C     C_1   0.889236 0.250000 0.221535 -0.006337
C60   C     C_1   0.389237 0.250000 0.221534 -0.006192
C61   C     C_2   0.942468 0.250320 0.502931 -0.094715
C62   C     C_1   0.389236 0.750000 0.221535 -0.006339
C63   C     C_2   0.742499 0.028048 0.456859 -0.159398
C64   C     C_2   0.740637 0.971952 0.458445 -0.159429
C65   C     C_2   0.242494 0.528048 0.456863 -0.159400
C66   C     C_2   0.240630 0.471952 0.458451 -0.159429
C67   C     C_2   0.748128 0.056082 0.502994 -0.094699
C68   C     C_2   0.752356 0.943918 0.499393 -0.094821
C69   C     C_2   0.248125 0.556082 0.502997 -0.094701
C70   C     C_2   0.252359 0.443918 0.499390 -0.094821
C71   C     C_2   0.800669 0.471943 0.456987 -0.159263
C72   C     C_2   0.442469 0.249680 0.502929 -0.094748
C73   C     C_2   0.800922 0.528057 0.458451 -0.159279
C74   C     C_2   0.300667 0.971943 0.456959 -0.159267
C75   C     C_2   0.300927 0.028056 0.458459 -0.159288
C76   C     C_2   0.748868 0.443883 0.502886 -0.094798
C77   C     C_2   0.748293 0.556117 0.499575 -0.094912
C78   C     C_2   0.248880 0.943885 0.502920 -0.094807
C79   C     C_2   0.248292 0.056115 0.499532 -0.094928
C80   C     C_R   0.749937 0.611393 0.499893 0.513176
C81   C     C_R   0.749997 0.388607 0.500238 0.513186
C82   C     C_R   0.249937 0.111392 0.499889 0.513175
C83   C     C_2   0.442468 0.750320 0.502931 -0.094715
C84   C     C_R   0.249998 0.888608 0.500242 0.513186
C85   C     C_R   0.750247 0.888658 0.499870 0.513256
C86   C     C_R   0.749805 0.111342 0.500246 0.513271
C87   C     C_R   0.250248 0.388658 0.499869 0.513256
C88   C     C_R   0.249805 0.611342 0.500247 0.513272
C89   C     C_R   0.611456 0.749886 0.499882 0.513192
C90   C     C_R   0.611455 0.250114 0.499883 0.513290
C91   C     C_R   0.111456 0.249886 0.499882 0.513191
C92   C     C_R   0.111455 0.750114 0.499883 0.513291
C93   C     C_R   0.888547 0.749940 0.500238 0.513163
C94   C     C_3   0.031958 0.735796 0.043078 -0.213546
C95   C     C_R   0.888547 0.250060 0.500239 0.513267
C96   C     C_R   0.388547 0.249940 0.500238 0.513163
C97   C     C_R   0.388547 0.750060 0.500239 0.513267
C98   C     C_2   0.048855 0.719844 0.458439 -0.159352
C99   C     C_2   0.048853 0.280157 0.458440 -0.159393
C100  C     C_2   0.548855 0.219844 0.458439 -0.159352
C101  C     C_2   0.548853 0.780157 0.458440 -0.159393
C102  C     C_2   0.056388 0.751959 0.499485 -0.094853
C103  C     C_2   0.056389 0.248041 0.499483 -0.094878
C104  C     C_2   0.556388 0.251959 0.499485 -0.094854
H1    H     H_    0.084917 0.691687 0.423553 0.154050
H2    H     H_    0.938179 0.327837 0.063686 0.115386
H3    H     H_    0.439564 0.171644 0.063686 0.115458
H4    H     H_    0.438165 0.827832 0.063686 0.115384
H5    H     H_    0.890309 0.720147 0.063655 0.115420
H6    H     H_    0.890096 0.279292 0.063656 0.115429
H7    H     H_    0.390627 0.219329 0.063656 0.115400
H8    H     H_    0.390090 0.779278 0.063656 0.115430
H9    H     H_    0.002425 0.671932 0.936349 0.115612
H10   H     H_    0.001861 0.327855 0.936350 0.115626
H11   H     H_    0.503247 0.171626 0.936350 0.115636
H12   H     H_    0.084913 0.308316 0.423557 0.153948
H13   H     H_    0.501848 0.827849 0.936350 0.115625
H14   H     H_    0.032935 0.697454 0.063710 0.116855
H15   H     H_    0.032554 0.303012 0.063710 0.116820
H16   H     H_    0.533484 0.198138 0.063710 0.116856
H17   H     H_    0.532545 0.803023 0.063710 0.116819
H18   H     H_    0.096618 0.697436 0.936373 0.117497
H19   H     H_    0.096237 0.303029 0.936373 0.117511
H20   H     H_    0.597168 0.198121 0.936373 0.117499
H21   H     H_    0.596228 0.803040 0.936373 0.117510
H22   H     H_    0.953992 0.720129 0.936319 0.115614
H23   H     H_    0.584917 0.191687 0.423553 0.154050
H24   H     H_    0.953778 0.279309 0.936320 0.115636
H25   H     H_    0.454310 0.219312 0.936320 0.115589
H26   H     H_    0.453773 0.779296 0.936320 0.115637
H27   H     H_    0.738357 0.046678 0.416388 0.153904
H28   H     H_    0.729800 0.953322 0.423677 0.153961
H29   H     H_    0.238352 0.546678 0.416392 0.153905
H30   H     H_    0.229783 0.453322 0.423693 0.153961
H31   H     H_    0.750830 0.039191 0.545262 0.106139
H32   H     H_    0.764822 0.960810 0.533344 0.106336
H33   H     H_    0.250826 0.539190 0.545266 0.106140
H34   H     H_    0.584914 0.808316 0.423557 0.153948
H35   H     H_    0.264837 0.460811 0.533330 0.106335
H36   H     H_    0.845344 0.453315 0.416754 0.154012
H37   H     H_    0.846507 0.546684 0.423462 0.154079
H38   H     H_    0.345325 0.953317 0.416657 0.154012
H39   H     H_    0.346518 0.046682 0.423534 0.154084
H40   H     H_    0.022447 0.781307 0.533618 0.106290
H41   H     H_    0.022450 0.218690 0.533612 0.106278
H42   H     H_    0.522447 0.281307 0.533618 0.106290
H43   H     H_    0.522450 0.718690 0.533612 0.106278
H44   H     H_    0.703793 0.460760 0.544841 0.106067
H45   H     H_    0.979016 0.814465 0.936300 0.117497
H46   H     H_    0.701889 0.539241 0.533870 0.106216
H47   H     H_    0.203835 0.960766 0.544962 0.106072
H48   H     H_    0.201885 0.039234 0.533731 0.106227
H49   H     H_    0.995047 0.696425 0.416569 0.153934
H50   H     H_    0.995046 0.303575 0.416569 0.154007
H51   H     H_    0.495047 0.196425 0.416569 0.153934
H52   H     H_    0.495046 0.803574 0.416569 0.154009
H53   H     H_    0.938307 0.773648 0.545035 0.106090
H54   H     H_    0.938306 0.226354 0.545038 0.106094
H55   H     H_    0.438307 0.273648 0.545035 0.106089
H56   H     H_    0.979482 0.185156 0.936301 0.117510
H57   H     H_    0.438306 0.726354 0.545038 0.106094
H58   H     H_    0.114140 0.763492 0.936360 0.115379
H59   H     H_    0.114236 0.237102 0.936360 0.115401
H60   H     H_    0.613994 0.264356 0.936360 0.115357
H61   H     H_    0.614238 0.737116 0.936361 0.115401
H62   H     H_    0.050457 0.763509 0.063697 0.115206
H63   H     H_    0.050553 0.237084 0.063696 0.115214
H64   H     H_    0.550311 0.264374 0.063696 0.115189
H65   H     H_    0.550555 0.737098 0.063696 0.115215
H66   H     H_    0.915332 0.814483 0.063638 0.116866
H67   H     H_    0.478339 0.313906 0.936301 0.117494
H68   H     H_    0.915799 0.185139 0.063638 0.116832
H69   H     H_    0.414656 0.313923 0.063638 0.116863
H70   H     H_    0.415810 0.685129 0.063638 0.116832
H71   H     H_    0.981287 0.832342 0.063654 0.115241
H72   H     H_    0.981881 0.167754 0.063653 0.115188
H73   H     H_    0.480420 0.332475 0.063653 0.115258
H74   H     H_    0.481895 0.667757 0.063653 0.115188
H75   H     H_    0.044970 0.832324 0.936318 0.115381
H76   H     H_    0.045563 0.167772 0.936317 0.115395
H77   H     H_    0.544102 0.332458 0.936317 0.115404
H78   H     H_    0.479493 0.685147 0.936301 0.117510
H79   H     H_    0.545578 0.667774 0.936317 0.115394
H80   H     H_    0.938742 0.671950 0.063686 0.115439
O1    O     O_3   0.750030 0.750030 0.500000 -0.438313
O2    O     O_R   0.758570 0.135390 0.542990 -0.540342
O3    O     O_R   0.258570 0.364610 0.542990 -0.540356
O4    O     O_R   0.258570 0.635390 0.542990 -0.540342
O5    O     O_R   0.638020 0.720010 0.663980 -0.538141
O6    O     O_R   0.638020 0.279990 0.663980 -0.538338
O7    O     O_R   0.138020 0.220010 0.663980 -0.538138
O8    O     O_R   0.138020 0.779990 0.663980 -0.538340
O9    O     O_R   0.801960 0.780050 0.336020 -0.539608
O10   O     O_R   0.801960 0.219950 0.336020 -0.539729
O11   O     O_R   0.301960 0.280050 0.336020 -0.539608
O12   O     O_3   0.750030 0.249970 0.500000 -0.438305
O13   O     O_R   0.301960 0.719950 0.336020 -0.539728
O14   O     O_R   0.698090 0.780090 0.663980 -0.538297
O15   O     O_R   0.698090 0.219910 0.663980 -0.538512
O16   O     O_R   0.198090 0.280090 0.663980 -0.538297
O17   O     O_R   0.198090 0.719910 0.663980 -0.538513
O18   O     O_R   0.862050 0.719970 0.336020 -0.539789
O19   O     O_R   0.862050 0.280030 0.336020 -0.539894
O20   O     O_R   0.362050 0.219970 0.336020 -0.539787
O21   O     O_R   0.362050 0.780030 0.336020 -0.539897
O22   O     O_R   0.698510 0.635460 0.542990 -0.540653
O23   O     O_3   0.250030 0.250030 0.500000 -0.438313
O24   O     O_R   0.698510 0.364540 0.542990 -0.540645
O25   O     O_R   0.198510 0.135460 0.542990 -0.540645
O26   O     O_R   0.198510 0.864540 0.542990 -0.540638
O27   O     O_R   0.741470 0.864610 0.457010 -0.541445
O28   O     O_R   0.741470 0.135390 0.457010 -0.541462
O29   O     O_R   0.241470 0.364610 0.457010 -0.541444
O30   O     O_R   0.241470 0.635390 0.457010 -0.541463
O31   O     O_R   0.613960 0.720010 0.542990 -0.540604
O32   O     O_R   0.613960 0.279990 0.542990 -0.540441
O33   O     O_R   0.113960 0.220010 0.542990 -0.540606
O34   O     O_3   0.250030 0.749970 0.500000 -0.438306
O35   O     O_R   0.113960 0.779990 0.542990 -0.540438
O36   O     O_R   0.843120 0.780070 0.542990 -0.540590
O37   O     O_R   0.843120 0.219930 0.542990 -0.540404
O38   O     O_R   0.343120 0.280070 0.542990 -0.540590
O39   O     O_R   0.343120 0.719930 0.542990 -0.540404
O40   O     O_R   0.656940 0.780080 0.457010 -0.541370
O41   O     O_R   0.656940 0.219920 0.457010 -0.541236
O42   O     O_R   0.156940 0.280080 0.457010 -0.541370
O43   O     O_R   0.156940 0.719920 0.457010 -0.541237
O44   O     O_R   0.886110 0.719980 0.457010 -0.541431
O45   O     O_R   0.801570 0.635440 0.457010 -0.541224
O46   O     O_R   0.886110 0.280020 0.457010 -0.541309
O47   O     O_R   0.386110 0.219980 0.457010 -0.541432
O48   O     O_R   0.386110 0.780020 0.457010 -0.541307
O49   O     O_R   0.801570 0.364560 0.457010 -0.541239
O50   O     O_R   0.301570 0.135440 0.457010 -0.541221
O51   O     O_R   0.301570 0.864560 0.457010 -0.541236
O52   O     O_R   0.758570 0.864610 0.542990 -0.540357
Zn1   Zn    Zn3+2 0.823660 0.707100 0.438580 0.935297
Zn2   Zn    Zn3+2 0.737810 0.207050 0.438580 0.935417
Zn3   Zn    Zn3+2 0.237810 0.292950 0.438580 0.935362
Zn4   Zn    Zn3+2 0.237810 0.707050 0.438580 0.935417
Zn5   Zn    Zn3+2 0.762240 0.792950 0.561420 0.941379
Zn6   Zn    Zn3+2 0.762240 0.207050 0.561420 0.941314
Zn7   Zn    Zn3+2 0.262240 0.292950 0.561420 0.941380
Zn8   Zn    Zn3+2 0.262240 0.707050 0.561420 0.941313
Zn9   Zn    Zn3+2 0.823660 0.292900 0.438580 0.935358
Zn10  Zn    Zn3+2 0.323660 0.207100 0.438580 0.935297
Zn11  Zn    Zn3+2 0.323660 0.792900 0.438580 0.935359
Zn12  Zn    Zn3+2 0.676410 0.707120 0.561420 0.941272
Zn13  Zn    Zn3+2 0.676410 0.292880 0.561420 0.941197
Zn14  Zn    Zn3+2 0.176410 0.207120 0.561420 0.941273
Zn15  Zn    Zn3+2 0.176410 0.792880 0.561420 0.941198
Zn16  Zn    Zn3+2 0.737810 0.792950 0.438580 0.935363

loop_
_geom_bond_atom_site_label_1
_geom_bond_atom_site_label_2
_ccdc_geom_bond_type
C43   H3    S    
C7    C83   D    
O23   Zn10  S    
C3    H43   S    
O41   Zn2   S    
C4    C98   S    
O12   Zn9   S    
C35   C53   S    
C100  H23   S    
C24   C42   S    
O34   Zn15  S    
C29   H59   S    
C90   O41   A    
C80   O22   A    
C1    O14   A    
C16   H67   S    
C25   C56   S    
O34   Zn4   S    
C80   O45   A    
O49   Zn9   S    
C25   C43   S    
O18   Zn1   S    
C90   O32   A    
C26   C44   S    
C57   C62   T    
C73   H37   S    
C24   C55   S    
C6    C72   D    
C8    H16   S    
C11   H72   S    
C95   O37   A    
O17   Zn8   S    
C88   O30   A    
C13   C18   S    
C2    C29   S    
C32   C36   S    
O11   Zn3   S    
C86   O28   A    
C20   C51   T    
C55   C59   T    
C27   H58   S    
C71   C76   D    
C46   C59   S    
O13   Zn4   S    
C84   O26   A    
C96   O47   A    
C97   O48   A    
C70   C87   S    
C13   H74   S    
C85   O52   A    
C29   C33   S    
C11   C24   S    
C100  C104  D    
O7    Zn14  S    
C14   H45   S    
O9    Zn16  S    
C37   C42   S    
C7    C101  S    
C8    H64   S    
C16   C34   S    
C47   C60   S    
C66   H30   S    
C11   C15   S    
C93   O36   A    
C102  H40   S    
O1    Zn1   S    
C7    H52   S    
C31   H61   S    
C92   O43   A    
O32   Zn13  S    
C48   O21   A    
C9    C26   S    
C9    H17   S    
C95   O46   A    
C41   H80   S    
C17   O15   A    
C63   H27   S    
O27   Zn16  S    
C2    H15   S    
C18   C35   S    
C91   O33   A    
C1    C22   S    
C14   H75   S    
C92   C102  S    
O25   Zn14  S    
C89   O31   A    
C82   O25   A    
C3    C101  D    
C12   H73   S    
C83   H57   S    
O31   Zn12  S    
O14   Zn5   S    
C41   H5    S    
C15   H76   S    
C9    H65   S    
O5    Zn12  S    
C45   O9    A    
C68   C85   S    
C94   H62   S    
C36   C41   S    
C43   H7    S    
C89   O40   A    
C36   H9    S    
C85   O27   A    
O51   Zn11  S    
C26   C57   S    
C27   H18   S    
C78   H47   S    
C46   O10   A    
C22   C53   T    
O37   Zn6   S    
C44   H4    S    
C50   H53   S    
C69   H33   S    
C13   H70   S    
C63   C67   D    
C45   C58   S    
C74   C75   S    
C30   C34   S    
C38   H11   S    
C30   H60   S    
C38   H25   S    
C12   C16   S    
C68   H32   S    
C84   O51   A    
C81   O49   A    
O28   Zn2   S    
O3    Zn7   S    
C99   C103  D    
C10   C14   S    
C14   C32   S    
C99   H12   S    
C71   C73   S    
C87   O3    A    
C16   H77   S    
C45   O18   A    
O12   Zn2   S    
C37   H10   S    
C20   C28   S    
O21   Zn11  S    
C98   C102  D    
O6    Zn13  S    
C17   C21   S    
C97   O39   A    
O12   Zn6   S    
C6    C100  S    
O52   Zn5   S    
O12   Zn13  S    
C92   O35   A    
O22   Zn12  S    
C75   H39   S    
C67   H31   S    
C104  H42   S    
O50   Zn10  S    
C42   H2    S    
C19   C49   T    
C4    C50   D    
C48   C62   S    
O19   Zn9   S    
C88   O4    A    
O39   Zn8   S    
O38   Zn7   S    
O30   Zn4   S    
C9    C31   S    
C87   O29   A    
C6    H51   S    
C5    C61   D    
C28   O16   A    
O10   Zn2   S    
C98   H1    S    
O16   Zn7   S    
C90   C104  S    
O46   Zn9   S    
C19   C39   S    
C81   O24   A    
C44   H8    S    
C46   O19   A    
C30   H20   S    
C86   O2    A    
C96   O38   A    
C82   O50   A    
C91   O42   A    
C2    C24   S    
C17   O6    A    
C38   C43   S    
C13   C26   S    
O4    Zn8   S    
O47   Zn10  S    
C10   H66   S    
O33   Zn14  S    
C31   H21   S    
O45   Zn1   S    
C28   O7    A    
C64   C68   D    
O26   Zn15  S    
C103  H41   S    
C23   C54   S    
O2    Zn6   S    
C54   C58   T    
C77   C80   S    
C47   O11   A    
C10   H71   S    
C64   H28   S    
C40   H26   S    
C67   C86   S    
C73   C77   D    
O42   Zn3   S    
C27   C32   S    
C34   C38   S    
C36   H22   S    
C72   H55   S    
C91   C103  S    
O29   Zn3   S    
C77   H46   S    
C79   C82   S    
O1    Zn5   S    
C101  H34   S    
C61   C95   S    
C50   C93   S    
C71   H36   S    
C5    C99   S    
O23   Zn3   S    
C10   C23   S    
C33   C51   S    
O8    Zn15  S    
O36   Zn5   S    
C48   O13   A    
C34   C52   S    
C76   C81   S    
C23   C41   S    
C23   C94   S    
C12   C25   S    
C3    C89   S    
O48   Zn11  S    
C8    C30   S    
O34   Zn11  S    
C37   H24   S    
C39   O17   A    
C35   C40   S    
C42   H6    S    
C15   H56   S    
C61   H54   S    
C8    C25   S    
O1    Zn16  S    
C39   O8    A    
C94   H14   S    
C93   O44   A    
O44   Zn1   S    
C66   C70   D    
C18   H79   S    
O23   Zn7   S    
C65   C69   D    
O43   Zn4   S    
C29   H19   S    
C31   C35   S    
C74   C78   D    
C47   O20   A    
C4    H49   S    
O1    Zn12  S    
O24   Zn13  S    
C74   H38   S    
O23   Zn14  S    
C33   C37   S    
C32   C49   S    
O40   Zn16  S    
C63   C64   S    
C72   C96   S    
C78   C84   S    
C40   C44   S    
C56   C60   T    
C76   H44   S    
C65   C66   S    
C83   C97   S    
C11   H68   S    
O34   Zn8   S    
O20   Zn10  S    
C18   H78   S    
C40   H13   S    
C12   H69   S    
C27   C94   S    
O35   Zn15  S    
C75   C79   D    
C2    H63   S    
C15   C33   S    
C21   C52   T    
C65   H29   S    
C5    H50   S    
O15   Zn6   S    
C1    O5    A    
C79   H48   S    
C69   C88   S    
C70   H35   S    
