data_mof_unit_27407.cif
_audit_creation_date              2012-12-10T18:49:25-0500
_audit_creation_method            fapswitch 2.2
_symmetry_space_group_name_H-M    P1
_symmetry_Int_Tables_number       1
_space_group_crystal_system       triclinic
_cell_length_a                    9.835936
_cell_length_b                    10.816114
_cell_length_c                    13.623584
_cell_angle_alpha                 90.406933
_cell_angle_beta                  82.234367
_cell_angle_gamma                 90.045059
_cell_volume                      1436.03856237

loop_
_atom_site_label
_atom_site_type_symbol
_atom_type_description
_atom_site_fract_x
_atom_site_fract_y
_atom_site_fract_z
_atom_type_partial_charge
C1    C     C_R   0.499829 0.739822 0.500545 1.017056
C2    C     C_R   0.913224 0.548286 0.578000 -0.318940
C3    C     C_1   0.545913 0.499222 0.209975 -0.154896
C4    C     C_1   0.454048 0.501917 0.789982 -0.155578
C5    C     C_2   0.561074 0.499210 0.016626 0.445270
C6    C     C_2   0.438794 0.504132 0.983303 0.445547
C7    C     C_1   0.441474 0.503258 0.877963 -0.067054
C8    C     C_1   0.558423 0.498958 0.121979 -0.067915
C9    C     C_R   0.607630 0.934954 0.536236 0.383366
C10   C     C_R   0.380856 0.061178 0.479754 0.394520
C11   C     C_R   0.616498 0.061689 0.521860 0.383439
C12   C     C_R   0.499821 0.259390 0.499730 0.972472
C13   C     C_R   0.389322 0.934116 0.467238 0.378854
C14   C     C_3   0.943427 0.443982 0.252427 -0.343178
C15   C     C_3   0.059312 0.566656 0.746778 -0.328295
C16   C     C_3   0.199711 0.527653 0.005176 -0.338805
C17   C     C_3   0.800560 0.478361 0.994668 -0.338766
C18   C     C_3   0.824610 0.865934 0.557222 -0.204739
C19   C     C_3   0.178374 0.140761 0.554205 -0.249011
C20   C     C_3   0.818521 0.129445 0.440616 -0.222927
C21   C     C_3   0.172687 0.854993 0.459313 -0.173136
C22   C     C_R   0.499032 0.125971 0.500328 -0.430458
C23   C     C_R   0.498907 0.871741 0.501409 -0.420156
C24   C     C_R   0.474664 0.500350 0.685967 0.906554
C25   C     C_R   0.525332 0.499744 0.314018 0.903869
C26   C     C_R   0.942167 0.451540 0.421244 0.570248
C27   C     C_R   0.058111 0.549549 0.578360 0.548161
C28   C     C_R   0.086639 0.448821 0.423126 -0.296273
H1    H     H_    0.153774 0.405107 0.363636 0.201132
H2    H     H_    0.207572 0.617928 0.966204 0.171252
H3    H     H_    0.109507 0.532822 0.063420 0.181268
H4    H     H_    0.794607 0.388292 0.033917 0.169725
H5    H     H_    0.817491 0.555969 0.045632 0.164824
H6    H     H_    0.890810 0.474351 0.936386 0.181141
H7    H     H_    0.836152 0.837078 0.477901 0.128425
H8    H     H_    0.873941 0.794556 0.597917 0.166823
H9    H     H_    0.881886 0.951856 0.568489 0.184805
H10   H     H_    0.099005 0.210335 0.543825 0.184615
H11   H     H_    0.235931 0.177009 0.613335 0.155507
H12   H     H_    0.845508 0.587916 0.639064 0.195546
H13   H     H_    0.125121 0.054754 0.581076 0.124408
H14   H     H_    0.913606 0.180924 0.449058 0.198786
H15   H     H_    0.765473 0.178821 0.385345 0.202995
H16   H     H_    0.849182 0.036651 0.410130 0.106996
H17   H     H_    0.170555 0.844119 0.540838 0.150263
H18   H     H_    0.104186 0.931061 0.442396 0.163340
H19   H     H_    0.130480 0.768485 0.431289 0.163390
H20   H     H_    0.042325 0.397009 0.226773 0.185355
H21   H     H_    0.957072 0.546271 0.254023 0.158158
H22   H     H_    0.873484 0.423309 0.197198 0.184452
H23   H     H_    0.045143 0.464386 0.748655 0.156528
H24   H     H_    0.961049 0.614871 0.772049 0.180081
H25   H     H_    0.130801 0.590089 0.800361 0.184549
H26   H     H_    0.181193 0.450829 0.953920 0.163229
N1    N     N_R   0.142790 0.500030 0.500020 -0.136362
N2    N     N_R   0.857210 0.499970 0.499980 -0.126391
O1    O     O_R   0.385380 0.683250 0.500010 -0.571961
O2    O     O_3   0.117142 0.608875 0.652537 -0.588634
O3    O     O_3   0.317726 0.504938 0.050759 -0.617743
O4    O     O_3   0.682057 0.498496 0.949062 -0.617013
O5    O     O_3   0.686201 0.876152 0.599664 -0.565600
O6    O     O_3   0.262473 0.121578 0.462287 -0.564982
O7    O     O_3   0.736667 0.122526 0.534380 -0.576593
O8    O     O_3   0.305627 0.873198 0.408051 -0.564648
O9    O     O_R   0.614620 0.316750 0.499990 -0.557504
O10   O     O_R   0.614710 0.683220 0.500000 -0.607917
O11   O     O_R   0.385290 0.316780 0.500000 -0.591190
O12   O     O_R   0.368830 0.499990 0.640350 -0.586067
O13   O     O_R   0.631170 0.500010 0.359650 -0.584621
O14   O     O_R   0.598160 0.499960 0.640350 -0.602161
O15   O     O_R   0.401840 0.500040 0.359650 -0.605499
O16   O     O_3   0.883716 0.397214 0.344710 -0.598420
Zn1   Zn    Zn3+2 0.346870 0.500020 0.500000 1.006015
Zn2   Zn    Zn3+2 0.653130 0.499980 0.500000 1.010468

loop_
_geom_bond_atom_site_label_1
_geom_bond_atom_site_label_2
_ccdc_geom_bond_type
O14   Zn2   S    
C5    C8    S    
C20   H14   S    
C10   C13   A    
C18   O5    S    
C6    C7    S    
C25   O15   A    
C19   H10   S    
C15   H23   S    
O10   Zn2   S    
C26   O16   S    
C12   O9    A    
C11   C22   A    
C26   C28   A    
C2    C27   A    
C14   O16   S    
C20   O7    S    
C1    O10   A    
C24   O14   A    
O13   Zn2   S    
C16   H26   S    
C2    N2    A    
C15   H24   S    
C10   C22   A    
C16   H3    S    
C9    C11   A    
C19   H13   S    
C14   H22   S    
C13   O8    S    
C17   H5    S    
C4    C7    T    
C9    O5    S    
O11   Zn1   S    
C19   H11   S    
C18   H7    S    
C28   H1    S    
C20   H16   S    
C18   H9    S    
C28   N1    A    
C1    C23   S    
C21   H17   S    
C3    C8    T    
C5    C6    D    
C4    C24   S    
C15   O2    S    
C27   N1    A    
C10   O6    S    
C14   H21   S    
N2    Zn2   S    
C17   H6    S    
C24   O12   A    
C17   O4    S    
C16   H2    S    
N1    Zn1   S    
C15   H25   S    
C3    C25   S    
C20   H15   S    
C12   C22   S    
C13   C23   A    
C21   H18   S    
C25   O13   A    
O1    Zn1   S    
O15   Zn1   S    
C17   H4    S    
C9    C23   A    
C21   O8    S    
C14   H20   S    
C12   O11   A    
C19   O6    S    
C5    O4    S    
O12   Zn1   S    
C11   O7    S    
C18   H8    S    
C6    O3    S    
C16   O3    S    
O9    Zn2   S    
C2    H12   S    
C26   N2    A    
C21   H19   S    
C27   O2    S    
C1    O1    A    
