data_mof_unit_11083.cif
_audit_creation_date              2012-12-10T16:59:18-0500
_audit_creation_method            fapswitch 2.2
_symmetry_space_group_name_H-M    P1
_symmetry_Int_Tables_number       1
_space_group_crystal_system       triclinic
_cell_length_a                    7.790733
_cell_length_b                    8.585828
_cell_length_c                    27.684112
_cell_angle_alpha                 91.946661
_cell_angle_beta                  86.129721
_cell_angle_gamma                 94.708557
_cell_volume                      1840.57620621

loop_
_atom_site_label
_atom_site_type_symbol
_atom_type_description
_atom_site_fract_x
_atom_site_fract_y
_atom_site_fract_z
_atom_type_partial_charge
C1    C     C_R   0.546364 0.794809 0.498755 0.954174
C2    C     C_R   0.453638 0.205192 0.501247 0.952771
C3    C     C_R   0.498683 0.528759 0.898857 -0.207062
C4    C     C_R   0.430358 0.524676 0.102891 -0.215278
C5    C     C_R   0.593775 0.655329 0.875163 -0.091242
C6    C     C_R   0.348661 0.391564 0.126161 -0.097054
C7    C     C_R   0.683719 0.772308 0.902740 0.513165
C8    C     C_R   0.251138 0.278086 0.099250 0.512672
C9    C     C_R   0.423326 0.403080 0.871293 -0.191872
C10   C     C_R   0.499911 0.652203 0.130707 -0.177707
C11   C     C_R   0.511475 0.515595 0.646834 -0.125141
C12   C     C_R   0.486938 0.491592 0.353343 -0.127676
C13   C     C_R   0.531333 0.658756 0.028646 -0.066625
C14   C     C_R   0.387520 0.399304 0.973326 -0.080942
C15   C     C_R   0.358692 0.406782 0.024565 0.056408
C16   C     C_R   0.563213 0.650027 0.977460 0.054765
C17   C     C_R   0.441112 0.529883 0.051883 0.038355
C18   C     C_R   0.481486 0.526705 0.950007 0.037943
C19   C     C_R   0.571923 0.797377 0.057201 0.240873
C20   C     C_R   0.342158 0.262055 0.944759 0.270802
C21   C     C_R   0.558581 0.793802 0.108368 0.470129
C22   C     C_R   0.355288 0.265268 0.893960 0.451242
C23   C     C_R   0.503286 0.502466 0.593965 0.927811
C24   C     C_R   0.496984 0.498516 0.406088 0.932728
C25   C     C_R   0.681713 0.757254 0.952920 -0.374007
C26   C     C_R   0.243012 0.298343 0.049561 -0.367780
C27   C     C_2   0.570097 0.959001 0.498016 -0.347872
C28   C     C_2   0.429907 0.041000 0.501990 -0.355453
C29   C     C_R   0.597798 0.658661 0.824331 0.566632
C30   C     C_R   0.365055 0.378024 0.175963 0.609189
C31   C     C_R   0.429563 0.413903 0.820850 0.617664
C32   C     C_R   0.500078 0.637249 0.181093 0.574479
C33   C     C_R   0.662280 0.499921 0.720093 -0.319927
C34   C     C_R   0.618055 0.511761 0.271849 -0.313296
C35   C     C_R   0.661644 0.484354 0.669600 0.441447
C36   C     C_R   0.635179 0.519672 0.321897 0.447054
C37   C     C_R   0.367315 0.564599 0.674855 -0.409772
C38   C     C_R   0.324670 0.458849 0.334367 -0.412617
C39   C     C_R   0.369231 0.579857 0.725247 0.520010
C40   C     C_R   0.307172 0.457947 0.284419 0.536209
C41   C     C_R   0.517049 0.545589 0.747486 0.235414
C42   C     C_R   0.455041 0.485880 0.253159 0.194179
H1    H     H_    0.252608 0.590773 0.657647 0.189533
H2    H     H_    0.210339 0.437069 0.358461 0.193280
H3    H     H_    0.012407 0.382642 0.463264 0.193686
H4    H     H_    0.987592 0.617350 0.536737 0.205081
H5    H     H_    0.730997 0.532097 0.247134 0.179817
H6    H     H_    0.773878 0.472249 0.738518 0.165122
H7    H     H_    0.771064 0.834077 0.972574 0.203036
H8    H     H_    0.148884 0.224975 0.030517 0.197812
H9    H     H_    0.701861 0.011791 0.494212 0.183879
H10   H     H_    0.298144 0.988209 0.505795 0.182838
N1    N     N_R   0.513613 0.540631 0.798919 -0.339397
N2    N     N_R   0.439870 0.499924 0.202176 -0.344590
N3    N     N_2   0.950320 0.457960 0.486880 -0.160585
N4    N     N_2   0.049680 0.542040 0.513120 -0.161282
O1    O     O_R   0.389250 0.738570 0.503220 -0.616082
O2    O     O_R   0.610750 0.261430 0.496780 -0.614786
O3    O     O_R   0.678390 0.711630 0.494810 -0.628565
O4    O     O_R   0.321610 0.288370 0.505190 -0.628239
O5    O     O_R   0.355440 0.513440 0.575450 -0.625492
O6    O     O_R   0.644560 0.486560 0.424550 -0.557033
O7    O     O_R   0.644590 0.486500 0.567040 -0.564802
O8    O     O_R   0.355410 0.513500 0.432960 -0.640974
O9    O     O_2   0.683028 0.778542 0.800226 -0.481471
O10   O     O_2   0.310618 0.243355 0.197990 -0.466780
O11   O     O_2   0.562911 0.757794 0.209042 -0.504535
O12   O     O_2   0.350525 0.299721 0.793574 -0.515351
Zn1   Zn    Zn3+2 0.306940 0.517990 0.505620 0.966473
Zn2   Zn    Zn3+2 0.693060 0.482010 0.494380 1.005026
O13   O     O_3   0.228175 0.624639 0.753707 -0.757014
H11   H     H_    0.134355 0.642851 0.732572 0.339582
O14   O     O_3   0.147398 0.434513 0.265432 -0.747061
H12   H     H_    0.060787 0.399292 0.291468 0.341078
O15   O     O_3   0.779160 0.896762 0.880200 -0.586924
C43   C     C_3   0.735770 0.041204 0.902093 0.084283
H13   H     H_    0.817924 0.072430 0.932792 0.131222
H14   H     H_    0.598323 0.037838 0.916102 0.199916
C44   C     C_3   0.765122 0.169890 0.865167 -0.711175
H15   H     H_    0.679824 0.144374 0.834882 0.307592
H16   H     H_    0.737499 0.283477 0.883003 0.191168
H17   H     H_    0.900112 0.181177 0.850032 0.221613
O16   O     O_3   0.152310 0.157091 0.122595 -0.586387
C45   C     C_3   0.177646 0.011207 0.098896 0.091839
H18   H     H_    0.312304 0.005058 0.083440 0.188302
H19   H     H_    0.089161 0.990140 0.069118 0.130541
C46   C     C_3   0.139727 0.880538 0.134912 -0.704222
H20   H     H_    0.004266 0.876767 0.150012 0.235823
H21   H     H_    0.160806 0.766256 0.116441 0.190367
H22   H     H_    0.225965 0.898917 0.165254 0.312252
O17   O     O_3   0.793195 0.560592 0.340548 -0.749752
H23   H     H_    0.877496 0.595050 0.313858 0.346138
O18   O     O_3   0.803955 0.435925 0.642398 -0.741878
H24   H     H_    0.896998 0.420685 0.664126 0.334995
O19   O     O_3   0.561167 0.930196 0.137528 -0.573118
C47   C     C_3   0.697080 0.043691 0.125169 0.189045
H25   H     H_    0.648731 0.132516 0.102335 0.179775
H26   H     H_    0.809451 0.992705 0.105770 0.152563
C48   C     C_3   0.755358 0.127966 0.171259 -0.704772
H27   H     H_    0.812660 0.045818 0.194487 0.278936
H28   H     H_    0.852491 0.226085 0.162055 0.235685
H29   H     H_    0.643900 0.176347 0.191931 0.262605
O20   O     O_3   0.353077 0.125639 0.866762 -0.592860
C49   C     C_3   0.192091 0.037224 0.870996 0.251796
H30   H     H_    0.130266 0.042385 0.836217 0.193659
H31   H     H_    0.101953 0.078503 0.900593 0.144886
C50   C     C_3   0.220932 0.866779 0.878712 -0.712399
H32   H     H_    0.291547 0.855784 0.911777 0.251835
H33   H     H_    0.095236 0.796234 0.882782 0.232864
H34   H     H_    0.296925 0.819822 0.846966 0.265395
O21   O     O_3   0.600431 0.941372 0.036597 -0.853016
H35   H     H_    0.531215 0.938787 0.008113 0.336421
O22   O     O_3   0.309423 0.117245 0.964641 -0.825528
H36   H     H_    0.381468 0.115713 0.992406 0.333518

loop_
_geom_bond_atom_site_label_1
_geom_bond_atom_site_label_2
_ccdc_geom_bond_type
N3    N4    D    
O18   H24   S    
C8    O16   S    
C8    C26   A    
O14   H12   S    
C14   C18   A    
O19   C47   S    
C34   C42   A    
C43   C44   S    
C46   H20   S    
C49   H31   S    
C39   C41   A    
C30   N2    A    
C19   C21   A    
C45   H19   S    
C26   H8    S    
C20   O22   S    
C2    O4    A    
C9    C22   A    
C47   C48   S    
C40   O14   S    
O6    Zn2   S    
C3    C18   A    
C11   C23   S    
C11   C37   A    
O16   C45   S    
C47   H26   S    
C50   H32   S    
C45   C46   S    
C12   C36   A    
C23   O7    A    
C24   O8    A    
C50   H33   S    
C32   N2    A    
C49   H30   S    
C27   H9    S    
C5    C29   A    
C35   O18   S    
C10   C21   A    
C31   O12   S    
C13   C19   A    
C14   C20   A    
C45   H18   S    
C4    C6    A    
O17   H23   S    
C44   H16   S    
O2    Zn2   S    
C15   C26   A    
C7    O15   S    
C21   O19   S    
C31   N1    A    
C22   O20   S    
C37   H1    S    
O15   C43   S    
C38   H2    S    
C3    C9    A    
C1    O1    A    
C48   H27   S    
O7    Zn2   S    
C47   H25   S    
O8    Zn1   S    
C43   H13   S    
C41   N1    S    
C30   O10   S    
C32   O11   S    
C29   O9    S    
C4    C17   A    
C36   O17   S    
C6    C30   A    
C1    O3    A    
C20   C22   A    
C46   H21   S    
C50   H34   S    
C46   H22   S    
C4    C10   A    
O20   C49   S    
C5    C7    A    
O22   H36   S    
O5    Zn1   S    
C16   C25   A    
C15   C17   A    
C24   O6    A    
O21   H35   S    
C48   H28   S    
C43   H14   S    
C3    C5    A    
C44   H17   S    
C6    C8    A    
C2    O2    A    
C19   O21   S    
C12   C24   S    
C7    C25   A    
C13   C17   A    
C33   C41   A    
C11   C35   A    
O13   H11   S    
C37   C39   A    
C42   N2    S    
C38   C40   A    
C28   H10   S    
C29   N1    A    
O4    Zn1   S    
C40   C42   A    
C33   C35   A    
C34   C36   A    
C12   C38   A    
C25   H7    S    
N3    Zn2   S    
C9    C31   A    
O3    Zn2   S    
C44   H15   S    
C10   C32   A    
C23   O5    A    
C48   H29   S    
H3    N3    S    
C16   C18   A    
N4    Zn1   S    
C13   C16   A    
H4    N4    S    
C27   C28   D    
C1    C27   S    
C33   H6    S    
C39   O13   S    
C14   C15   A    
C2    C28   S    
C34   H5    S    
O1    Zn1   S    
C49   C50   S    
