data_mof_unit_14669.cif
_audit_creation_date              2012-12-10T21:28:53-0500
_audit_creation_method            fapswitch 2.2
_symmetry_space_group_name_H-M    P1
_symmetry_Int_Tables_number       1
_space_group_crystal_system       triclinic
_cell_length_a                    10.781073
_cell_length_b                    16.147307
_cell_length_c                    16.686389
_cell_angle_alpha                 87.872318
_cell_angle_beta                  92.664074
_cell_angle_gamma                 93.020299
_cell_volume                      2895.93331628

loop_
_atom_site_label
_atom_site_type_symbol
_atom_type_description
_atom_site_fract_x
_atom_site_fract_y
_atom_site_fract_z
_atom_type_partial_charge
C1    C     C_R   0.498279 0.489198 0.653212 1.020313
C2    C     C_R   0.922168 0.483418 0.424279 -0.094040
C3    C     C_R   0.872064 0.504083 0.496719 -0.211232
C4    C     C_R   0.948708 0.525377 0.563983 0.422020
C5    C     C_R   0.075593 0.526671 0.557595 -0.181765
C6    C     C_R   0.126872 0.499388 0.488874 -0.140827
C7    C     C_R   0.502369 0.484627 0.740283 -0.190098
C8    C     C_R   0.580622 0.543833 0.779668 -0.283796
C9    C     C_R   0.582099 0.549532 0.862338 0.338625
C10   C     C_R   0.499088 0.498140 0.905850 0.200193
C11   C     C_R   0.424312 0.436168 0.867324 -0.236576
C12   C     C_R   0.740002 0.500650 0.501795 1.013395
C13   C     C_R   0.424981 0.428558 0.784541 0.354258
C14   C     C_R   0.420285 0.431139 0.141787 0.407926
C15   C     C_R   0.461106 0.437678 0.220740 -0.392321
C16   C     C_R   0.391245 0.502712 0.096961 0.076001
C17   C     C_R   0.471540 0.514499 0.257985 -0.115385
C18   C     C_R   0.438312 0.587764 0.213491 0.053855
C19   C     C_R   0.393182 0.580653 0.132571 0.390586
C20   C     C_R   0.429037 0.758655 0.464104 -0.001219
C21   C     C_R   0.427326 0.845541 0.464219 -0.302124
C22   C     C_R   0.515147 0.890787 0.512590 0.236597
C23   C     C_R   0.499032 0.510935 0.345816 0.935146
C24   C     C_R   0.602458 0.845944 0.560259 0.265267
C25   C     C_R   0.600533 0.758788 0.557541 -0.086101
C26   C     C_R   0.562012 0.145907 0.515682 -0.301578
C27   C     C_R   0.575069 0.232189 0.522982 0.516801
C28   C     C_R   0.455410 0.107540 0.479306 0.250850
C29   C     C_R   0.380198 0.247003 0.453789 -0.052181
C30   C     C_R   0.363073 0.159691 0.447348 0.075767
C31   C     C_R   0.259972 0.500004 0.492987 0.907372
C32   C     C_R   0.848799 0.478616 0.351885 0.376872
C33   C     C_R   0.879893 0.418777 0.298580 0.087026
C34   C     C_R   0.003721 0.399413 0.297253 -0.127515
C35   C     C_R   0.091403 0.436080 0.351558 0.157006
C36   C     C_R   0.050295 0.472148 0.421922 0.055045
H1    H     H_    0.639314 0.587131 0.745436 0.239882
H2    H     H_    0.636194 0.108216 0.539251 0.243914
H3    H     H_    0.666494 0.724123 0.593725 0.208788
H4    H     H_    0.307918 0.285949 0.430555 0.156720
H5    H     H_    0.358135 0.876608 0.426768 0.193840
H6    H     H_    0.360407 0.724265 0.427584 0.152070
H7    H     H_    0.033490 0.363849 0.248354 0.182993
H8    H     H_    0.135941 0.545791 0.608116 0.217606
H9    H     H_    0.482422 0.380952 0.253917 0.228180
H10   H     H_    0.364145 0.394759 0.902241 0.230560
N1    N     N_2   0.493630 0.508130 0.988795 -0.060277
N2    N     N_2   0.386511 0.498068 0.013394 -0.056628
N3    N     N_R   0.515300 0.716920 0.509720 -0.111679
N4    N     N_2   0.521437 0.979799 0.514705 -0.096266
N5    N     N_2   0.440198 0.018287 0.474463 -0.142013
N6    N     N_R   0.484690 0.283070 0.490290 -0.161632
O1    O     O_R   0.494530 0.422540 0.612660 -0.516803
O2    O     O_R   0.504350 0.561840 0.618900 -0.635964
O3    O     O_R   0.678320 0.430330 0.496880 -0.571201
O4    O     O_R   0.688140 0.569640 0.503120 -0.552248
O5    O     O_R   0.495650 0.438160 0.381100 -0.662856
O6    O     O_R   0.505470 0.577460 0.387340 -0.603974
O7    O     O_R   0.311860 0.430360 0.496880 -0.604039
O8    O     O_R   0.321680 0.569670 0.503120 -0.632312
Zn1   Zn    Zn3+2 0.493440 0.406980 0.495830 1.063227
Zn2   Zn    Zn3+2 0.506560 0.593020 0.504170 1.012447
S1    S     S_3+6 0.890756 0.549766 0.657277 0.061879
O9    O     O_2   0.833869 0.632663 0.649215 -0.298144
O10   O     O_2   0.794013 0.484641 0.681548 -0.296989
O11   O     O_3   0.006173 0.553679 0.728670 -0.490333
H11   H     H_    0.964506 0.561533 0.779286 0.426088
S2    S     S_3+6 0.321828 0.353098 0.739044 0.098448
O12   O     O_2   0.243409 0.393879 0.673702 -0.265252
O13   O     O_2   0.395191 0.288306 0.702965 -0.246193
O14   O     O_3   0.227289 0.306923 0.806661 -0.470212
H12   H     H_    0.277731 0.264882 0.835711 0.369276
C37   C     C_3   0.451705 0.671471 0.251911 -0.628430
H13   H     H_    0.380457 0.674770 0.297306 0.211237
H14   H     H_    0.546357 0.680953 0.279959 0.258331
H15   H     H_    0.441602 0.724933 0.209469 0.275468
S3    S     S_3+6 0.681068 0.626248 0.908856 0.119608
O15   O     O_2   0.728395 0.594830 0.989909 -0.177140
O16   O     O_2   0.789893 0.649401 0.857978 -0.253529
O17   O     O_3   0.600541 0.710962 0.920414 -0.432481
H16   H     H_    0.571078 0.727877 0.865411 0.354160
S4    S     S_3+6 0.335956 0.667266 0.075490 0.088698
O18   O     O_2   0.443161 0.726831 0.056281 -0.219415
O19   O     O_2   0.269585 0.641208 0.998558 -0.221818
O20   O     O_3   0.235558 0.715089 0.130113 -0.526765
H17   H     H_    0.216566 0.766383 0.098534 0.405408
S5    S     S_3+6 0.712655 0.267846 0.576458 0.107580
O21   O     O_2   0.687561 0.335726 0.631272 -0.212185
O22   O     O_2   0.765229 0.197822 0.626971 -0.223756
O23   O     O_3   0.819493 0.300932 0.510588 -0.568848
H18   H     H_    0.893554 0.319121 0.544052 0.391099
S6    S     S_3+6 0.714819 0.898015 0.623311 0.095696
O24   O     O_2   0.803083 0.949152 0.572118 -0.213187
O25   O     O_2   0.651865 0.954854 0.676094 -0.233958
O26   O     O_3   0.795711 0.830152 0.680952 -0.453953
H19   H     H_    0.736263 0.806463 0.720252 0.369111
S7    S     S_3+6 0.817737 0.576252 0.304511 0.032918
O27   O     O_2   0.938904 0.613990 0.275736 -0.236921
O28   O     O_2   0.729083 0.566296 0.233086 -0.291240
O29   O     O_3   0.761470 0.641642 0.368049 -0.549400
H20   H     H_    0.768490 0.696971 0.340502 0.386660
C38   C     C_3   0.246277 0.123003 0.407138 -0.754901
H21   H     H_    0.182873 0.171804 0.385206 0.236864
H22   H     H_    0.270267 0.087127 0.355019 0.252893
H23   H     H_    0.196250 0.080963 0.450354 0.265449
C39   C     C_3   0.790592 0.387803 0.233697 -0.690699
H24   H     H_    0.695823 0.405780 0.244515 0.242570
H25   H     H_    0.818639 0.413890 0.174342 0.282799
H26   H     H_    0.789328 0.319017 0.233372 0.238550
C40   C     C_3   0.220308 0.445844 0.324681 -0.844498
H27   H     H_    0.256477 0.509922 0.336160 0.219926
H28   H     H_    0.276836 0.397886 0.354120 0.250734
H29   H     H_    0.222587 0.438548 0.258875 0.246043
S8    S     S_3+6 0.409938 0.332518 0.098354 0.046334
O30   O     O_2   0.520750 0.324578 0.048269 -0.264793
O31   O     O_2   0.407581 0.264584 0.162457 -0.279729
O32   O     O_3   0.279220 0.323660 0.039614 -0.529449
H30   H     H_    0.285836 0.271528 0.010990 0.393898

loop_
_geom_bond_atom_site_label_1
_geom_bond_atom_site_label_2
_ccdc_geom_bond_type
O6    Zn2   S    
C23   O6    A    
S5    O21   D    
S1    O10   D    
C37   H13   S    
O26   H19   S    
C16   N2    S    
S8    O30   D    
C7    C8    A    
S3    O15   D    
C4    S1    S    
C26   C27   A    
C17   C23   S    
O8    Zn2   S    
C18   C19   A    
N6    Zn1   S    
C16   C19   A    
C5    C6    A    
C28   N5    S    
C39   H24   S    
C32   S7    S    
C38   H23   S    
C2    C32   A    
C34   C35   A    
C31   O7    A    
C1    O1    A    
C40   H27   S    
O29   H20   S    
C3    C12   S    
O1    Zn1   S    
C35   C36   A    
C8    C9    A    
C19   S4    S    
C9    C10   A    
C22   N4    S    
O4    Zn2   S    
O11   H11   S    
S1    O11   S    
C21   C22   A    
C37   H14   S    
C24   S6    S    
S7    O28   D    
S7    O27   D    
C25   N3    A    
S3    O16   D    
C29   N6    A    
O7    Zn1   S    
C34   H7    S    
S8    O32   S    
C33   C34   A    
C24   C25   A    
S2    O12   D    
O2    Zn2   S    
N4    N5    D    
O20   H17   S    
S6    O26   S    
C31   O8    A    
C38   H22   S    
C1    O2    A    
C20   N3    A    
C20   H6    S    
N1    N2    D    
C7    C13   A    
C30   C38   S    
S6    O25   D    
C17   C18   A    
C9    S3    S    
C27   S5    S    
C40   H29   S    
C12   O4    A    
C35   C40   S    
C21   H5    S    
C5    H8    S    
C18   C37   S    
S4    O19   D    
S5    O22   D    
C37   H15   S    
C14   C16   A    
C8    H1    S    
C15   H9    S    
C3    C4    A    
S7    O29   S    
C27   N6    A    
S3    O17   S    
C2    C36   A    
C23   O5    A    
N3    Zn2   S    
C1    C7    S    
C26   H2    S    
C33   C39   S    
O17   H16   S    
S8    O31   D    
O5    Zn1   S    
S4    O20   S    
C26   C28   A    
C32   C33   A    
C28   C30   A    
C2    C3    A    
O14   H12   S    
C14   S8    S    
O32   H30   S    
C25   H3    S    
C11   C13   A    
O23   H18   S    
C39   H25   S    
S2    O14   S    
O3    Zn1   S    
C29   H4    S    
S6    O24   D    
C6    C36   A    
C6    C31   S    
C22   C24   A    
C38   H21   S    
C40   H28   S    
C12   O3    A    
C10   C11   A    
C29   C30   A    
S1    O9    D    
C4    C5    A    
C20   C21   A    
S2    O13   D    
S4    O18   D    
S5    O23   S    
C10   N1    S    
C14   C15   A    
C11   H10   S    
C15   C17   A    
C13   S2    S    
C39   H26   S    
