data_mof_unit_57749.cif
_audit_creation_date              2012-12-11T14:06:52-0500
_audit_creation_method            fapswitch 2.2
_symmetry_space_group_name_H-M    P1
_symmetry_Int_Tables_number       1
_space_group_crystal_system       triclinic
_cell_length_a                    6.920557
_cell_length_b                    17.298292
_cell_length_c                    24.122513
_cell_angle_alpha                 104.519976
_cell_angle_beta                  90.449655
_cell_angle_gamma                 89.975624
_cell_volume                      2795.47299978

loop_
_atom_site_label
_atom_site_type_symbol
_atom_type_description
_atom_site_fract_x
_atom_site_fract_y
_atom_site_fract_z
_atom_type_partial_charge
O1    O     O_R   0.494290 0.391990 0.999150 -0.534651
O2    O     O_R   0.827170 0.534410 0.082350 -0.542292
O3    O     O_R   0.994360 0.608010 0.000850 -0.536067
C1    C     C_R   0.658627 0.549968 0.106163 0.710775
O4    O     O_R   0.824210 0.388010 0.004470 -0.544979
O5    O     O_R   0.991370 0.460560 0.922410 -0.540594
C2    C     C_R   0.654531 0.354869 0.001494 0.777718
O6    O     O_R   0.497270 0.539440 0.077590 -0.540652
O7    O     O_3   0.659770 0.523970 0.973170 -0.372277
V1    V     V_3+5 0.935840 0.495550 0.004980 1.423211
O8    O     O_R   0.320910 0.465590 0.917650 -0.544122
C3    C     C_R   0.151317 0.449772 0.894020 0.703113
O9    O     O_R   0.323870 0.611990 0.995530 -0.547140
C4    C     C_R   0.154388 0.645134 0.998528 0.772043
V2    V     V_3+5 0.435470 0.504450 0.995020 1.418655
O10   O     O_3   0.161670 0.476030 0.026830 -0.368891
C5    C     C_2   0.142796 0.730262 0.998108 -0.340442
H1    H     H_    0.277305 0.761074 0.994732 0.149122
C6    C     C_2   0.972759 0.769788 0.002040 -0.336250
H2    H     H_    0.838251 0.738977 0.005419 0.149457
C7    C     C_R   0.233620 0.275437 0.620029 0.582737
N1    N     N_R   0.093233 0.325690 0.648917 -0.555965
C8    C     C_R   0.935987 0.345369 0.620023 0.585871
C9    C     C_R   0.913847 0.313298 0.560572 -0.025397
C10   C     C_R   0.057642 0.262388 0.530558 -0.018937
C11   C     C_R   0.219675 0.243614 0.560328 -0.030413
C12   C     C_R   0.751797 0.331130 0.530474 -0.147886
C13   C     C_R   0.733529 0.299208 0.471388 -0.143814
C14   C     C_R   0.877143 0.248859 0.440858 -0.040958
C15   C     C_R   0.039553 0.230302 0.470608 -0.020081
C16   C     C_R   0.184252 0.179945 0.440526 -0.028613
C17   C     C_R   0.345712 0.161733 0.470669 -0.150713
C18   C     C_R   0.363038 0.193061 0.529830 -0.145464
C19   C     C_R   0.863763 0.217362 0.381103 0.603564
N2    N     N_R   0.006636 0.168784 0.352120 -0.549674
C20   C     C_R   0.164173 0.149270 0.380892 0.592651
O11   O     O_2   0.385124 0.255169 0.648966 -0.521934
O12   O     O_2   0.802009 0.396573 0.648516 -0.525954
H3    H     H_    0.638153 0.369669 0.552471 0.169181
H4    H     H_    0.606569 0.314259 0.449738 0.175105
O13   O     O_2   0.710745 0.236408 0.352175 -0.506421
O14   O     O_2   0.300869 0.099935 0.351978 -0.520711
H5    H     H_    0.459718 0.123437 0.448642 0.169176
H6    H     H_    0.489716 0.177813 0.551504 0.174292
C21   C     C_R   0.838521 0.093288 0.263826 -0.066451
H7    H     H_    0.724350 0.077713 0.289520 0.172124
C22   C     C_R   0.829017 0.065726 0.204075 -0.214660
H8    H     H_    0.706759 0.029299 0.185026 0.170050
C23   C     C_R   0.976839 0.083528 0.169357 -0.142358
C24   C     C_R   0.133821 0.131688 0.196335 0.339785
C25   C     C_R   0.141013 0.159333 0.256093 -0.105827
H9    H     H_    0.260630 0.196674 0.276139 0.186393
C26   C     C_R   0.995096 0.140091 0.290378 0.288955
C27   C     C_R   0.275286 0.398864 0.735511 -0.078773
H10   H     H_    0.392995 0.408807 0.708792 0.167320
C28   C     C_R   0.290538 0.428325 0.795085 -0.203052
H11   H     H_    0.420499 0.460037 0.813070 0.141300
C29   C     C_R   0.138076 0.418127 0.830850 -0.057785
C30   C     C_R   0.971459 0.376831 0.805692 -0.203779
H12   H     H_    0.852032 0.367288 0.831979 0.132081
C31   C     C_R   0.958070 0.345995 0.746366 -0.084002
H13   H     H_    0.829634 0.313171 0.728285 0.156257
C32   C     C_R   0.109065 0.357076 0.710490 0.354456
C33   C     C_R   0.434634 0.867994 0.611844 0.574987
N3    N     N_R   0.508189 0.825728 0.648406 -0.557225
C34   C     C_R   0.599782 0.753961 0.627360 0.571922
C35   C     C_R   0.621791 0.722640 0.567862 -0.028005
C36   C     C_R   0.547498 0.765536 0.529983 -0.014801
C37   C     C_R   0.452476 0.838704 0.551993 -0.026837
C38   C     C_R   0.716302 0.649599 0.545395 -0.142655
C39   C     C_R   0.736839 0.619698 0.486231 -0.142885
C40   C     C_R   0.663375 0.662032 0.447954 -0.029313
C41   C     C_R   0.568385 0.735208 0.469959 -0.014991
C42   C     C_R   0.494103 0.778100 0.432077 -0.026638
C43   C     C_R   0.399655 0.851159 0.454546 -0.143744
C44   C     C_R   0.379088 0.881058 0.513714 -0.145237
C45   C     C_R   0.681097 0.632701 0.388107 0.580303
N4    N     N_R   0.607536 0.674948 0.351534 -0.557648
C46   C     C_R   0.516051 0.746746 0.372574 0.569748
O15   O     O_2   0.346776 0.938704 0.633228 -0.519991
O16   O     O_2   0.668454 0.712606 0.663828 -0.520736
H14   H     H_    0.774897 0.615236 0.573452 0.176063
H15   H     H_    0.810358 0.563223 0.470621 0.172699
O17   O     O_2   0.768827 0.561958 0.366737 -0.514588
O18   O     O_2   0.447422 0.788098 0.336099 -0.522051
H16   H     H_    0.341104 0.885532 0.426489 0.175596
H17   H     H_    0.305596 0.937540 0.529326 0.171545
C47   C     C_R   0.803081 0.629634 0.263360 -0.078415
H18   H     H_    0.934161 0.643885 0.288657 0.127137
C48   C     C_R   0.815930 0.599007 0.203801 -0.192160
H19   H     H_    0.957486 0.590171 0.184466 0.128311
C49   C     C_R   0.647748 0.580858 0.169703 -0.057195
C50   C     C_R   0.466872 0.593673 0.196947 -0.188629
H20   H     H_    0.334069 0.580349 0.172382 0.132060
C51   C     C_R   0.454390 0.624014 0.256326 -0.081453
H21   H     H_    0.313559 0.633050 0.276133 0.123370
C52   C     C_R   0.622052 0.642653 0.290145 0.372855
C53   C     C_R   0.312515 0.870632 0.736588 -0.080901
H22   H     H_    0.181479 0.856280 0.711282 0.127147
C54   C     C_R   0.299604 0.901025 0.796169 -0.199565
H23   H     H_    0.158039 0.909604 0.815514 0.126436
C55   C     C_R   0.467753 0.919261 0.830277 -0.052742
C56   C     C_R   0.648647 0.906792 0.803022 -0.197863
H24   H     H_    0.781422 0.920215 0.827590 0.129492
C57   C     C_R   0.661186 0.876683 0.743624 -0.086842
H25   H     H_    0.802029 0.867882 0.723810 0.122871
C58   C     C_R   0.493570 0.857942 0.709797 0.374579
C59   C     C_2   0.642898 0.269730 0.001938 -0.329823
H26   H     H_    0.777593 0.238852 0.005268 0.151467
C60   C     C_2   0.472574 0.230266 0.998060 -0.320672
H27   H     H_    0.337871 0.261146 0.994749 0.148126
O19   O     O_R   0.618210 0.960470 0.922400 -0.546589
O20   O     O_R   0.291310 0.111960 0.995450 -0.539249
O21   O     O_R   0.124210 0.039530 0.077580 -0.507384
C61   C     C_R   0.460974 0.145114 0.998451 0.830243
O22   O     O_R   0.288310 0.965490 0.917650 -0.548699
O23   O     O_R   0.121180 0.892010 0.999220 -0.539742
C62   C     C_R   0.456851 0.949979 0.893828 0.682885
O24   O     O_R   0.621230 0.107990 0.000760 -0.535714
O25   O     O_3   0.455770 0.976060 0.026840 -0.359621
V3    V     V_3+5 0.179680 0.004440 0.995020 1.467976
O26   O     O_R   0.791670 0.888040 0.004570 -0.551411
C63   C     C_R   0.961158 0.854904 0.001588 0.755907
O27   O     O_R   0.794680 0.034510 0.082370 -0.534116
C64   C     C_R   0.964328 0.051646 0.105953 0.772962
V4    V     V_3+5 0.680070 0.995560 0.005010 1.464783
O28   O     O_3   0.953840 0.023940 0.973160 -0.382889
Cl1   Cl    Cl    0.321664 0.162693 0.157792 -0.639863

loop_
_geom_bond_atom_site_label_1
_geom_bond_atom_site_label_2
_ccdc_geom_bond_type
C7    C11   A    
V4    O28   S    
N2    C26   S    
C41   C42   A    
C20   O14   S    
C51   H21   S    
C9    C12   A    
C1    O6    A    
C22   C23   A    
C45   N4    A    
C59   H26   S    
C57   C58   A    
C6    C63   S    
C14   C15   A    
C13   C14   A    
V3    O28   S    
C16   C20   A    
O5    C3    A    
C15   C16   A    
O25   V4    S    
C27   C32   A    
C13   H4    S    
V2    O10   S    
C53   H22   S    
C28   H11   S    
C37   C44   A    
C1    C49   S    
C19   N2    A    
C31   C32   A    
O23   V3    S    
C60   H27   S    
C49   C50   A    
C43   H16   S    
N1    C32   S    
O21   V3    S    
O8    V2    S    
C16   C17   A    
C12   H3    S    
C36   C37   A    
C8    C9    A    
C38   C39   A    
O1    V2    S    
C28   C29   A    
O7    V1    S    
O19   V4    S    
C47   C52   A    
C55   C62   S    
C3    C29   S    
C34   C35   A    
O23   C63   A    
C21   C26   A    
C30   H12   S    
C50   C51   A    
O9    C4    A    
C33   O15   S    
C4    C5    S    
C31   H13   S    
C19   O13   S    
C5    H1    S    
C39   H15   S    
C21   C22   A    
C27   C28   A    
C30   C31   A    
C42   C43   A    
C35   C36   A    
C9    C10   A    
O22   V3    S    
O4    C2    A    
O21   C64   A    
N4    C46   A    
C45   O17   S    
C36   C41   A    
C21   H7    S    
C14   C19   A    
C53   C58   A    
C25   H9    S    
C25   C26   A    
N2    C20   A    
O26   V4    S    
O2    C1    A    
C43   C44   A    
C40   C45   A    
C11   C18   A    
C48   C49   A    
C22   H8    S    
N4    C52   S    
C54   C55   A    
C24   C25   A    
O20   V3    S    
C56   C57   A    
C50   H20   S    
C33   C37   A    
C44   H17   S    
O3    C4    A    
O22   C62   A    
C47   C48   A    
N3    C34   A    
O6    V2    S    
C61   O24   A    
C42   C46   A    
O9    V2    S    
C29   C30   A    
C24   Cl1   S    
O2    V1    S    
C46   O18   S    
O25   V3    S    
O27   V4    S    
C10   C15   A    
C27   H10   S    
O1    C2    A    
C18   H6    S    
N1    C8    A    
C40   C41   A    
O5    V1    S    
O8    C3    A    
C51   C52   A    
C8    O12   S    
C23   C64   S    
C57   H25   S    
C53   C54   A    
C35   C38   A    
C17   C18   A    
C6    H2    S    
C10   C11   A    
O4    V1    S    
O3    V1    S    
V1    O10   S    
C33   N3    A    
C34   O16   S    
O19   C62   A    
C48   H19   S    
C54   H23   S    
C5    C6    D    
C17   H5    S    
C59   C60   D    
O7    V2    S    
C55   C56   A    
C38   H14   S    
O24   V4    S    
C39   C40   A    
C7    O11   S    
C47   H18   S    
C23   C24   A    
C56   H24   S    
C2    C59   S    
O20   C61   A    
O26   C63   A    
C7    N1    A    
C60   C61   S    
N3    C58   S    
O27   C64   A    
C12   C13   A    
