data_mof_unit_31234.cif
_audit_creation_date              2012-12-11T15:08:44-0500
_audit_creation_method            fapswitch 2.2
_symmetry_space_group_name_H-M    P1
_symmetry_Int_Tables_number       1
_space_group_crystal_system       monoclinic
_cell_length_a                    19.374096
_cell_length_b                    11.26282
_cell_length_c                    18.711623
_cell_angle_alpha                 90.0
_cell_angle_beta                  90.224936
_cell_angle_gamma                 90.0
_cell_volume                      4082.97483038

loop_
_atom_site_label
_atom_site_type_symbol
_atom_type_description
_atom_site_fract_x
_atom_site_fract_y
_atom_site_fract_z
_atom_type_partial_charge
C1    C     C_R   0.272413 0.043765 0.854096 0.531943
C2    C     C_3   0.687898 0.528835 0.956012 -0.235402
C3    C     C_R   0.226941 0.543377 0.354276 0.538233
C4    C     C_R   0.468717 0.823142 0.645320 0.543288
C5    C     C_R   0.531283 0.823142 0.354680 0.543288
C6    C     C_R   0.968717 0.323142 0.645320 0.543288
C7    C     C_R   0.031283 0.323142 0.354680 0.543288
C8    C     C_R   0.260953 0.640143 0.643514 0.540471
C9    C     C_R   0.739047 0.640143 0.356486 0.540471
C10   C     C_R   0.760953 0.140143 0.643514 0.540471
C11   C     C_R   0.239047 0.140143 0.356486 0.540471
C12   C     C_3   0.479737 0.915941 0.035671 -0.109332
C13   C     C_3   0.812102 0.028835 0.043988 -0.235402
C14   C     C_3   0.520263 0.915941 0.964329 -0.109332
C15   C     C_3   0.979737 0.415941 0.035671 -0.109332
C16   C     C_3   0.020263 0.415941 0.964329 -0.109332
C17   C     C_3   0.431392 0.817775 0.006596 -0.159190
C18   C     C_3   0.568608 0.817775 0.993404 -0.159190
C19   C     C_3   0.931392 0.317775 0.006596 -0.159190
C20   C     C_3   0.068607 0.317775 0.993404 -0.159190
C21   C     C_3   0.471865 0.819499 0.936072 0.056916
C22   C     C_3   0.528135 0.819499 0.063927 0.056916
C23   C     C_3   0.971865 0.319499 0.936072 0.056916
C24   C     C_3   0.187898 0.028835 0.956012 -0.235402
C25   C     C_3   0.028135 0.319499 0.063927 0.056916
C26   C     C_3   0.321407 0.552917 0.963568 -0.234887
C27   C     C_3   0.678593 0.552917 0.036432 -0.234887
C28   C     C_3   0.821407 0.052917 0.963568 -0.234887
C29   C     C_3   0.178593 0.052917 0.036432 -0.234888
C30   C     C_3   0.179505 0.523779 0.025892 -0.208166
C31   C     C_3   0.820495 0.523779 0.974108 -0.208166
C32   C     C_3   0.679505 0.023779 0.025892 -0.208166
C33   C     C_R   0.727586 0.043765 0.145904 0.531943
C34   C     C_3   0.320495 0.023779 0.974108 -0.208166
C35   C     C_3   0.240609 0.708261 0.056616 -0.257236
C36   C     C_3   0.759391 0.708261 0.943384 -0.257236
C37   C     C_3   0.740609 0.208261 0.056616 -0.257236
C38   C     C_3   0.259391 0.208261 0.943384 -0.257236
C39   C     C_3   0.241001 0.574958 0.070286 0.065241
C40   C     C_3   0.758999 0.574957 0.929714 0.065241
C41   C     C_3   0.741001 0.074957 0.070286 0.065241
C42   C     C_3   0.258999 0.074957 0.929714 0.065241
C43   C     C_3   0.255061 0.610102 0.932301 0.054667
C44   C     C_R   0.772414 0.543765 0.854096 0.531943
C45   C     C_3   0.744939 0.610102 0.067699 0.054666
C46   C     C_3   0.755061 0.110102 0.932301 0.054667
C47   C     C_3   0.244939 0.110102 0.067699 0.054666
C48   C     C_3   0.194743 0.524842 0.945127 -0.253683
C49   C     C_3   0.805257 0.524842 0.054873 -0.253683
C50   C     C_3   0.694743 0.024842 0.945127 -0.253683
C51   C     C_3   0.305257 0.024842 0.054873 -0.253683
C52   C     C_3   0.238647 0.726090 0.974666 -0.222289
C53   C     C_3   0.761353 0.726090 0.025333 -0.222289
C54   C     C_3   0.738647 0.226090 0.974666 -0.222289
C55   C     C_R   0.227586 0.543765 0.145904 0.531943
C56   C     C_3   0.261353 0.226090 0.025333 -0.222289
C57   C     C_3   0.503647 0.700933 0.460342 -0.227828
C58   C     C_3   0.496353 0.700933 0.539658 -0.227828
C59   C     C_3   0.003647 0.200933 0.460342 -0.227828
C60   C     C_3   0.996353 0.200933 0.539658 -0.227828
C61   C     C_R   0.443937 0.817006 0.862443 0.538339
C62   C     C_R   0.556063 0.817006 0.137557 0.538339
C63   C     C_R   0.943937 0.317006 0.862443 0.538339
C64   C     C_R   0.056063 0.317006 0.137557 0.538339
C65   C     C_3   0.564642 0.905363 0.473717 -0.216399
C66   C     C_3   0.519759 0.721783 0.964556 -0.112579
C67   C     C_3   0.435358 0.905363 0.526283 -0.216399
C68   C     C_3   0.064642 0.405363 0.473717 -0.216399
C69   C     C_3   0.935358 0.405363 0.526283 -0.216399
C70   C     C_3   0.440836 0.887559 0.444336 -0.263636
C71   C     C_3   0.559164 0.887559 0.555663 -0.263636
C72   C     C_3   0.940836 0.387559 0.444336 -0.263636
C73   C     C_3   0.059164 0.387559 0.555663 -0.263636
C74   C     C_3   0.510618 0.829294 0.430922 0.062593
C75   C     C_3   0.489382 0.829294 0.569078 0.062593
C76   C     C_3   0.010618 0.329294 0.430922 0.062593
C77   C     C_3   0.480241 0.721783 0.035444 -0.112579
C78   C     C_3   0.989382 0.329294 0.569078 0.062593
C79   C     C_3   0.179626 0.647218 0.459236 -0.228183
C80   C     C_3   0.820373 0.647218 0.540764 -0.228183
C81   C     C_3   0.679627 0.147218 0.459236 -0.228183
C82   C     C_3   0.320373 0.147218 0.540764 -0.228183
C83   C     C_3   0.184354 0.659656 0.538471 -0.227485
C84   C     C_3   0.815646 0.659656 0.461529 -0.227485
C85   C     C_3   0.684354 0.159656 0.538471 -0.227485
C86   C     C_3   0.315646 0.159656 0.461529 -0.227485
C87   C     C_3   0.252597 0.454472 0.473011 -0.214880
C88   C     C_3   0.019759 0.221783 0.964556 -0.112579
C89   C     C_3   0.747403 0.454472 0.526989 -0.214880
C90   C     C_3   0.752597 0.954472 0.473011 -0.214880
C91   C     C_3   0.247403 0.954472 0.526989 -0.214880
C92   C     C_3   0.304791 0.647961 0.442518 -0.264428
C93   C     C_3   0.695209 0.647961 0.557482 -0.264428
C94   C     C_3   0.804791 0.147961 0.442518 -0.264428
C95   C     C_3   0.195209 0.147961 0.557482 -0.264428
C96   C     C_3   0.240610 0.572514 0.429991 0.065978
C97   C     C_3   0.759389 0.572514 0.570009 0.065978
C98   C     C_3   0.740610 0.072514 0.429991 0.065978
C99   C     C_3   0.980241 0.221783 0.035444 -0.112579
C100  C     C_3   0.259389 0.072514 0.570009 0.065978
C101  C     C_3   0.252825 0.606037 0.567559 0.064700
C102  C     C_3   0.747175 0.606038 0.432441 0.064700
C103  C     C_3   0.752825 0.106038 0.567559 0.064700
C104  C     C_3   0.247175 0.106038 0.432441 0.064700
C105  C     C_3   0.247315 0.472708 0.554751 -0.264679
C106  C     C_3   0.752684 0.472708 0.445248 -0.264679
C107  C     C_3   0.747315 0.972708 0.554751 -0.264679
C108  C     C_3   0.252684 0.972708 0.445248 -0.264679
C109  C     C_R   0.262163 0.641860 0.855098 0.535121
C110  C     C_3   0.312102 0.528835 0.043988 -0.235402
C111  C     C_R   0.737837 0.641860 0.144902 0.535121
C112  C     C_R   0.762163 0.141860 0.855098 0.535121
C113  C     C_R   0.237837 0.141860 0.144902 0.535121
C114  C     C_3   0.317525 0.648491 0.524252 -0.216979
C115  C     C_3   0.682474 0.648491 0.475747 -0.216979
C116  C     C_3   0.817525 0.148491 0.524252 -0.216979
C117  C     C_3   0.182475 0.148491 0.475747 -0.216979
C118  C     C_R   0.273058 0.043377 0.645724 0.538233
C119  C     C_R   0.726941 0.043377 0.354276 0.538233
C120  C     C_R   0.773058 0.543377 0.645724 0.538233
Cr1   Cr    Cr6+3 0.229620 0.836040 0.749110 0.992002
Cr2   Cr    Cr6+3 0.613980 0.676590 0.250790 0.993843
Cr3   Cr    Cr6+3 0.886020 0.176590 0.749210 0.993843
Cr4   Cr    Cr6+3 0.113980 0.176590 0.250790 0.993843
Cr5   Cr    Cr6+3 0.770380 0.836040 0.250890 0.992002
Cr6   Cr    Cr6+3 0.729620 0.336040 0.749110 0.992002
Cr7   Cr    Cr6+3 0.270380 0.336040 0.250890 0.992002
Cr8   Cr    Cr6+3 0.387630 0.990680 0.750730 0.996655
Cr9   Cr    Cr6+3 0.612370 0.990680 0.249270 0.996655
Cr10  Cr    Cr6+3 0.887630 0.490680 0.750730 0.996655
Cr11  Cr    Cr6+3 0.112370 0.490680 0.249270 0.996655
Cr12  Cr    Cr6+3 0.386020 0.676590 0.749210 0.993843
H1    H     H_    0.376513 0.804542 0.017617 0.092737
H2    H     H_    0.712793 0.747137 0.918516 0.103562
H3    H     H_    0.142322 0.080907 0.465778 0.117906
H4    H     H_    0.306701 0.429069 0.462497 0.118726
H5    H     H_    0.693299 0.429069 0.537503 0.118726
H6    H     H_    0.806701 0.929069 0.462497 0.118726
H7    H     H_    0.193299 0.929069 0.537503 0.118726
H8    H     H_    0.289684 0.425499 0.582976 0.109168
H9    H     H_    0.710316 0.425499 0.417024 0.109168
H10   H     H_    0.789684 0.925499 0.582976 0.109168
H11   H     H_    0.210316 0.925499 0.417024 0.109168
H12   H     H_    0.318400 0.434377 0.055079 0.131025
H13   H     H_    0.787207 0.247137 0.081484 0.103562
H14   H     H_    0.681600 0.434377 0.944921 0.131025
H15   H     H_    0.818400 0.934377 0.055079 0.131025
H16   H     H_    0.181600 0.934377 0.944921 0.131025
H17   H     H_    0.353939 0.573270 0.074597 0.109626
H18   H     H_    0.646061 0.573270 0.925403 0.109626
H19   H     H_    0.853939 0.073270 0.074597 0.109626
H20   H     H_    0.146061 0.073270 0.925403 0.109626
H21   H     H_    0.366206 0.612688 0.955443 0.136312
H22   H     H_    0.633794 0.612688 0.044557 0.136312
H23   H     H_    0.866206 0.112688 0.955443 0.136312
H24   H     H_    0.212793 0.247137 0.918516 0.103562
H25   H     H_    0.133794 0.112688 0.044557 0.136312
H26   H     H_    0.333044 0.468312 0.935427 0.116969
H27   H     H_    0.666956 0.468312 0.064573 0.116969
H28   H     H_    0.833044 0.968312 0.935427 0.116969
H29   H     H_    0.166956 0.968312 0.064573 0.116969
H30   H     H_    0.664123 0.938360 0.047204 0.099934
H31   H     H_    0.335877 0.938360 0.952796 0.099934
H32   H     H_    0.164123 0.438360 0.047204 0.099934
H33   H     H_    0.835877 0.438360 0.952796 0.099934
H34   H     H_    0.708201 0.935811 0.925706 0.111200
H35   H     H_    0.273535 0.795985 0.958374 0.109394
H36   H     H_    0.291799 0.935811 0.074293 0.111200
H37   H     H_    0.208201 0.435811 0.925706 0.111200
H38   H     H_    0.791799 0.435811 0.074293 0.111200
H39   H     H_    0.726465 0.795985 0.041626 0.109393
H40   H     H_    0.773535 0.295985 0.958374 0.109394
H41   H     H_    0.226465 0.295985 0.041626 0.109393
H42   H     H_    0.185133 0.752237 0.960457 0.130647
H43   H     H_    0.814867 0.752237 0.039543 0.130647
H44   H     H_    0.685133 0.252237 0.960457 0.130647
H45   H     H_    0.623487 0.804542 0.982383 0.092737
H46   H     H_    0.314867 0.252237 0.039543 0.130647
H47   H     H_    0.632627 0.079275 0.034655 0.136828
H48   H     H_    0.367373 0.079275 0.965345 0.136829
H49   H     H_    0.132627 0.579275 0.034655 0.136828
H50   H     H_    0.867373 0.579275 0.965345 0.136829
H51   H     H_    0.148179 0.554266 0.915161 0.124475
H52   H     H_    0.851821 0.554266 0.084839 0.124475
H53   H     H_    0.648179 0.054266 0.915161 0.124475
H54   H     H_    0.351821 0.054267 0.084839 0.124475
H55   H     H_    0.546655 0.643646 0.446103 0.136010
H56   H     H_    0.876513 0.304542 0.017617 0.092737
H57   H     H_    0.453345 0.643646 0.553897 0.136010
H58   H     H_    0.046655 0.143646 0.446103 0.136010
H59   H     H_    0.953345 0.143646 0.553897 0.136010
H60   H     H_    0.458488 0.656239 0.435693 0.114563
H61   H     H_    0.541512 0.656239 0.564307 0.114563
H62   H     H_    0.958488 0.156239 0.435693 0.114563
H63   H     H_    0.041511 0.156239 0.564307 0.114563
H64   H     H_    0.616715 0.897177 0.453695 0.113303
H65   H     H_    0.383285 0.897177 0.546305 0.113303
H66   H     H_    0.116715 0.397177 0.453695 0.113303
H67   H     H_    0.123487 0.304542 0.982383 0.092737
H68   H     H_    0.883285 0.397177 0.546305 0.113303
H69   H     H_    0.601237 0.830913 0.576142 0.109605
H70   H     H_    0.398763 0.830913 0.423858 0.109605
H71   H     H_    0.101237 0.330913 0.576142 0.109605
H72   H     H_    0.898763 0.330913 0.423858 0.109605
H73   H     H_    0.464867 0.996983 0.065449 0.113521
H74   H     H_    0.535133 0.996983 0.934551 0.113521
H75   H     H_    0.964867 0.496983 0.065449 0.113521
H76   H     H_    0.035133 0.496983 0.934551 0.113521
H77   H     H_    0.437789 0.973855 0.415887 0.109791
H78   H     H_    0.195030 0.751972 0.081287 0.126827
H79   H     H_    0.562211 0.973855 0.584113 0.109791
H80   H     H_    0.937789 0.473855 0.415887 0.109791
H81   H     H_    0.062211 0.473855 0.584113 0.109791
H82   H     H_    0.449771 0.998705 0.536356 0.117837
H83   H     H_    0.550228 0.998705 0.463644 0.117837
H84   H     H_    0.949771 0.498705 0.536356 0.117837
H85   H     H_    0.050228 0.498705 0.463644 0.117837
H86   H     H_    0.129248 0.611053 0.445486 0.135268
H87   H     H_    0.870752 0.611053 0.554513 0.135268
H88   H     H_    0.629248 0.111053 0.445486 0.135268
H89   H     H_    0.804970 0.751972 0.918713 0.126827
H90   H     H_    0.370752 0.111053 0.554513 0.135268
H91   H     H_    0.179252 0.736417 0.434070 0.114180
H92   H     H_    0.820748 0.736417 0.565930 0.114180
H93   H     H_    0.679252 0.236417 0.434070 0.114180
H94   H     H_    0.320748 0.236417 0.565930 0.114180
H95   H     H_    0.177747 0.752916 0.552048 0.135052
H96   H     H_    0.822253 0.752916 0.447952 0.135052
H97   H     H_    0.677747 0.252916 0.552048 0.135052
H98   H     H_    0.322253 0.252916 0.447952 0.135052
H99   H     H_    0.139495 0.615558 0.563775 0.115190
H100  H     H_    0.695030 0.251972 0.081287 0.126827
H101  H     H_    0.860505 0.615558 0.436225 0.115190
H102  H     H_    0.639495 0.115558 0.563775 0.115190
H103  H     H_    0.360504 0.115558 0.436225 0.115190
H104  H     H_    0.722245 0.880385 0.453637 0.113858
H105  H     H_    0.277755 0.880385 0.546363 0.113858
H106  H     H_    0.222245 0.380385 0.453637 0.113858
H107  H     H_    0.777755 0.380385 0.546363 0.113858
H108  H     H_    0.698039 0.938405 0.575649 0.109305
H109  H     H_    0.301961 0.938405 0.424351 0.109305
H110  H     H_    0.198039 0.438405 0.575649 0.109305
H111  H     H_    0.304970 0.251972 0.918713 0.126827
H112  H     H_    0.801960 0.438405 0.424351 0.109305
H113  H     H_    0.349449 0.609162 0.413828 0.109902
H114  H     H_    0.650551 0.609162 0.586171 0.109902
H115  H     H_    0.849449 0.109162 0.413828 0.109902
H116  H     H_    0.150551 0.109162 0.586171 0.109902
H117  H     H_    0.296817 0.738726 0.421782 0.108497
H118  H     H_    0.703183 0.738726 0.578218 0.108497
H119  H     H_    0.796817 0.238726 0.421782 0.108497
H120  H     H_    0.203183 0.238726 0.578218 0.108497
H121  H     H_    0.534787 0.640188 0.935403 0.122290
H122  H     H_    0.287207 0.747137 0.081484 0.103562
H123  H     H_    0.465212 0.640188 0.064597 0.122290
H124  H     H_    0.034787 0.140188 0.935403 0.122290
H125  H     H_    0.965213 0.140188 0.064597 0.122290
H126  H     H_    0.339160 0.731069 0.543493 0.113278
H127  H     H_    0.660840 0.731069 0.456507 0.113278
H128  H     H_    0.839160 0.231069 0.543493 0.113278
H129  H     H_    0.160840 0.231069 0.456507 0.113278
H130  H     H_    0.357677 0.580907 0.534222 0.117906
H131  H     H_    0.642323 0.580907 0.465778 0.117906
H132  H     H_    0.857677 0.080907 0.534222 0.117906
O1    O     O_R   0.214130 0.708570 0.829890 -0.527737
O2    O     O_R   0.542830 0.717300 0.331620 -0.530440
O3    O     O_R   0.957170 0.217300 0.668380 -0.530440
O4    O     O_R   0.042830 0.217300 0.331620 -0.530440
O5    O     O_R   0.320870 0.624890 0.673130 -0.510485
O6    O     O_R   0.679130 0.624890 0.326870 -0.510485
O7    O     O_R   0.820870 0.124890 0.673130 -0.510485
O8    O     O_R   0.179130 0.124890 0.326870 -0.510485
O9    O     O_3   0.334430 0.834430 0.749680 -0.282462
O10   O     O_3   0.665570 0.834430 0.250320 -0.282462
O11   O     O_3   0.834430 0.334430 0.749680 -0.282462
O12   O     O_R   0.785870 0.708570 0.170110 -0.527737
O13   O     O_3   0.165570 0.334430 0.250320 -0.282462
O14   O     O_R   0.236050 0.959150 0.825270 -0.513943
O15   O     O_R   0.763950 0.959150 0.174730 -0.513943
O16   O     O_R   0.736050 0.459150 0.825270 -0.513943
O17   O     O_R   0.263950 0.459150 0.174730 -0.513943
O18   O     O_R   0.332100 0.076650 0.832310 -0.532964
O19   O     O_R   0.667900 0.076650 0.167690 -0.532964
O20   O     O_R   0.832100 0.576650 0.832310 -0.532964
O21   O     O_R   0.167900 0.576650 0.167690 -0.532964
O22   O     O_R   0.446500 0.918620 0.826240 -0.503742
O23   O     O_R   0.714130 0.208570 0.829890 -0.527737
O24   O     O_R   0.553500 0.918620 0.173760 -0.503742
O25   O     O_R   0.946500 0.418620 0.826240 -0.503742
O26   O     O_R   0.053500 0.418620 0.173760 -0.503742
O27   O     O_R   0.457310 0.715830 0.831280 -0.524061
O28   O     O_R   0.542690 0.715830 0.168720 -0.524061
O29   O     O_R   0.957310 0.215830 0.831280 -0.524061
O30   O     O_R   0.042690 0.215830 0.168720 -0.524061
O31   O     O_R   0.321000 0.623520 0.824130 -0.518902
O32   O     O_R   0.679000 0.623520 0.175870 -0.518902
O33   O     O_R   0.821000 0.123520 0.824130 -0.518902
O34   O     O_R   0.285870 0.208570 0.170110 -0.527737
O35   O     O_R   0.179000 0.123520 0.175870 -0.518902
O36   O     O_R   0.213990 0.710040 0.667000 -0.532681
O37   O     O_R   0.786010 0.710040 0.333000 -0.532681
O38   O     O_R   0.713990 0.210040 0.667000 -0.532681
O39   O     O_R   0.286010 0.210040 0.333000 -0.532681
O40   O     O_R   0.235920 0.960520 0.674260 -0.511402
O41   O     O_R   0.764080 0.960520 0.325740 -0.511402
O42   O     O_R   0.735920 0.460520 0.674260 -0.511402
O43   O     O_R   0.264080 0.460520 0.325740 -0.511402
O44   O     O_R   0.331960 0.078120 0.669410 -0.533822
O45   O     O_R   0.446360 0.919990 0.675230 -0.506873
O46   O     O_R   0.668040 0.078120 0.330590 -0.533822
O47   O     O_R   0.831960 0.578120 0.669410 -0.533822
O48   O     O_R   0.168040 0.578120 0.330590 -0.533822
O49   O     O_R   0.553640 0.919990 0.324770 -0.506873
O50   O     O_R   0.946360 0.419990 0.675230 -0.506873
O51   O     O_R   0.053640 0.419990 0.324770 -0.506873
O52   O     O_R   0.457170 0.717300 0.668380 -0.530440

loop_
_geom_bond_atom_site_label_1
_geom_bond_atom_site_label_2
_ccdc_geom_bond_type
C37   H100  S    
C9    O6    A    
C33   O19   A    
C113  O34   A    
C46   C112  S    
C11   O8    A    
C34   C42   S    
C30   H32   S    
C4    O52   A    
C69   C78   S    
C14   C21   S    
C90   C107  S    
Cr2   O10   S    
C54   H44   S    
C5    C74   S    
Cr9   O19   S    
C36   C53   S    
C18   H45   S    
C89   C106  S    
C70   C74   S    
C35   H122  S    
C91   C100  S    
C94   H115  S    
C85   C103  S    
C59   C60   S    
C87   H106  S    
Cr9   O10   S    
Cr2   O28   S    
C13   H19   S    
C57   H60   S    
Cr1   O1    S    
Cr11  O21   S    
C19   C99   S    
C61   O27   A    
C81   H88   S    
Cr4   O4    S    
C17   C21   S    
C19   C23   S    
C116  H132  S    
C19   H56   S    
C49   H52   S    
Cr11  O51   S    
C66   H121  S    
C16   C20   S    
C91   H105  S    
Cr4   O35   S    
C71   H79   S    
C10   O7    A    
C14   H74   S    
C63   O29   A    
C17   H1    S    
C120  O47   A    
C117  H3    S    
C104  C117  S    
C66   C77   S    
C87   H4    S    
C95   H120  S    
C10   O38   A    
C45   C111  S    
C82   H90   S    
C107  H108  S    
C58   H61   S    
C12   H73   S    
Cr12  O52   S    
C103  C116  S    
C114  H130  S    
C79   C96   S    
C115  H127  S    
C105  H8    S    
C26   H26   S    
C62   O24   A    
Cr8   O9    S    
C57   H55   S    
C88   C99   S    
Cr8   O45   S    
C48   H37   S    
C2    C40   S    
C81   C98   S    
C55   O17   A    
C94   C98   S    
C103  C107  S    
Cr7   O34   S    
C2    H18   S    
Cr8   O44   S    
C21   C66   S    
C84   C102  S    
C3    O48   A    
Cr8   O18   S    
C86   C104  S    
C56   H46   S    
C95   C117  S    
C38   H111  S    
C82   H94   S    
C28   C46   S    
C34   C51   S    
C29   C47   S    
C30   C48   S    
C65   H83   S    
C49   H38   S    
C43   C52   S    
C15   C25   S    
C27   H27   S    
C12   C22   S    
C92   C96   S    
Cr1   O36   S    
C64   O26   A    
C79   H91   S    
C8    O36   A    
C119  O46   A    
C32   H30   S    
C108  H109  S    
C32   C41   S    
C5    O49   A    
C65   H64   S    
Cr5   O37   S    
C27   H22   S    
C45   C53   S    
Cr3   O33   S    
C69   H84   S    
Cr4   O30   S    
C90   H6    S    
Cr3   O11   S    
C60   C78   S    
C54   H40   S    
C109  O1    A    
Cr2   O6    S    
C109  O31   A    
C61   O22   A    
C62   O28   A    
C65   C74   S    
C25   C64   S    
C69   C72   S    
C69   H68   S    
C87   C105  S    
Cr12  O27   S    
C111  O12   A    
C11   C104  S    
C16   C23   S    
C23   C88   S    
C67   C75   S    
C13   H15   S    
Cr3   O29   S    
C93   C97   S    
C35   C52   S    
C93   H118  S    
Cr2   O2    S    
Cr3   O7    S    
Cr4   O8    S    
Cr4   O13   S    
C119  O41   A    
C18   C22   S    
C106  H112  S    
C36   H2    S    
C31   H33   S    
C7    C76   S    
Cr9   O49   S    
C18   C66   S    
C67   C70   S    
C68   H85   S    
C51   H54   S    
C57   C58   S    
C44   O16   A    
C83   H99   S    
Cr12  O9    S    
Cr10  O25   S    
C30   C39   S    
C37   C41   S    
C40   C44   S    
C38   C56   S    
C67   H82   S    
C43   C109  S    
C59   C76   S    
C15   H75   S    
C60   H63   S    
C47   C56   S    
Cr10  O50   S    
C70   H70   S    
C52   H42   S    
C24   C42   S    
C34   H48   S    
C77   H123  S    
C80   C84   S    
C80   H87   S    
C13   C41   S    
Cr2   O32   S    
C15   C19   S    
C53   H43   S    
C10   C103  S    
C35   H78   S    
C52   H35   S    
C80   C97   S    
C20   C25   S    
C99   H125  S    
C44   O20   A    
C55   O21   A    
C31   C40   S    
C89   H107  S    
C24   C29   S    
C4    C75   S    
C102  C115  S    
C24   H20   S    
C25   C99   S    
C39   C55   S    
C9    C102  S    
C12   C17   S    
C50   H34   S    
C28   H23   S    
C13   C28   S    
C2    C27   S    
C112  O23   A    
C83   C101  S    
C8    C101  S    
C21   C61   S    
C72   H72   S    
C117  H129  S    
C27   C45   S    
C23   C63   S    
C5    O2    A    
C113  O35   A    
C101  C114  S    
C73   H81   S    
C31   C49   S    
Cr5   O10   S    
Cr1   O40   S    
C85   H102  S    
C86   H98   S    
Cr1   O14   S    
Cr12  O5    S    
C94   C116  S    
C95   C100  S    
C47   C51   S    
C16   H76   S    
C82   C86   S    
C35   C39   S    
C80   H92   S    
C73   H71   S    
C6    O50   A    
Cr6   O38   S    
C45   C49   S    
Cr7   O43   S    
C46   C54   S    
C17   C77   S    
C90   H104  S    
Cr7   O13   S    
C110  H12   S    
C91   H7    S    
C89   H5    S    
C28   H28   S    
C30   H49   S    
C68   C76   S    
C105  H110  S    
C104  C108  S    
C106  H9    S    
C47   C113  S    
C91   C108  S    
C86   H103  S    
C22   C77   S    
C67   H65   S    
C48   H51   S    
C29   H25   S    
C92   H113  S    
C38   C42   S    
Cr11  O48   S    
Cr12  O31   S    
C56   H41   S    
C33   C41   S    
C1    O14   A    
C79   C83   S    
C20   C88   S    
C7    O51   A    
Cr1   O9    S    
Cr11  O13   S    
C6    C78   S    
C93   H114  S    
C53   H39   S    
Cr3   O3    S    
C1    C42   S    
C6    O3    A    
C120  O42   A    
C59   H58   S    
C108  H11   S    
Cr5   O12   S    
Cr6   O11   S    
C14   C18   S    
C38   H24   S    
C72   C76   S    
C110  H17   S    
C94   H119  S    
C98   C119  S    
C88   H124  S    
C83   H95   S    
C92   H117  S    
C81   H93   S    
Cr6   O42   S    
Cr7   O39   S    
C1    O18   A    
C4    O45   A    
C15   C16   S    
C68   H66   S    
C93   C115  S    
Cr10  O20   S    
C39   C110  S    
C118  O44   A    
C73   C78   S    
C32   H47   S    
C3    C96   S    
C43   C48   S    
C26   C110  S    
C116  H128  S    
Cr6   O23   S    
Cr5   O41   S    
C51   H36   S    
C58   C75   S    
Cr10  O47   S    
C59   H62   S    
C101  C105  S    
C29   H29   S    
C36   C40   S    
C34   H31   S    
C24   H16   S    
C79   H86   S    
Cr5   O15   S    
C68   C73   S    
C65   C71   S    
Cr6   O16   S    
C85   H97   S    
C89   C97   S    
C57   C74   S    
C20   H67   S    
C9    O37   A    
C8    O5    A    
C95   H116  S    
C22   C62   S    
C11   O39   A    
C87   C96   S    
C58   H57   S    
C118  O40   A    
C107  H10   S    
C114  H126  S    
C32   C50   S    
C115  H131  S    
C37   C54   S    
C26   C43   S    
C12   C14   S    
C84   H96   S    
C33   O15   A    
C71   H69   S    
C111  O32   A    
Cr11  O26   S    
C82   C100  S    
Cr9   O24   S    
C26   H21   S    
Cr9   O46   S    
C2    H14   S    
C46   C50   S    
C112  O33   A    
Cr7   O17   S    
C97   C120  S    
C84   H101  S    
Cr8   O22   S    
C31   H50   S    
C71   C75   S    
C72   H80   S    
C60   H59   S    
C36   H89   S    
C102  C106  S    
C7    O4    A    
C81   C85   S    
C100  C118  S    
C63   O25   A    
C70   H77   S    
C3    O43   A    
C64   O30   A    
C37   H13   S    
Cr10  O11   S    
C50   H53   S    
C92   C114  S    
C90   C98   S    
