data_mof_unit_63108.cif
_audit_creation_date              2012-12-10T16:50:43-0500
_audit_creation_method            fapswitch 2.2
_symmetry_space_group_name_H-M    P1
_symmetry_Int_Tables_number       1
_space_group_crystal_system       triclinic
_cell_length_a                    19.016006
_cell_length_b                    18.669698
_cell_length_c                    18.99768
_cell_angle_alpha                 109.454402
_cell_angle_beta                  110.141187
_cell_angle_gamma                 109.497837
_cell_volume                      5147.81594692

loop_
_atom_site_label
_atom_site_type_symbol
_atom_type_description
_atom_site_fract_x
_atom_site_fract_y
_atom_site_fract_z
_atom_type_partial_charge
C1    C     C_R   0.383320 0.379964 0.501491 0.926230
C2    C     C_R   0.595972 0.337286 0.612719 -0.142914
C3    C     C_2   0.260585 0.251727 0.577343 -0.154428
C4    C     C_R   0.619311 0.500194 0.619479 0.874718
C5    C     C_2   0.182641 0.192982 0.505573 -0.335513
C6    C     C_2   0.322300 0.324038 0.577533 -0.154130
C7    C     C_2   0.324614 0.310667 0.504930 -0.342610
C8    C     C_2   0.177825 0.503448 0.257036 0.034779
C9    C     C_2   0.185026 0.510852 0.191398 -0.389031
C10   C     C_2   0.251853 0.514283 0.327702 -0.193671
C11   C     C_2   0.305050 0.488284 0.311734 -0.359176
C12   C     C_R   0.758925 0.581739 0.755570 0.076003
C13   C     C_2   0.739663 0.748155 0.422819 -0.154295
C14   C     C_2   0.817487 0.807148 0.494617 -0.335053
C15   C     C_2   0.678107 0.675865 0.422766 -0.149059
C16   C     C_R   0.616882 0.620038 0.498696 0.928600
C17   C     C_2   0.675768 0.689290 0.495375 -0.337379
C18   C     C_R   0.994282 0.379956 0.876100 0.927889
C19   C     C_R   0.877588 0.500067 0.877565 0.873000
C20   C     C_R   0.999526 0.620074 0.117636 0.924352
C21   C     C_R   0.116851 0.502780 0.119146 0.936947
C22   C     C_R   0.001697 0.121113 0.618691 0.931270
C23   C     C_R   0.811934 0.500209 0.812014 -0.204760
C24   C     C_R   0.118794 0.121118 0.501802 0.931144
C25   C     C_R   0.998334 0.878977 0.381267 0.932653
C26   C     C_R   0.881230 0.878925 0.498243 0.931877
C27   C     C_2   0.990283 0.251643 0.673149 -0.153131
C28   C     C_R   0.378093 0.497532 0.379804 0.950336
C29   C     C_2   0.009616 0.193067 0.686585 -0.336833
C30   C     C_2   0.000348 0.323917 0.744794 -0.154135
C31   C     C_2   0.984235 0.310615 0.803857 -0.344923
C32   C     C_2   0.010457 0.748906 0.325079 -0.154622
C33   C     C_2   0.990286 0.807462 0.312850 -0.337344
C34   C     C_R   0.741673 0.418821 0.737977 0.073454
C35   C     C_2   0.998433 0.676491 0.251808 -0.143367
C36   C     C_2   0.010700 0.689311 0.190801 -0.338779
C37   C     C_R   0.774544 0.663465 0.760016 -0.146159
C38   C     C_R   0.842687 0.742953 0.834559 -0.145409
C39   C     C_R   0.896440 0.742875 0.905785 -0.145521
C40   C     C_R   0.885111 0.663313 0.900747 -0.145894
C41   C     C_R   0.819090 0.581669 0.823461 0.076300
C42   C     C_1   0.102077 0.492099 0.264444 0.201403
C43   C     C_R   0.673447 0.418902 0.678334 0.073528
C44   C     C_R   0.684751 0.500327 0.685512 -0.205256
C45   C     C_R   0.737341 0.337093 0.722037 -0.143305
C46   C     C_R   0.662587 0.257608 0.654224 -0.142127
C47   C     C_R   0.591045 0.257709 0.601139 -0.142062
H1    H     H_    0.531987 0.195993 0.549992 0.138687
H2    H     H_    0.633105 0.612814 0.362695 0.165928
H3    H     H_    0.735159 0.667336 0.706278 0.148643
H4    H     H_    0.713603 0.754813 0.552459 0.153652
H5    H     H_    0.970772 0.248795 0.610936 0.168541
H6    H     H_    0.038493 0.201768 0.751294 0.158131
H7    H     H_    0.018219 0.386840 0.747440 0.168329
H8    H     H_    0.956724 0.245155 0.795647 0.157578
H9    H     H_    0.031648 0.751633 0.387294 0.169827
H10   H     H_    0.959761 0.798740 0.248281 0.157609
H11   H     H_    0.982227 0.613822 0.249428 0.178214
H12   H     H_    0.162160 0.201552 0.449493 0.159261
H13   H     H_    0.036937 0.754566 0.198413 0.153225
H14   H     H_    0.852965 0.804746 0.837455 0.134763
H15   H     H_    0.947887 0.804606 0.964691 0.134773
H16   H     H_    0.928298 0.667039 0.958286 0.148793
H17   H     H_    0.791346 0.333268 0.760947 0.149458
H18   H     H_    0.659779 0.195810 0.643711 0.138639
H19   H     H_    0.538239 0.333649 0.570060 0.149787
H20   H     H_    0.277562 0.249049 0.636811 0.167802
H21   H     H_    0.367328 0.387062 0.637627 0.167851
H22   H     H_    0.286778 0.245133 0.447862 0.157342
H23   H     H_    0.247001 0.531350 0.194186 0.153657
H24   H     H_    0.260881 0.540790 0.392512 0.173276
H25   H     H_    0.291422 0.453605 0.245774 0.158171
H26   H     H_    0.722684 0.750619 0.363242 0.167124
H27   H     H_    0.838035 0.798793 0.550832 0.157018
N1    N     N_1   0.041564 0.483093 0.270448 -0.221462
O1    O     O_R   0.409870 0.358470 0.449260 -0.632470
O2    O     O_R   0.948030 0.090450 0.538510 -0.615228
O3    O     O_R   0.141850 0.090470 0.551380 -0.615717
O4    O     O_R   0.409230 0.460600 0.550770 -0.614268
O5    O     O_R   0.039050 0.090460 0.448590 -0.625633
O6    O     O_R   0.051970 0.909550 0.461490 -0.615088
O7    O     O_R   0.949170 0.909540 0.358700 -0.626838
O8    O     O_R   0.960950 0.909540 0.551410 -0.626069
O9    O     O_R   0.858150 0.909530 0.448620 -0.615537
O10   O     O_R   0.591360 0.448940 0.540280 -0.622177
O11   O     O_R   0.590720 0.551070 0.641790 -0.627662
O12   O     O_R   0.048480 0.460610 0.906920 -0.612495
O13   O     O_R   0.590770 0.539400 0.449230 -0.612648
O14   O     O_R   0.590130 0.641530 0.550740 -0.631193
O15   O     O_R   0.409280 0.448930 0.358210 -0.627046
O16   O     O_R   0.408640 0.551060 0.459720 -0.616088
O17   O     O_R   0.946350 0.358500 0.906960 -0.631796
O18   O     O_R   0.854760 0.448970 0.905840 -0.623614
O19   O     O_R   0.956890 0.551080 0.905790 -0.627452
O20   O     O_R   0.945260 0.539450 0.086770 -0.609228
O21   O     O_R   0.047380 0.641560 0.086730 -0.633385
O22   O     O_R   0.036850 0.448980 0.087900 -0.606758
O23   O     O_R   0.138970 0.551100 0.087860 -0.620969
O24   O     O_R   0.050830 0.090460 0.641300 -0.626564
Zn1   Zn    Zn3+2 0.500430 0.431810 0.432220 0.951712
Zn2   Zn    Zn3+2 0.499570 0.568190 0.567780 0.950322
Zn3   Zn    Zn3+2 0.928680 0.431850 0.996880 0.965932
Zn4   Zn    Zn3+2 0.065060 0.568210 0.996820 0.952184
Zn5   Zn    Zn3+2 0.068640 0.000010 0.568630 0.953429
Zn6   Zn    Zn3+2 0.931360 0.999990 0.431370 0.954134

loop_
_geom_bond_atom_site_label_1
_geom_bond_atom_site_label_2
_ccdc_geom_bond_type
C26   O8    A    
C37   H3    S    
C22   C29   S    
C27   C29   D    
C35   C36   D    
C3    C6    S    
C17   H4    S    
C45   C46   A    
C30   H7    S    
C42   N1    T    
C37   C38   A    
C40   H16   S    
C35   H11   S    
C14   H27   S    
C8    C42   S    
C30   C31   D    
C4    O11   A    
O23   Zn4   S    
O7    Zn6   S    
C12   C37   A    
C24   O5    A    
C8    C9    D    
C33   H10   S    
O22   Zn3   S    
C19   O18   A    
O20   Zn3   S    
O17   Zn3   S    
C38   H14   S    
C10   H24   S    
C6    H21   S    
O24   Zn5   S    
C20   O21   A    
C16   O14   A    
C13   C14   D    
C27   C30   S    
C25   O6    A    
O16   Zn2   S    
O15   Zn1   S    
O8    Zn5   S    
C5    H12   S    
O3    Zn5   S    
C32   C35   S    
C9    H23   S    
C46   H18   S    
C39   C40   A    
C11   H25   S    
C16   C17   S    
C4    O10   A    
C4    C44   S    
C2    H19   S    
O5    Zn6   S    
C19   C23   S    
C43   C44   A    
C12   C41   A    
C21   O22   A    
C47   H1    S    
C2    C43   A    
C23   C34   A    
O9    Zn6   S    
C34   C45   A    
C14   C26   S    
O13   Zn1   S    
C19   O19   A    
O12   Zn4   S    
C24   O3    A    
C40   C41   A    
C20   O20   A    
C13   H26   S    
O19   Zn4   S    
C13   C15   S    
C25   O7    A    
C1    O4    A    
C27   H5    S    
C15   C17   D    
C39   H15   S    
C46   C47   A    
C26   O9    A    
C22   O24   A    
O14   Zn2   S    
C1    C7    S    
C1    O1    A    
C3    H20   S    
C34   C43   A    
C22   O2    A    
C3    C5    D    
O18   Zn3   S    
C7    H22   S    
C6    C7    D    
C2    C47   A    
O1    Zn1   S    
C45   H17   S    
C18   O12   A    
C23   C41   A    
C18   O17   A    
C32   C33   D    
O2    Zn6   S    
C12   C44   A    
O10   Zn1   S    
C21   O23   A    
C9    C21   S    
C38   C39   A    
C5    C24   S    
C29   H6    S    
C11   C28   S    
C28   O16   A    
C15   H2    S    
C10   C11   D    
C20   C36   S    
C8    C10   S    
O21   Zn4   S    
C16   O13   A    
C36   H13   S    
O4    Zn2   S    
C28   O15   A    
C18   C31   S    
C31   H8    S    
O11   Zn2   S    
C32   H9    S    
C25   C33   S    
O6    Zn5   S    
