data_mof_unit_28475.cif
_audit_creation_date              2012-12-10T17:48:44-0500
_audit_creation_method            fapswitch 2.2
_symmetry_space_group_name_H-M    P1
_symmetry_Int_Tables_number       1
_space_group_crystal_system       triclinic
_cell_length_a                    15.763082
_cell_length_b                    10.737926
_cell_length_c                    9.933352
_cell_angle_alpha                 91.750527
_cell_angle_beta                  90.841266
_cell_angle_gamma                 93.521665
_cell_volume                      1677.15781704

loop_
_atom_site_label
_atom_site_type_symbol
_atom_type_description
_atom_site_fract_x
_atom_site_fract_y
_atom_site_fract_z
_atom_type_partial_charge
C1    C     C_R   0.507960 0.261144 0.497993 0.939733
C2    C     C_3   0.946386 0.385596 0.622133 -0.106288
C3    C     C_3   0.915346 0.473161 0.505324 -0.026139
C4    C     C_3   0.954174 0.610839 0.534900 -0.367672
C5    C     C_3   0.053661 0.611571 0.548177 0.826374
C6    C     C_1   0.823647 0.478573 0.503749 0.026712
C7    C     C_1   0.174438 0.485333 0.498933 -0.084269
C8    C     C_1   0.249725 0.492303 0.497784 -0.139454
C9    C     C_R   0.637772 0.138786 0.671700 0.503963
C10   C     C_R   0.692777 0.072920 0.751356 -0.279469
C11   C     C_R   0.702210 0.946473 0.727177 -0.062620
C12   C     C_R   0.338529 0.498901 0.499209 0.871758
C13   C     C_R   0.651890 0.883514 0.624435 0.000682
C14   C     C_R   0.579968 0.941093 0.571269 0.020003
C15   C     C_R   0.578197 0.072227 0.581934 0.003361
C16   C     C_R   0.522124 0.129311 0.491398 -0.095860
C17   C     C_R   0.473135 0.055852 0.395330 -0.037253
C18   C     C_R   0.451914 0.933424 0.424938 -0.128577
C19   C     C_R   0.510659 0.873208 0.503331 -0.103603
C20   C     C_R   0.383376 0.340799 0.131779 -0.171059
C21   C     C_R   0.323948 0.261184 0.059855 -0.131946
C22   C     C_R   0.324120 0.260214 0.917726 -0.013111
C23   C     C_R   0.502688 0.739777 0.501916 0.885103
C24   C     C_R   0.384634 0.337595 0.853030 -0.106000
C25   C     C_R   0.443114 0.420094 0.924198 0.050954
C26   C     C_R   0.442628 0.421157 0.067959 0.090128
C27   C     C_R   0.554943 0.576869 0.077871 0.487712
C28   C     C_R   0.554734 0.577840 0.933776 0.352595
C29   C     C_R   0.661017 0.494823 0.500510 0.955031
C30   C     C_3   0.048175 0.373846 0.606019 -0.261414
C31   C     C_3   0.045230 0.446163 0.352403 0.269184
C32   C     C_3   0.945286 0.429175 0.361928 -0.237769
C33   C     C_1   0.748997 0.485496 0.502047 -0.076081
C34   C     C_3   0.082099 0.477648 0.501911 -0.036146
H1    H     H_    0.734583 0.123393 0.824675 0.153053
H2    H     H_    0.384035 0.334951 0.238731 0.185991
H3    H     H_    0.383481 0.332630 0.746035 0.224400
H4    H     H_    0.919605 0.494547 0.289248 0.211933
H5    H     H_    0.929990 0.643508 0.633545 0.118526
N1    N     N_R   0.499210 0.498800 0.142780 -0.158781
N2    N     N_R   0.499180 0.498720 0.857170 -0.182265
O1    O     O_R   0.500000 0.316780 0.614690 -0.591844
O2    O     O_R   0.499990 0.316750 0.385360 -0.619686
O3    O     O_R   0.377150 0.500020 0.614720 -0.630078
O4    O     O_R   0.377140 0.499990 0.385380 -0.658897
O5    O     O_R   0.500010 0.683250 0.614640 -0.649041
O6    O     O_R   0.500000 0.683220 0.385310 -0.559827
O7    O     O_R   0.622860 0.500010 0.614620 -0.603574
O8    O     O_R   0.622850 0.499980 0.385280 -0.545123
Zn1   Zn    Zn3+2 0.500010 0.500020 0.653130 0.986766
Zn2   Zn    Zn3+2 0.499990 0.499980 0.346870 1.030938
C35   C     C_2   0.898222 0.257381 0.627237 0.637987
H6    H     H_    0.918524 0.191743 0.700469 0.092438
O9    O     O_2   0.835093 0.227897 0.558190 -0.576614
C36   C     C_2   0.094783 0.388848 0.742740 0.354044
H7    H     H_    0.150112 0.453117 0.757958 0.160266
O10   O     O_2   0.073625 0.322442 0.835842 -0.549246
C37   C     C_2   0.923930 0.447498 0.758324 0.422578
H8    H     H_    0.969604 0.509058 0.814392 0.163289
O11   O     O_2   0.851886 0.436584 0.802455 -0.554048
C38   C     C_2   0.921260 0.707707 0.441081 0.486030
H9    H     H_    0.872976 0.767925 0.476759 0.074111
O12   O     O_2   0.946450 0.718900 0.326255 -0.428001
C39   C     C_2   0.463842 0.091197 0.252482 0.440704
H10   H     H_    0.409998 0.055168 0.191391 0.117884
O13   O     O_2   0.521148 0.150725 0.197157 -0.533359
O14   O     O_3   0.645998 0.267040 0.676503 -0.737155
H11   H     H_    0.690508 0.297124 0.743439 0.370518
C40   C     C_2   0.771318 0.889529 0.802982 0.432911
H12   H     H_    0.821453 0.949331 0.851777 0.093815
O15   O     O_2   0.771695 0.777168 0.817411 -0.529776
C41   C     C_2   0.689765 0.782152 0.545959 0.356543
H13   H     H_    0.731698 0.720512 0.593395 0.092616
O16   O     O_2   0.679830 0.772881 0.423829 -0.521884
C42   C     C_2   0.370347 0.869372 0.372970 0.433858
H14   H     H_    0.358387 0.769264 0.378279 0.091907
O17   O     O_2   0.312831 0.929234 0.330413 -0.529903
O18   O     O_3   0.610184 0.654387 0.156098 -0.659938
H15   H     H_    0.647992 0.705703 0.098236 0.393065
C43   C     C_2   0.077881 0.246325 0.557547 0.409630
H16   H     H_    0.145818 0.235124 0.552242 0.103690
O19   O     O_2   0.030676 0.155635 0.526288 -0.508565
C44   C     C_2   0.266632 0.177926 0.139989 0.448146
H17   H     H_    0.260206 0.197900 0.246970 0.066995
O20   O     O_2   0.230133 0.083205 0.091467 -0.502916
C45   C     C_2   0.260661 0.183574 0.833426 0.455261
H18   H     H_    0.199378 0.153566 0.872865 0.178252
O21   O     O_2   0.275653 0.154754 0.716651 -0.600047
O22   O     O_3   0.611308 0.660875 0.874493 -0.733609
H19   H     H_    0.602605 0.653980 0.776850 0.391453
O23   O     O_3   0.063577 0.549055 0.269853 -0.632300
H20   H     H_    0.126180 0.560876 0.259739 0.364304
C46   C     C_2   0.084755 0.336541 0.280283 0.516899
H21   H     H_    0.136419 0.289985 0.325261 -0.002286
O24   O     O_2   0.063401 0.306344 0.164527 -0.467140
C47   C     C_2   0.900822 0.306648 0.310150 0.555617
H22   H     H_    0.837753 0.308389 0.265016 0.076739
O25   O     O_2   0.931753 0.206054 0.320708 -0.452398
O26   O     O_3   0.079416 0.637018 0.683469 -0.823713
H23   H     H_    0.060375 0.720178 0.711631 0.336052
O27   O     O_3   0.094178 0.703887 0.468386 -0.659448
H24   H     H_    0.081585 0.787333 0.506020 0.353691

loop_
_geom_bond_atom_site_label_1
_geom_bond_atom_site_label_2
_ccdc_geom_bond_type
C36   H7    S    
C18   C42   S    
C27   O18   S    
O2    Zn2   S    
C7    C8    T    
C29   O8    A    
C46   H21   S    
C17   C39   S    
C45   O21   D    
O4    Zn2   S    
C37   O11   D    
C15   C16   A    
C29   C33   S    
C28   N2    A    
C40   O15   D    
C18   C19   A    
C38   O12   D    
C1    O2    A    
C21   C44   S    
C16   C17   A    
O8    Zn2   S    
C47   O25   D    
C28   O22   S    
C32   H4    S    
C9    C10   A    
C30   C43   S    
C3    C6    S    
O7    Zn1   S    
C46   O24   D    
C23   O5    A    
C21   C22   A    
C5    C34   S    
C38   H9    S    
C35   O9    D    
C17   C18   A    
C5    O27   S    
C23   O6    A    
C30   C34   S    
C29   O7    A    
O14   H11   S    
O27   H24   S    
C5    O26   S    
C24   C25   A    
C41   O16   D    
C25   N2    A    
O23   H20   S    
C45   H18   S    
C41   H13   S    
O6    Zn2   S    
C37   H8    S    
C31   C46   S    
C4    C38   S    
C39   O13   D    
C19   C23   S    
C42   H14   S    
C9    O14   S    
C44   H17   S    
C4    H5    S    
C27   N1    A    
C8    C12   S    
C47   H22   S    
C2    C37   S    
C24   H3    S    
C31   C34   S    
C3    C32   S    
C1    C16   S    
C42   O17   D    
C10   H1    S    
C2    C35   S    
O1    Zn1   S    
C43   O19   D    
C32   C47   S    
C31   O23   S    
C36   O10   D    
C7    C34   S    
C22   C24   A    
C3    C4    S    
N2    Zn1   S    
C35   H6    S    
O3    Zn1   S    
C44   O20   D    
O18   H15   S    
C14   C19   A    
C31   C32   S    
C43   H16   S    
C11   C40   S    
C12   O4    A    
C13   C41   S    
N1    Zn2   S    
C30   C36   S    
O5    Zn1   S    
C6    C33   T    
C2    C30   S    
C39   H10   S    
C2    C3    S    
C25   C26   A    
C12   O3    A    
O26   H23   S    
C11   C13   A    
C26   N1    A    
C20   C26   A    
C22   C45   S    
C9    C15   A    
C40   H12   S    
C10   C11   A    
C20   H2    S    
C1    O1    A    
C4    C5    S    
C20   C21   A    
C27   C28   A    
C14   C15   A    
O22   H19   S    
C13   C14   A    
