data_mof_unit_26873.cif
_audit_creation_date              2012-12-10T17:20:25-0500
_audit_creation_method            fapswitch 2.2
_symmetry_space_group_name_H-M    P1
_symmetry_Int_Tables_number       1
_space_group_crystal_system       triclinic
_cell_length_a                    11.672492
_cell_length_b                    10.824774
_cell_length_c                    9.644095
_cell_angle_alpha                 88.876792
_cell_angle_beta                  90.266617
_cell_angle_gamma                 91.107492
_cell_volume                      1218.07867346

loop_
_atom_site_label
_atom_site_type_symbol
_atom_type_description
_atom_site_fract_x
_atom_site_fract_y
_atom_site_fract_z
_atom_type_partial_charge
C1    C     C_R   0.497502 0.262802 0.501136 0.923808
C2    C     C_R   0.182794 0.041814 0.553426 -0.189167
C3    C     C_R   0.186796 0.915094 0.539086 -0.159350
C4    C     C_R   0.291111 0.859051 0.520190 -0.153977
C5    C     C_R   0.394508 0.929326 0.512623 0.021051
C6    C     C_R   0.391366 0.059599 0.520815 0.062737
C7    C     C_R   0.495988 0.128382 0.503231 -0.180700
C8    C     C_R   0.601678 0.068687 0.485605 -0.128350
C9    C     C_R   0.604404 0.939005 0.487858 -0.057346
C10   C     C_R   0.500628 0.870769 0.498207 -0.140288
C11   C     C_R   0.692278 0.602153 0.119611 0.297627
C12   C     C_R   0.284367 0.502950 0.499595 0.848961
C13   C     C_R   0.797956 0.597129 0.046283 0.198330
C14   C     C_R   0.807367 0.511547 0.938273 0.342075
C15   C     C_R   0.706345 0.456688 0.884550 -0.115481
C16   C     C_R   0.600423 0.499999 0.930351 0.020428
C17   C     C_R   0.597001 0.532967 0.070697 0.143591
C18   C     C_R   0.402031 0.480573 0.073784 -0.031138
C19   C     C_R   0.400969 0.489446 0.925859 0.005035
C20   C     C_R   0.503136 0.736861 0.499032 0.827360
C21   C     C_R   0.715700 0.500442 0.500216 0.869933
C22   C     C_1   0.162555 0.504895 0.498999 -0.175365
C23   C     C_1   0.059950 0.505070 0.499290 0.016972
C24   C     C_1   0.940077 0.503911 0.499983 0.069816
C25   C     C_1   0.837478 0.502327 0.500402 -0.065869
C26   C     C_R   0.283497 0.115384 0.546234 0.404721
Cu1   Cu    Cu3+1 0.499990 0.499990 0.640660 1.027491
Cu2   Cu    Cu3+1 0.500010 0.500010 0.359340 1.035786
H1    H     H_    0.320010 0.480099 0.872144 0.146312
H2    H     H_    0.100417 0.083049 0.570918 0.156386
H3    H     H_    0.108671 0.859620 0.544526 0.170798
H4    H     H_    0.289528 0.759776 0.511386 0.120494
H5    H     H_    0.322344 0.462106 0.127471 0.144695
N1    N     N_R   0.501070 0.501210 0.147910 -0.160289
N2    N     N_R   0.501110 0.501290 0.852040 -0.163848
O1    O     O_R   0.499990 0.319640 0.618810 -0.538329
O2    O     O_R   0.500000 0.319660 0.381240 -0.546299
O3    O     O_R   0.337190 0.500000 0.618790 -0.573763
O4    O     O_R   0.337200 0.500030 0.381210 -0.590001
O5    O     O_R   0.500000 0.680340 0.618760 -0.563811
O6    O     O_R   0.500010 0.680360 0.381190 -0.529739
O7    O     O_R   0.662800 0.499970 0.618790 -0.584135
O8    O     O_R   0.662810 0.500000 0.381210 -0.552518
C27   C     C_2   0.710697 0.141853 0.470384 0.877960
O9    O     O_2   0.719937 0.221684 0.379530 -0.583157
O10   O     O_R   0.803846 0.116166 0.557220 -0.719982
H6    H     H_    0.873859 0.169429 0.534169 0.347929
O11   O     O_3   0.911999 0.481602 0.882677 -0.671581
H7    H     H_    0.974663 0.521200 0.936396 0.372201
C28   C     C_2   0.711414 0.332726 0.821534 0.962582
O12   O     O_2   0.795864 0.302921 0.756664 -0.550382
O13   O     O_R   0.621627 0.247265 0.843334 -0.739448
H8    H     H_    0.635774 0.165143 0.798225 0.339494
O14   O     O_3   0.277048 0.240403 0.567646 -0.751060
H9    H     H_    0.197510 0.261146 0.592831 0.320181
C29   C     C_2   0.715914 0.874730 0.478128 0.884307
O15   O     O_2   0.738587 0.790918 0.559933 -0.611014
O16   O     O_R   0.795692 0.911825 0.377037 -0.736684
H10   H     H_    0.869170 0.863529 0.383487 0.323077
O17   O     O_3   0.676596 0.685737 0.222775 -0.670937
H11   H     H_    0.750221 0.696990 0.272458 0.327489
O18   O     O_3   0.892155 0.669995 0.079379 -0.730278
H12   H     H_    0.865223 0.750474 0.112083 0.354661

loop_
_geom_bond_atom_site_label_1
_geom_bond_atom_site_label_2
_ccdc_geom_bond_type
C28   O13   S    
C23   C24   S    
C24   C25   T    
O18   H12   S    
C21   O8    A    
Cu1   O1    S    
C11   C13   A    
C9    C10   A    
Cu2   O8    S    
C14   C15   A    
C1    O2    A    
Cu1   O5    S    
C2    H2    S    
Cu1   N2    S    
C12   O4    A    
C28   O12   D    
C6    C26   A    
Cu2   N1    S    
C5    C10   A    
C2    C26   A    
C9    C29   S    
C19   N2    A    
C13   C14   A    
C27   O9    D    
C3    H3    S    
C18   N1    A    
Cu1   O7    S    
C8    C27   S    
C4    H4    S    
Cu2   O2    S    
C4    C5    A    
C26   O14   S    
O11   H7    S    
C27   O10   S    
C20   O6    A    
C6    C7    A    
C2    C3    A    
C16   N2    A    
C12   O3    A    
C5    C6    A    
C20   O5    A    
C18   H5    S    
C16   C17   A    
C17   N1    A    
Cu1   O3    S    
C11   O17   S    
C19   H1    S    
C12   C22   S    
Cu2   O6    S    
C7    C8    A    
O13   H8    S    
C3    C4    A    
C18   C19   A    
O10   H6    S    
C15   C28   S    
C10   C20   S    
Cu1   Cu2   S    
C29   O15   D    
C21   C25   S    
O14   H9    S    
O17   H11   S    
C14   O11   S    
C21   O7    A    
Cu2   O4    S    
C1    C7    S    
O16   H10   S    
C22   C23   T    
C11   C17   A    
C13   O18   S    
C15   C16   A    
C1    O1    A    
C29   O16   S    
C8    C9    A    
