data_mof_unit_48794.cif
_audit_creation_date              2012-12-10T20:05:25-0500
_audit_creation_method            fapswitch 2.2
_symmetry_space_group_name_H-M    P1
_symmetry_Int_Tables_number       1
_space_group_crystal_system       triclinic
_cell_length_a                    15.950167
_cell_length_b                    15.946273
_cell_length_c                    34.603095
_cell_angle_alpha                 90.000148
_cell_angle_beta                  89.999423
_cell_angle_gamma                 90.058836
_cell_volume                      8801.14438044

loop_
_atom_site_label
_atom_site_type_symbol
_atom_type_description
_atom_site_fract_x
_atom_site_fract_y
_atom_site_fract_z
_atom_type_partial_charge
C1    C     C_R   0.500000 0.000001 0.355890 0.498059
C2    C     C_R   0.659981 0.839913 0.750037 0.502514
C3    C     C_R   0.851547 0.526239 0.020212 -0.013286
C4    C     C_R   0.533711 0.149421 0.980986 -0.020257
C5    C     C_R   0.491459 0.849381 0.019642 -0.015426
C6    C     C_R   0.853540 0.546913 0.980744 -0.026065
C7    C     C_R   0.148452 0.473760 0.020211 -0.013286
C8    C     C_R   0.852977 0.559893 0.400050 0.067705
C9    C     C_R   0.845603 0.626418 0.373488 -0.023794
C10   C     C_R   0.768163 0.644372 0.356480 -0.065442
C11   C     C_R   0.697822 0.595903 0.365514 -0.098752
C12   C     C_R   0.704708 0.529444 0.391650 -0.126333
C13   C     C_R   0.839920 0.340038 0.249960 0.497908
C14   C     C_R   0.781872 0.511533 0.408938 -0.093766
C15   C     C_R   0.113340 0.392691 0.604226 0.065163
C16   C     C_R   0.198181 0.416286 0.605001 -0.074986
C17   C     C_R   0.255892 0.369402 0.626398 -0.105260
C18   C     C_R   0.229221 0.299153 0.647229 -0.083242
C19   C     C_R   0.144546 0.276400 0.647247 -0.092736
C20   C     C_R   0.086499 0.323336 0.626088 -0.063974
C21   C     C_R   0.396191 0.883275 0.396712 0.066090
C22   C     C_R   0.329414 0.905501 0.372222 -0.053243
C23   C     C_R   0.286585 0.843676 0.351432 -0.083699
C24   C     C_R   0.160069 0.659972 0.750037 0.500845
C25   C     C_R   0.310802 0.759689 0.354475 -0.083020
C26   C     C_R   0.378180 0.737400 0.378165 -0.112637
C27   C     C_R   0.420983 0.798936 0.399176 -0.081871
C28   C     C_R   0.638128 0.067903 0.606654 0.041817
C29   C     C_R   0.639516 0.147522 0.624147 -0.030991
C30   C     C_R   0.705897 0.170276 0.648366 -0.078492
C31   C     C_R   0.769968 0.113041 0.656215 -0.108142
C32   C     C_R   0.767489 0.032781 0.640018 -0.129072
C33   C     C_R   0.701470 0.010027 0.615574 -0.109325
C34   C     C_R   0.147005 0.440076 0.400047 0.067706
C35   C     C_R   0.660077 0.840017 0.250048 0.497930
C36   C     C_R   0.154365 0.373549 0.373485 -0.023807
C37   C     C_R   0.231799 0.355580 0.356475 -0.065435
C38   C     C_R   0.302150 0.404038 0.365506 -0.098739
C39   C     C_R   0.295278 0.470500 0.391641 -0.126333
C40   C     C_R   0.218119 0.488424 0.408932 -0.093761
C41   C     C_R   0.886682 0.607323 0.604228 0.065162
C42   C     C_R   0.801837 0.583744 0.605012 -0.074973
C43   C     C_R   0.744145 0.630646 0.626411 -0.105243
C44   C     C_R   0.770836 0.700897 0.647234 -0.083251
C45   C     C_R   0.855515 0.723634 0.647244 -0.092762
C46   C     C_R   0.340019 0.160086 0.750037 0.502518
C47   C     C_R   0.913545 0.676678 0.626083 -0.063986
C48   C     C_R   0.603777 0.116761 0.396712 0.066097
C49   C     C_R   0.670547 0.094565 0.372212 -0.053193
C50   C     C_R   0.713348 0.156413 0.351423 -0.083643
C51   C     C_R   0.689111 0.240392 0.354479 -0.083018
C52   C     C_R   0.621740 0.262651 0.378180 -0.112661
C53   C     C_R   0.578965 0.201093 0.399189 -0.081885
C54   C     C_R   0.361888 0.932085 0.606652 0.041814
C55   C     C_R   0.360497 0.852466 0.624145 -0.030977
C56   C     C_R   0.294111 0.829714 0.648364 -0.078495
C57   C     C_R   0.160079 0.659962 0.249960 0.497902
C58   C     C_R   0.230041 0.886951 0.656212 -0.108157
C59   C     C_R   0.232525 0.967211 0.640015 -0.129082
C60   C     C_R   0.298548 0.989963 0.615572 -0.109342
C61   C     C_R   0.551925 0.146558 0.894823 0.043745
C62   C     C_R   0.636078 0.157197 0.883882 -0.050386
C63   C     C_R   0.659475 0.224871 0.860533 -0.089576
C64   C     C_R   0.598861 0.281298 0.847387 -0.103145
C65   C     C_R   0.514724 0.269918 0.857407 -0.120346
C66   C     C_R   0.491153 0.202355 0.880764 -0.098122
C67   C     C_R   0.473329 0.848484 0.105661 0.036351
C68   C     C_R   0.839931 0.340028 0.750037 0.500841
C69   C     C_R   0.538115 0.810685 0.127040 -0.066172
C70   C     C_R   0.519442 0.751872 0.155740 -0.113766
C71   C     C_R   0.436066 0.732563 0.164271 -0.116460
C72   C     C_R   0.371298 0.771203 0.143762 -0.113973
C73   C     C_R   0.389712 0.827902 0.114089 -0.084513
C74   C     C_R   0.855455 0.554272 0.894119 0.038001
C75   C     C_R   0.848475 0.637144 0.880641 -0.037954
C76   C     C_R   0.783481 0.659272 0.855518 -0.087074
C77   C     C_R   0.725901 0.598712 0.843283 -0.113129
C78   C     C_R   0.733714 0.515752 0.855834 -0.124670
C79   C     C_R   0.340101 0.839880 0.750078 0.512867
C80   C     C_R   0.798836 0.493263 0.880815 -0.107925
C81   C     C_R   0.135313 0.422754 0.102996 0.047331
C82   C     C_R   0.186778 0.464096 0.129991 -0.081550
C83   C     C_R   0.237943 0.417984 0.154966 -0.120933
C84   C     C_R   0.237177 0.330400 0.153568 -0.092595
C85   C     C_R   0.185112 0.288848 0.127347 -0.106296
C86   C     C_R   0.134820 0.334800 0.101910 -0.090523
C87   C     C_R   0.448076 0.853441 0.894823 0.043744
C88   C     C_R   0.363925 0.842802 0.883881 -0.050388
C89   C     C_R   0.340530 0.775128 0.860532 -0.089578
C90   C     C_R   0.659912 0.160105 0.249937 0.505950
C91   C     C_R   0.401145 0.718699 0.847387 -0.103146
C92   C     C_R   0.485281 0.730079 0.857409 -0.120345
C93   C     C_R   0.508849 0.797642 0.880766 -0.098120
C94   C     C_R   0.526670 0.151516 0.105661 0.036349
C95   C     C_R   0.461882 0.189315 0.127040 -0.066172
C96   C     C_R   0.480553 0.248129 0.155739 -0.113767
C97   C     C_R   0.563928 0.267437 0.164272 -0.116460
C98   C     C_R   0.628698 0.228797 0.143763 -0.113973
C99   C     C_R   0.610287 0.172099 0.114091 -0.084514
C100  C     C_R   0.144545 0.445728 0.894118 0.038001
C101  C     C_R   0.839915 0.659962 0.750050 0.509537
C102  C     C_R   0.151525 0.362855 0.880640 -0.037954
C103  C     C_R   0.216520 0.340727 0.855517 -0.087073
C104  C     C_R   0.274100 0.401286 0.843281 -0.113128
C105  C     C_R   0.266287 0.484246 0.855832 -0.124669
C106  C     C_R   0.201164 0.506736 0.880813 -0.107925
C107  C     C_R   0.864686 0.577244 0.102998 0.047332
C108  C     C_R   0.813221 0.535902 0.129993 -0.081549
C109  C     C_R   0.762053 0.582013 0.154967 -0.120933
C110  C     C_R   0.762818 0.669597 0.153569 -0.092598
C111  C     C_R   0.814883 0.711150 0.127348 -0.106297
C112  C     C_R   0.500003 1.000000 0.644435 0.524298
C113  C     C_R   0.159858 0.339811 0.250125 0.502084
C114  C     C_R   0.865176 0.665198 0.101912 -0.090522
C115  C     C_R   0.138597 0.311978 0.457797 0.049041
C116  C     C_R   0.087995 0.251275 0.439954 -0.094453
C117  C     C_R   0.124661 0.184555 0.419941 -0.125214
C118  C     C_R   0.211923 0.177393 0.418140 -0.111700
C119  C     C_R   0.262711 0.236446 0.436689 -0.105565
C120  C     C_R   0.226295 0.303756 0.456390 -0.079911
C121  C     C_R   0.889025 0.707681 0.536808 0.048766
C122  C     C_R   0.805570 0.731644 0.543696 -0.068768
C123  C     C_R   0.787173 0.813098 0.555869 -0.101207
C124  C     C_R   0.659899 0.160119 0.750078 0.512864
C125  C     C_R   0.851791 0.871294 0.561007 -0.106080
C126  C     C_R   0.934770 0.848224 0.553837 -0.117023
C127  C     C_R   0.953374 0.766764 0.541623 -0.097637
C128  C     C_R   0.711461 0.103423 0.461378 0.039785
C129  C     C_R   0.766504 0.037826 0.452191 -0.107839
C130  C     C_R   0.844738 0.055128 0.435830 -0.120233
C131  C     C_R   0.868806 0.137981 0.428844 -0.107390
C132  C     C_R   0.815407 0.203903 0.438853 -0.102793
C133  C     C_R   0.737105 0.186880 0.455235 -0.065755
C134  C     C_R   0.316903 0.847247 0.538494 0.043020
C135  C     C_R   0.340088 0.839895 0.249937 0.505961
C136  C     C_R   0.343461 0.763955 0.543493 -0.117365
C137  C     C_R   0.288277 0.703869 0.558415 -0.124346
C138  C     C_R   0.206511 0.726570 0.568475 -0.104891
C139  C     C_R   0.179574 0.809148 0.563193 -0.104336
C140  C     C_R   0.233744 0.868902 0.547416 -0.063613
C141  C     C_R   0.861375 0.687995 0.457799 0.049040
C142  C     C_R   0.911965 0.748701 0.439951 -0.094449
C143  C     C_R   0.875286 0.815414 0.419938 -0.125204
C144  C     C_R   0.788022 0.822565 0.418143 -0.111691
C145  C     C_R   0.737247 0.763510 0.436698 -0.105558
C146  C     C_R   0.160085 0.340037 0.750050 0.509532
C147  C     C_R   0.773676 0.696208 0.456399 -0.079927
C148  C     C_R   0.110996 0.292315 0.536810 0.048765
C149  C     C_R   0.194461 0.268375 0.543691 -0.068777
C150  C     C_R   0.212886 0.186922 0.555856 -0.101219
C151  C     C_R   0.148288 0.128704 0.560994 -0.106077
C152  C     C_R   0.065299 0.151753 0.553834 -0.117015
C153  C     C_R   0.046666 0.233212 0.541629 -0.097633
C154  C     C_R   0.288535 0.896606 0.461392 0.039776
C155  C     C_R   0.233486 0.962218 0.452236 -0.107857
C156  C     C_R   0.155222 0.944939 0.435901 -0.120240
C157  C     C_R   0.840142 0.660189 0.250125 0.502087
C158  C     C_R   0.131133 0.862097 0.428907 -0.107396
C159  C     C_R   0.184542 0.796160 0.438881 -0.102801
C160  C     C_R   0.262872 0.813158 0.455240 -0.065753
C161  C     C_R   0.683151 0.152706 0.538494 0.043033
C162  C     C_R   0.656630 0.236008 0.543503 -0.117359
C163  C     C_R   0.711846 0.296063 0.558426 -0.124323
C164  C     C_R   0.793604 0.273321 0.568479 -0.104873
C165  C     C_R   0.820503 0.190734 0.563187 -0.104330
C166  C     C_R   0.766302 0.131010 0.547408 -0.063620
C167  C     C_R   0.409859 0.781411 0.969116 0.042448
C168  C     C_1   0.276837 0.776485 0.249867 -0.046392
C169  C     C_R   0.322763 0.794068 0.970617 -0.098282
C170  C     C_R   0.267739 0.727491 0.963720 -0.109895
C171  C     C_R   0.299218 0.647755 0.955646 -0.090613
C172  C     C_R   0.385741 0.634453 0.954217 -0.105222
C173  C     C_R   0.440904 0.700921 0.961191 -0.086287
C174  C     C_R   0.453921 0.219009 0.032446 0.034669
C175  C     C_R   0.367149 0.205430 0.034449 -0.089495
C176  C     C_R   0.316048 0.263519 0.052958 -0.111748
C177  C     C_R   0.352031 0.333073 0.070945 -0.112476
C178  C     C_R   0.438013 0.347655 0.068116 -0.125350
C179  C     C_1   0.723172 0.223509 0.750146 -0.046702
C180  C     C_R   0.488358 0.292040 0.047515 -0.096588
C181  C     C_R   0.199238 0.380942 0.969208 0.036745
C182  C     C_R   0.169204 0.299417 0.976057 -0.102461
C183  C     C_R   0.215861 0.229788 0.964440 -0.125473
C184  C     C_R   0.292606 0.240934 0.945749 -0.101597
C185  C     C_R   0.322856 0.321802 0.938713 -0.104820
C186  C     C_R   0.277160 0.391629 0.950942 -0.089897
C187  C     C_R   0.781579 0.474151 0.035659 0.037512
C188  C     C_R   0.800203 0.399222 0.055745 -0.090045
C189  C     C_R   0.739339 0.359827 0.078073 -0.119567
C190  C     C_1   0.223026 0.276315 0.250306 -0.050376
C191  C     C_R   0.658675 0.392617 0.079274 -0.120547
C192  C     C_R   0.636532 0.458027 0.054606 -0.121927
C193  C     C_R   0.697762 0.499152 0.032992 -0.101648
C194  C     C_R   0.590142 0.218588 0.969116 0.042448
C195  C     C_R   0.677238 0.205934 0.970618 -0.098284
C196  C     C_R   0.732262 0.272512 0.963721 -0.109895
C197  C     C_R   0.700781 0.352247 0.955647 -0.090614
C198  C     C_R   0.614258 0.365547 0.954217 -0.105225
C199  C     C_R   0.559095 0.299078 0.961190 -0.086286
C200  C     C_R   0.546079 0.780989 0.032445 0.034669
C201  C     C_1   0.776523 0.723224 0.750129 -0.046218
C202  C     C_R   0.632851 0.794569 0.034450 -0.089493
C203  C     C_R   0.683951 0.736481 0.052960 -0.111748
C204  C     C_R   0.647966 0.666927 0.070946 -0.112477
C205  C     C_R   0.561984 0.652345 0.068116 -0.125349
C206  C     C_R   0.511641 0.707959 0.047514 -0.096589
C207  C     C_R   0.800763 0.619058 0.969209 0.036745
C208  C     C_R   0.830799 0.700583 0.976059 -0.102460
C209  C     C_R   0.784143 0.770214 0.964441 -0.125475
C210  C     C_R   0.707398 0.759068 0.945751 -0.101597
C211  C     C_R   0.677147 0.678201 0.938715 -0.104818
C212  C     C_1   0.723163 0.223515 0.249867 -0.046405
C213  C     C_R   0.722841 0.608372 0.950945 -0.089896
C214  C     C_R   0.218420 0.525849 0.035658 0.037512
C215  C     C_R   0.199795 0.600777 0.055744 -0.090044
C216  C     C_R   0.260659 0.640173 0.078072 -0.119566
C217  C     C_R   0.341322 0.607383 0.079273 -0.120549
C218  C     C_R   0.363466 0.541973 0.054605 -0.121927
C219  C     C_R   0.302237 0.500847 0.032990 -0.101649
C220  C     C_R   0.999999 0.499999 0.355972 0.490567
C221  C     C_1   0.276828 0.776491 0.750146 -0.046702
C222  C     C_1   0.776973 0.723685 0.250306 -0.050374
C223  C     C_1   0.223476 0.276776 0.750129 -0.046223
C224  C     C_1   0.276757 0.223500 0.750119 -0.050579
C225  C     C_1   0.723626 0.776904 0.250259 -0.051302
C226  C     C_1   0.223502 0.723224 0.750115 -0.046994
C227  C     C_1   0.776479 0.276792 0.249884 -0.047249
C228  C     C_1   0.723242 0.776500 0.750120 -0.050579
C229  C     C_1   0.276375 0.223097 0.250259 -0.051304
C230  C     C_1   0.776498 0.276776 0.750115 -0.046993
C231  C     C_R   0.000001 0.499999 0.644196 0.501537
C232  C     C_1   0.223521 0.723208 0.249884 -0.047249
C233  C     C_R   0.934431 0.539816 0.419106 -0.046328
C234  C     C_R   0.052077 0.443365 0.581776 -0.048832
C235  C     C_R   0.443247 0.948479 0.418610 -0.046924
C236  C     C_R   0.565196 0.040712 0.582753 -0.046326
C237  C     C_R   0.065556 0.460167 0.419105 -0.046329
C238  C     C_R   0.947928 0.556632 0.581776 -0.048822
C239  C     C_R   0.556747 0.051533 0.418609 -0.046932
C240  C     C_R   0.434823 0.959275 0.582753 -0.046318
C241  C     C_R   0.526600 0.072467 0.918159 -0.048046
C242  C     C_R   0.000000 0.500000 0.855733 0.525023
C243  C     C_R   0.491491 0.924115 0.081976 -0.041959
C244  C     C_R   0.928756 0.529174 0.917925 -0.045552
C245  C     C_R   0.069699 0.469188 0.081333 -0.043821
C246  C     C_R   0.473399 0.927532 0.918159 -0.048047
C247  C     C_R   0.508510 0.075884 0.081976 -0.041959
C248  C     C_R   0.071245 0.470826 0.917924 -0.045553
C249  C     C_R   0.930300 0.530811 0.081334 -0.043822
C250  C     C_R   0.999996 0.499995 0.398519 -0.009536
C251  C     C_R   0.000002 0.499998 0.601775 -0.007103
C252  C     C_R   0.499999 0.000003 0.398448 -0.005239
C253  C     C_R   1.000000 0.500000 0.144133 0.511573
C254  C     C_R   0.500007 0.999997 0.602299 0.000811
C255  C     C_R   0.499999 0.000000 0.898256 0.001387
C256  C     C_R   0.500001 1.000000 0.101870 0.004436
C257  C     C_R   0.000000 0.500000 0.898139 0.002192
C258  C     C_R   0.999999 0.500000 0.101607 0.000120
C259  C     C_R   0.056230 0.447627 0.459329 -0.019968
C260  C     C_R   0.951539 0.560822 0.540901 -0.019625
C261  C     C_R   0.563124 0.044807 0.459439 -0.019049
C262  C     C_R   0.436252 0.954703 0.541725 -0.016166
C263  C     C_R   0.943756 0.552354 0.459330 -0.019967
C264  C     C_R   0.500000 1.000000 0.855796 0.521537
C265  C     C_R   0.048458 0.439168 0.540901 -0.019627
C266  C     C_R   0.436880 0.955198 0.459441 -0.019048
C267  C     C_R   0.563771 0.045283 0.541724 -0.016163
C268  C     C_R   0.477822 0.925377 0.959138 -0.018430
C269  C     C_R   0.506641 0.076103 0.040929 -0.013794
C270  C     C_R   0.073205 0.473283 0.958948 -0.013703
C271  C     C_R   0.927489 0.522555 0.040533 -0.022442
C272  C     C_R   0.522179 0.074622 0.959138 -0.018431
C273  C     C_R   0.493361 0.923897 0.040929 -0.013794
C274  C     C_R   0.926795 0.526717 0.958949 -0.013702
C275  C     C_R   0.500000 0.000000 0.144287 0.526718
C276  C     C_R   0.072510 0.477445 0.040532 -0.022442
C277  C     C_R   0.999994 0.499992 0.479825 0.002643
C278  C     C_R   0.999996 0.499993 0.520629 0.003651
C279  C     C_R   0.500005 0.999999 0.480068 0.001545
C280  C     C_R   0.500009 0.999995 0.521209 0.000428
C281  C     C_R   0.500001 1.000000 0.979355 -0.003772
C282  C     C_R   0.500001 1.000000 0.020473 -0.006153
C283  C     C_R   0.000000 0.500000 0.979114 0.000222
C284  C     C_R   1.000000 0.500000 0.020039 -0.008418
C285  C     C_R   0.098953 0.382658 0.479198 -0.023696
C286  C     C_R   0.339923 0.159983 0.250048 0.497931
C287  C     C_R   0.909323 0.624588 0.519540 -0.026199
C288  C     C_R   0.629659 0.083334 0.480138 -0.024407
C289  C     C_R   0.374480 0.909363 0.520459 -0.021463
C290  C     C_R   0.901032 0.617323 0.479200 -0.023696
C291  C     C_R   0.090673 0.375400 0.519540 -0.026196
C292  C     C_R   0.370351 0.916667 0.480142 -0.024406
C293  C     C_R   0.625545 0.090621 0.520457 -0.021468
C294  C     C_R   0.466290 0.850579 0.980986 -0.020257
C295  C     C_R   0.508543 0.150619 0.019643 -0.015425
C296  C     C_R   0.146460 0.453087 0.980743 -0.026065
H1    H     H_    0.899756 0.664202 0.366146 0.091906
H2    H     H_    0.021029 0.305228 0.626222 0.085720
H3    H     H_    0.211705 0.932250 0.542743 0.102841
H4    H     H_    0.979527 0.743347 0.441220 0.098950
H5    H     H_    0.914471 0.861121 0.405528 0.090287
H6    H     H_    0.759738 0.873775 0.402306 0.101996
H7    H     H_    0.669697 0.769270 0.435377 0.102415
H8    H     H_    0.733840 0.649985 0.470144 0.092175
H9    H     H_    0.245088 0.312625 0.539339 0.090868
H10   H     H_    0.277323 0.168935 0.560918 0.098233
H11   H     H_    0.162352 0.065506 0.570165 0.097260
H12   H     H_    0.015697 0.106003 0.557201 0.095631
H13   H     H_    0.310283 0.970407 0.369634 0.083438
H14   H     H_    0.982621 0.250057 0.534912 0.105637
H15   H     H_    0.251229 0.026480 0.458088 0.115778
H16   H     H_    0.113103 0.995657 0.428711 0.104045
H17   H     H_    0.071088 0.849168 0.415735 0.094181
H18   H     H_    0.165496 0.731954 0.433715 0.101183
H19   H     H_    0.303879 0.761601 0.462698 0.106014
H20   H     H_    0.593437 0.254219 0.535751 0.095165
H21   H     H_    0.691137 0.360100 0.562383 0.099323
H22   H     H_    0.836017 0.319569 0.580460 0.109136
H23   H     H_    0.883041 0.172687 0.571668 0.094125
H24   H     H_    0.234632 0.860861 0.332953 0.095480
H25   H     H_    0.788312 0.067655 0.542727 0.102831
H26   H     H_    0.297649 0.855255 0.977701 0.097935
H27   H     H_    0.200701 0.737433 0.965157 0.102531
H28   H     H_    0.256402 0.596171 0.951187 0.107319
H29   H     H_    0.410090 0.572373 0.948470 0.093186
H30   H     H_    0.507430 0.689309 0.961635 0.107424
H31   H     H_    0.339693 0.148809 0.022622 0.105669
H32   H     H_    0.249194 0.253107 0.054153 0.114600
H33   H     H_    0.313387 0.376980 0.086355 0.150457
H34   H     H_    0.465574 0.400467 0.082901 0.096920
H35   H     H_    0.277498 0.711900 0.338403 0.122899
H36   H     H_    0.554797 0.301237 0.045194 0.134041
H37   H     H_    0.109411 0.289954 0.990265 0.099816
H38   H     H_    0.192492 0.167166 0.969901 0.098360
H39   H     H_    0.328374 0.186729 0.936864 0.104698
H40   H     H_    0.380708 0.330681 0.923006 0.098580
H41   H     H_    0.301355 0.453720 0.945244 0.096486
H42   H     H_    0.863246 0.374086 0.056229 0.108311
H43   H     H_    0.755736 0.305675 0.095238 0.102500
H44   H     H_    0.612295 0.365392 0.098152 0.122083
H45   H     H_    0.572324 0.478488 0.052998 0.093452
H46   H     H_    0.397051 0.672401 0.380354 0.094742
H47   H     H_    0.679690 0.553458 0.016675 0.128050
H48   H     H_    0.702353 0.144747 0.977703 0.097935
H49   H     H_    0.799299 0.262571 0.965159 0.102532
H50   H     H_    0.743596 0.403832 0.951189 0.107319
H51   H     H_    0.589908 0.427626 0.948469 0.093187
H52   H     H_    0.492569 0.310688 0.961634 0.107425
H53   H     H_    0.660308 0.851190 0.022623 0.105670
H54   H     H_    0.750805 0.746893 0.054155 0.114600
H55   H     H_    0.686609 0.623020 0.086356 0.150456
H56   H     H_    0.534422 0.599533 0.082901 0.096920
H57   H     H_    0.473072 0.781031 0.417475 0.091125
H58   H     H_    0.445202 0.698763 0.045193 0.134041
H59   H     H_    0.890591 0.710045 0.990266 0.099816
H60   H     H_    0.807514 0.832835 0.969902 0.098360
H61   H     H_    0.671632 0.813273 0.936865 0.104698
H62   H     H_    0.619295 0.669322 0.923009 0.098579
H63   H     H_    0.698645 0.546283 0.945246 0.096485
H64   H     H_    0.136752 0.625914 0.056228 0.108312
H65   H     H_    0.244261 0.694325 0.095236 0.102499
H66   H     H_    0.387702 0.634607 0.098151 0.122082
H67   H     H_    0.427674 0.521511 0.052996 0.093453
H68   H     H_    0.589387 0.191787 0.618818 0.111871
H69   H     H_    0.320310 0.446541 0.016674 0.128050
H70   H     H_    0.707445 0.232165 0.661177 0.116243
H71   H     H_    0.821137 0.130675 0.675091 0.105410
H72   H     H_    0.816481 0.988047 0.646537 0.103589
H73   H     H_    0.762614 0.696153 0.336446 0.112202
H74   H     H_    0.699037 0.947241 0.603862 0.097848
H75   H     H_    0.100204 0.335773 0.366145 0.091893
H76   H     H_    0.237337 0.303796 0.336441 0.112191
H77   H     H_    0.362027 0.389963 0.352312 0.110071
H78   H     H_    0.349829 0.507978 0.398613 0.093176
H79   H     H_    0.213672 0.539935 0.429240 0.096506
H80   H     H_    0.780543 0.529591 0.588847 0.090666
H81   H     H_    0.678662 0.612832 0.626665 0.099448
H82   H     H_    0.725922 0.737544 0.663461 0.118481
H83   H     H_    0.876127 0.777694 0.663608 0.093955
H84   H     H_    0.637940 0.609967 0.352323 0.110061
H85   H     H_    0.979018 0.694775 0.626210 0.085734
H86   H     H_    0.689693 0.029665 0.369614 0.083430
H87   H     H_    0.765297 0.139252 0.332937 0.095476
H88   H     H_    0.722393 0.288198 0.338408 0.122910
H89   H     H_    0.602852 0.327643 0.380378 0.094726
H90   H     H_    0.526881 0.218974 0.417497 0.091126
H91   H     H_    0.410624 0.808199 0.618818 0.111882
H92   H     H_    0.292560 0.767826 0.661174 0.116247
H93   H     H_    0.178869 0.869319 0.675086 0.105411
H94   H     H_    0.183535 0.011948 0.646533 0.103600
H95   H     H_    0.650165 0.491957 0.398625 0.093173
H96   H     H_    0.300987 0.052751 0.603862 0.097861
H97   H     H_    0.683339 0.113255 0.893576 0.104327
H98   H     H_    0.724486 0.233296 0.852439 0.110965
H99   H     H_    0.616943 0.333261 0.829084 0.099116
H100  H     H_    0.467667 0.313021 0.846816 0.098707
H101  H     H_    0.425695 0.192873 0.887439 0.097475
H102  H     H_    0.602768 0.828579 0.122137 0.120110
H103  H     H_    0.569445 0.722917 0.172075 0.098990
H104  H     H_    0.421568 0.688386 0.187062 0.108717
H105  H     H_    0.306785 0.757643 0.151141 0.108906
H106  H     H_    0.786331 0.460024 0.429247 0.096501
H107  H     H_    0.338931 0.859182 0.099151 0.107060
H108  H     H_    0.893398 0.684261 0.889594 0.113744
H109  H     H_    0.777848 0.723297 0.845478 0.114584
H110  H     H_    0.675717 0.615927 0.823796 0.101402
H111  H     H_    0.689804 0.468728 0.845906 0.102923
H112  H     H_    0.805902 0.428370 0.889371 0.104073
H113  H     H_    0.184998 0.531668 0.132624 0.111492
H114  H     H_    0.277437 0.450065 0.175672 0.100528
H115  H     H_    0.277066 0.294675 0.172659 0.106326
H116  H     H_    0.184187 0.221009 0.126529 0.108691
H117  H     H_    0.219460 0.470437 0.588831 0.090663
H118  H     H_    0.093516 0.301865 0.082219 0.095970
H119  H     H_    0.316663 0.886746 0.893574 0.104329
H120  H     H_    0.275520 0.766703 0.852436 0.110965
H121  H     H_    0.383064 0.666735 0.829085 0.099116
H122  H     H_    0.532338 0.686974 0.846819 0.098707
H123  H     H_    0.574307 0.807123 0.887443 0.097474
H124  H     H_    0.397230 0.171422 0.122137 0.120111
H125  H     H_    0.430549 0.277084 0.172074 0.098991
H126  H     H_    0.578425 0.311614 0.187063 0.108718
H127  H     H_    0.693211 0.242357 0.151143 0.108907
H128  H     H_    0.321372 0.387227 0.626644 0.099439
H129  H     H_    0.661069 0.140818 0.099152 0.107060
H130  H     H_    0.106602 0.315739 0.889593 0.113743
H131  H     H_    0.222153 0.276701 0.845477 0.114584
H132  H     H_    0.324284 0.384070 0.823794 0.101402
H133  H     H_    0.310197 0.531270 0.845903 0.102923
H134  H     H_    0.194099 0.571630 0.889369 0.104073
H135  H     H_    0.815001 0.468330 0.132626 0.111492
H136  H     H_    0.722560 0.549931 0.175673 0.100529
H137  H     H_    0.722928 0.705321 0.172660 0.106326
H138  H     H_    0.815807 0.778989 0.126530 0.108691
H139  H     H_    0.274148 0.262522 0.663455 0.118490
H140  H     H_    0.906481 0.698133 0.082220 0.095970
H141  H     H_    0.020434 0.256635 0.441228 0.098973
H142  H     H_    0.085467 0.138851 0.405534 0.090293
H143  H     H_    0.240198 0.126175 0.402304 0.102008
H144  H     H_    0.330259 0.230677 0.435365 0.102416
H145  H     H_    0.266140 0.349977 0.470130 0.092176
H146  H     H_    0.754929 0.687410 0.539347 0.090872
H147  H     H_    0.722743 0.831101 0.560938 0.098226
H148  H     H_    0.837749 0.934490 0.570188 0.097254
H149  H     H_    0.984389 0.893956 0.557204 0.095641
H150  H     H_    0.123951 0.222342 0.663617 0.093952
H151  H     H_    0.017412 0.749902 0.534900 0.105635
H152  H     H_    0.748774 0.973557 0.458032 0.115756
H153  H     H_    0.886848 0.004420 0.428609 0.103988
H154  H     H_    0.928825 0.150930 0.415650 0.094171
H155  H     H_    0.834437 0.268116 0.433694 0.101182
H156  H     H_    0.696100 0.238425 0.462714 0.106000
H157  H     H_    0.406660 0.745775 0.535735 0.095181
H158  H     H_    0.309016 0.639841 0.562365 0.099320
H159  H     H_    0.164123 0.680298 0.580455 0.109148
H160  H     H_    0.117029 0.827162 0.571680 0.094136
O1    O     O_3   0.500000 0.000000 0.250000 -0.441072
O2    O     O_R   0.500000 0.930770 0.662510 -0.546232
O3    O     O_R   0.930770 0.500000 0.337490 -0.539712
O4    O     O_R   0.069230 0.500000 0.662510 -0.537328
O5    O     O_R   1.000000 0.430770 0.837490 -0.540964
O6    O     O_R   1.000000 0.569230 0.162510 -0.534580
O7    O     O_R   0.569230 0.000000 0.837490 -0.541268
O8    O     O_R   0.430770 0.000000 0.162510 -0.538826
O9    O     O_R   1.000000 0.569230 0.837490 -0.540965
O10   O     O_R   1.000000 0.430770 0.162510 -0.534580
O11   O     O_R   0.430770 0.000000 0.837490 -0.541273
O12   O     O_3   0.500000 0.000000 0.750000 -0.438806
O13   O     O_R   0.569230 0.000000 0.162510 -0.538830
O14   O     O_R   0.402530 0.166640 0.272980 -0.540832
O15   O     O_R   0.597470 0.833360 0.727020 -0.543509
O16   O     O_R   0.833360 0.402530 0.272980 -0.540735
O17   O     O_R   0.166640 0.597470 0.727020 -0.540133
O18   O     O_R   0.597470 0.833360 0.272980 -0.540834
O19   O     O_R   0.402530 0.166640 0.727020 -0.543508
O20   O     O_R   0.166640 0.597470 0.272980 -0.540733
O21   O     O_R   0.833360 0.402530 0.727020 -0.540135
O22   O     O_R   0.402530 0.833360 0.727020 -0.540600
O23   O     O_3   1.000000 0.500000 0.250000 -0.441459
O24   O     O_R   0.597470 0.166640 0.272980 -0.531962
O25   O     O_R   0.833360 0.597470 0.727020 -0.528814
O26   O     O_R   0.166640 0.402530 0.272980 -0.543678
O27   O     O_R   0.597470 0.166640 0.727020 -0.540604
O28   O     O_R   0.402530 0.833360 0.272980 -0.531955
O29   O     O_R   0.166640 0.402530 0.727020 -0.528817
O30   O     O_R   0.833360 0.597470 0.272980 -0.543687
O31   O     O_R   0.902530 0.666640 0.772980 -0.537810
O32   O     O_R   0.097470 0.333360 0.227020 -0.524512
O33   O     O_R   0.333360 0.902530 0.772980 -0.533078
O34   O     O_3   1.000000 0.500000 0.750000 -0.441722
O35   O     O_R   0.666640 0.097470 0.227020 -0.532972
O36   O     O_R   0.097470 0.333360 0.772980 -0.537807
O37   O     O_R   0.902530 0.666640 0.227020 -0.524509
O38   O     O_R   0.666640 0.097470 0.772980 -0.533076
O39   O     O_R   0.333360 0.902530 0.227020 -0.532973
O40   O     O_R   0.902530 0.333360 0.227020 -0.538351
O41   O     O_R   0.097470 0.666640 0.772980 -0.538957
O42   O     O_R   0.333360 0.097470 0.227020 -0.539680
O43   O     O_R   0.666640 0.902530 0.772980 -0.537119
O44   O     O_R   0.097470 0.666640 0.227020 -0.538353
O45   O     O_R   0.500000 0.930770 0.337490 -0.536705
O46   O     O_R   0.902530 0.333360 0.772980 -0.538959
O47   O     O_R   0.666640 0.902530 0.227020 -0.539682
O48   O     O_R   0.333360 0.097470 0.772980 -0.537121
O49   O     O_R   0.500000 0.069230 0.662510 -0.546234
O50   O     O_R   0.069230 0.500000 0.337490 -0.539700
O51   O     O_R   0.930770 0.500000 0.662510 -0.537324
O52   O     O_R   0.500000 0.069230 0.337490 -0.536710
Zn1   Zn    Zn3+2 0.401050 0.000000 0.217300 0.942561
Zn2   Zn    Zn3+2 0.098950 0.500000 0.282700 0.928074
Zn3   Zn    Zn3+2 0.500000 0.901050 0.717300 0.936498
Zn4   Zn    Zn3+2 0.500000 0.098950 0.282700 0.936988
Zn5   Zn    Zn3+2 0.098950 0.500000 0.717300 0.940096
Zn6   Zn    Zn3+2 0.901050 0.500000 0.282700 0.928068
Zn7   Zn    Zn3+2 0.500000 0.098950 0.717300 0.936495
Zn8   Zn    Zn3+2 0.500000 0.901050 0.282700 0.936991
Zn9   Zn    Zn3+2 0.598950 0.000000 0.782700 0.945924
Zn10  Zn    Zn3+2 1.000000 0.401050 0.217300 0.942163
Zn11  Zn    Zn3+2 1.000000 0.598950 0.782700 0.940484
Zn12  Zn    Zn3+2 0.598950 0.000000 0.217300 0.942557
Zn13  Zn    Zn3+2 0.401050 0.000000 0.782700 0.945923
Zn14  Zn    Zn3+2 1.000000 0.598950 0.217300 0.942163
Zn15  Zn    Zn3+2 1.000000 0.401050 0.782700 0.940482
Zn16  Zn    Zn3+2 0.901050 0.500000 0.717300 0.940095

loop_
_geom_bond_atom_site_label_1
_geom_bond_atom_site_label_2
_ccdc_geom_bond_type
C4    C272  A    
O10   Zn10  S    
C126  C127  A    
C220  C250  S    
C124  O38   A    
C181  C296  S    
C19   C20   A    
C191  H44   S    
C55   C56   A    
C219  H69   S    
C1    C252  S    
C2    C228  S    
C24   O41   A    
O22   Zn3   S    
C153  H14   S    
C4    C194  S    
O35   Zn12  S    
O32   Zn10  S    
C76   H109  S    
C157  O37   A    
C210  H61   S    
C246  C255  A    
C143  C144  A    
O11   Zn13  S    
C124  O27   A    
C46   C224  S    
C108  C109  A    
C92   H122  S    
C110  C111  A    
C16   H117  S    
C253  C258  S    
O5    Zn15  S    
C135  C168  S    
C4    C295  A    
C211  H62   S    
C94   C247  S    
C198  H51   S    
O52   Zn4   S    
C74   C244  S    
C8    C233  S    
C235  C266  A    
C149  H9    S    
C156  H16   S    
C59   C60   A    
C62   H97   S    
C21   C22   A    
C187  C193  A    
C184  H39   S    
O49   Zn7   S    
C104  C105  A    
C218  H67   S    
C5    C200  S    
C41   C238  S    
C45   C47   A    
C61   C241  S    
C15   C20   A    
C202  C203  A    
C51   C52   A    
C128  C288  S    
C31   H71   S    
C96   H125  S    
C72   C73   A    
O48   Zn13  S    
C19   H150  S    
C181  C182  A    
C148  C291  S    
C199  H52   S    
C171  H28   S    
C146  O29   A    
C43   C44   A    
C37   C38   A    
C168  C232  T    
C68   O21   A    
C182  H37   S    
C109  H136  S    
O34   Zn15  S    
C148  C149  A    
C162  H20   S    
C245  C258  A    
C202  H53   S    
C154  C155  A    
C73   H107  S    
C28   C33   A    
C193  H47   S    
C158  C159  A    
C84   H115  S    
C233  C250  A    
C5    C273  A    
C148  C153  A    
C39   C40   A    
C48   C239  S    
C183  H38   S    
C164  C165  A    
C35   C225  S    
C82   H113  S    
C240  C254  A    
C91   H121  S    
C240  C262  A    
C196  C197  A    
C3    C187  S    
C13   C227  S    
C111  H138  S    
C139  C140  A    
C166  H25   S    
C2    O43   A    
O12   Zn7   S    
C100  C106  A    
C241  C272  A    
C104  H132  S    
C268  C281  A    
C144  C145  A    
C156  C158  A    
C130  C131  A    
C25   C26   A    
O1    Zn8   S    
C163  H21   S    
C175  C176  A    
C101  C201  S    
C5    C294  A    
C138  H159  S    
O23   Zn2   S    
C175  H31   S    
C115  C285  S    
C157  O30   A    
C47   H85   S    
C208  H59   S    
C268  C294  A    
C69   C70   A    
C177  H33   S    
C269  C295  A    
C141  C147  A    
C270  C296  A    
C195  C196  A    
C192  H45   S    
O26   Zn2   S    
C88   C89   A    
C79   O33   A    
C200  C202  A    
C98   C99   A    
C155  C156  A    
C265  C291  A    
C22   C23   A    
C266  C292  A    
C67   C69   A    
C109  C110  A    
C180  H36   S    
O29   Zn5   S    
C126  H149  S    
C90   C212  S    
C90   O24   A    
C95   C96   A    
C205  H56   S    
C134  C289  S    
C249  C258  A    
C26   H46   S    
C3    C6    A    
C231  C251  S    
C128  C129  A    
C97   C98   A    
C106  H134  S    
C167  C169  A    
C85   C86   A    
C154  C160  A    
C216  H65   S    
C86   H118  S    
C136  H157  S    
C56   H92   S    
C273  C282  A    
C36   C37   A    
C18   H139  S    
C55   H91   S    
C38   C39   A    
C78   C80   A    
C265  C278  A    
C131  H154  S    
C170  C171  A    
C115  C116  A    
C35   O18   A    
C267  C280  A    
O17   Zn5   S    
C184  C185  A    
C267  C293  A    
C189  C191  A    
C174  C175  A    
O23   Zn14  S    
C32   H72   S    
C160  H19   S    
C182  C183  A    
C212  C227  T    
C112  C254  S    
C31   C32   A    
C236  C267  A    
C107  C108  A    
C89   C91   A    
C9    C10   A    
C35   O47   A    
O27   Zn7   S    
C233  C263  A    
C247  C256  A    
C277  C278  A    
C120  H145  S    
C244  C274  A    
C113  O26   A    
C235  C252  A    
C246  C268  A    
O15   Zn3   S    
C68   C230  S    
O9    Zn11  S    
C119  H144  S    
C178  H34   S    
C48   C53   A    
O12   Zn9   S    
O13   Zn12  S    
C158  H17   S    
C137  H158  S    
C7    C276  A    
C91   C92   A    
C37   H76   S    
C57   C232  S    
C208  C209  A    
C234  C265  A    
C53   H90   S    
C276  C284  A    
C222  C225  T    
C217  C218  A    
C36   H75   S    
C71   H104  S    
C64   H99   S    
C253  O10   A    
C29   C30   A    
C253  O6    A    
O34   Zn16  S    
C83   C84   A    
C279  C280  A    
C17   C18   A    
C41   C47   A    
C1    O52   A    
C185  H40   S    
C33   H74   S    
C28   C236  S    
C125  H148  S    
C67   C73   A    
C13   O16   A    
C57   O20   A    
C176  H32   S    
C229  C286  S    
C82   C83   A    
C237  C250  A    
C259  C277  A    
C174  C180  A    
C52   C53   A    
C101  O25   A    
C129  C130  A    
C189  H43   S    
C88   H119  S    
C14   H106  S    
C54   C55   A    
C211  C213  A    
C239  C252  A    
C117  H142  S    
C65   H100  S    
C274  C283  A    
C81   C86   A    
O40   Zn10  S    
C136  C137  A    
C234  C251  A    
C7    C296  A    
O28   Zn8   S    
C266  C279  A    
C285  C291  A    
C98   H127  S    
C262  C289  A    
C172  H29   S    
C117  C118  A    
C157  C222  S    
C87   C93   A    
C64   C65   A    
C56   C58   A    
C13   O40   A    
C34   C36   A    
C197  C198  A    
C6    C274  A    
C146  O36   A    
C7    C214  S    
C10   C11   A    
C63   C64   A    
C248  C270  A    
C152  C153  A    
C49   C50   A    
C283  C284  A    
C150  C151  A    
C239  C261  A    
C74   C80   A    
C101  O31   A    
C68   O46   A    
C69   H102  S    
C95   H124  S    
C145  H7    S    
O34   Zn5   S    
C87   C88   A    
C169  H26   S    
C209  H60   S    
C41   C42   A    
O1    Zn12  S    
O16   Zn6   S    
C203  C204  A    
C116  H141  S    
C161  C162  A    
C141  C290  S    
C77   C78   A    
C26   C27   A    
C10   H73   S    
C245  C276  A    
C28   C29   A    
C121  C127  A    
C30   C31   A    
C63   H98   S    
C123  C125  A    
C215  H64   S    
C289  C292  A    
C89   H120  S    
C18   C19   A    
C80   H112  S    
C27   H57   S    
C124  C179  S    
C46   O19   A    
O30   Zn6   S    
C16   C17   A    
O20   Zn2   S    
C77   H110  S    
C152  H12   S    
C200  C206  A    
C151  C152  A    
C70   C71   A    
C241  C255  A    
C75   H108  S    
C264  O11   A    
C243  C273  A    
C9    H1    S    
C170  H27   S    
C167  C173  A    
C61   C62   A    
C167  C294  S    
C194  C195  A    
C21   C27   A    
C1    O45   A    
C195  H48   S    
C220  O3    A    
C133  H156  S    
C145  C147  A    
C135  O39   A    
C79   C221  S    
C140  H3    S    
C123  H147  S    
O7    Zn9   S    
C207  C208  A    
C84   C85   A    
C223  C224  T    
C209  C210  A    
C174  C295  S    
C67   C243  S    
C50   H87   S    
C58   C59   A    
C188  H42   S    
C221  C226  T    
C243  C256  A    
C191  C192  A    
O37   Zn14  S    
C102  H130  S    
C107  C114  A    
C62   C63   A    
C100  C248  S    
C220  O50   A    
C260  C278  A    
O4    Zn5   S    
C159  C160  A    
C261  C279  A    
C242  O5    A    
C112  O2    A    
C181  C186  A    
C130  H153  S    
C231  O51   A    
C50   C51   A    
C287  C290  A    
C83   H114  S    
C288  C293  A    
C45   H83   S    
C70   H103  S    
C51   H88   S    
O34   Zn11  S    
O12   Zn13  S    
C125  C126  A    
C242  C257  S    
C269  C282  A    
C42   C43   A    
C93   H123  S    
C131  C132  A    
C129  H152  S    
C44   C45   A    
O24   Zn4   S    
C162  C163  A    
C186  H41   S    
C144  H6    S    
C272  C281  A    
O31   Zn11  S    
C147  H8    S    
C161  C293  S    
C244  C257  A    
C12   H95   S    
O23   Zn6   S    
C178  C180  A    
C119  C120  A    
C29   H68   S    
O1    Zn4   S    
C105  C106  A    
C60   H96   S    
C190  C229  T    
C32   C33   A    
O12   Zn3   S    
C196  H49   S    
C187  C188  A    
C236  C254  A    
C149  C150  A    
C192  C193  A    
C103  H131  S    
C185  C186  A    
C21   C235  S    
O6    Zn14  S    
C242  O9    A    
C154  C292  S    
C92   C93   A    
C78   H111  S    
C111  C114  A    
O44   Zn14  S    
C215  C216  A    
C94   C95   A    
C138  C139  A    
O33   Zn13  S    
C197  H50   S    
C71   C72   A    
C255  C264  S    
C142  H4    S    
C177  C178  A    
C286  O42   A    
C103  C104  A    
C142  C143  A    
O38   Zn9   S    
C128  C133  A    
O51   Zn16  S    
C127  H151  S    
C99   H129  S    
C201  C228  T    
C171  C172  A    
C206  H58   S    
C165  C166  A    
C238  C251  A    
C169  C170  A    
C249  C271  A    
C163  C164  A    
C75   C76   A    
C81   C82   A    
C271  C284  A    
C3    C271  A    
O50   Zn2   S    
C54   C60   A    
C205  C206  A    
C79   O22   A    
C34   C40   A    
C23   H24   S    
C114  H140  S    
C214  C219  A    
C134  C140  A    
C247  C269  A    
C15   C16   A    
C207  C213  A    
C116  C117  A    
C15   C234  S    
C113  O32   A    
C121  C287  S    
C259  C285  A    
C34   C237  S    
C118  C119  A    
C61   C66   A    
C11   H84   S    
C203  H54   S    
C8    C9    A    
C17   H128  S    
O39   Zn1   S    
O36   Zn15  S    
C20   H2    S    
C216  C217  A    
C256  C275  S    
C238  C260  A    
C198  C199  A    
C270  C283  A    
C22   H13   S    
C39   H78   S    
O25   Zn16  S    
C115  C120  A    
C161  C166  A    
O3    Zn6   S    
C150  H10   S    
C261  C288  A    
C262  C280  A    
C139  H160  S    
O45   Zn8   S    
C42   H80   S    
C102  C103  A    
C24   C226  S    
C159  H18   S    
C44   H82   S    
C90   O35   A    
C204  H55   S    
C155  H15   S    
C74   C75   A    
C107  C249  S    
O14   Zn4   S    
C81   C245  S    
C40   H79   S    
C76   C77   A    
C135  O28   A    
C214  C215  A    
C132  C133  A    
C134  C136  A    
C281  C282  A    
C263  C277  A    
C188  C189  A    
C275  O13   A    
C113  C190  S    
C217  H66   S    
C264  O7    A    
C183  C184  A    
C237  C259  A    
C286  O14   A    
O2    Zn3   S    
C213  H63   S    
C12   C14   A    
C96   C97   A    
C100  C102  A    
C121  C122  A    
C112  O49   A    
C66   H101  S    
C118  H143  S    
C204  C205  A    
C179  C230  T    
C49   H86   S    
C6    C207  S    
C164  H22   S    
C52   H89   S    
C176  C177  A    
C165  H23   S    
C30   H70   S    
C210  C211  A    
C57   O44   A    
C275  O8    A    
C263  C290  A    
C122  H146  S    
O19   Zn7   S    
O8    Zn1   S    
O46   Zn15  S    
C108  H135  S    
C72   H105  S    
C172  C173  A    
C87   C246  S    
O47   Zn12  S    
C97   H126  S    
C48   C49   A    
C8    C14   A    
C59   H94   S    
C38   H77   S    
C132  H155  S    
C11   C12   A    
C137  C138  A    
C43   H81   S    
C151  H11   S    
O18   Zn8   S    
C24   O17   A    
C173  H30   S    
C54   C240  S    
C2    O15   A    
O21   Zn16  S    
C105  H133  S    
C141  C142  A    
C146  C223  S    
C218  C219  A    
C94   C99   A    
O1    Zn1   S    
C23   C25   A    
C58   H93   S    
C260  C287  A    
C143  H5    S    
C46   O48   A    
C248  C257  A    
C194  C199  A    
C65   C66   A    
O41   Zn11  S    
O42   Zn1   S    
C231  O4    A    
O43   Zn9   S    
C110  H137  S    
C122  C123  A    
O23   Zn10  S    
C25   H35   S    
C85   H116  S    
