data_mof_unit_50769.cif
_audit_creation_date              2012-12-11T21:09:33-0500
_audit_creation_method            fapswitch 2.2
_symmetry_space_group_name_H-M    P1
_symmetry_Int_Tables_number       1
_space_group_crystal_system       triclinic
_cell_length_a                    8.249369
_cell_length_b                    19.181212
_cell_length_c                    26.903553
_cell_angle_alpha                 99.653438
_cell_angle_beta                  92.324372
_cell_angle_gamma                 87.959504
_cell_volume                      4191.50163321

loop_
_atom_site_label
_atom_site_type_symbol
_atom_type_description
_atom_site_fract_x
_atom_site_fract_y
_atom_site_fract_z
_atom_type_partial_charge
Ba1   Ba    Ba6+2 0.160260 0.465850 0.521400 1.644082
Ba2   Ba    Ba6+2 0.649930 0.534160 0.478640 1.641975
C1    C     C_3   0.385027 0.287617 0.703348 -0.357120
C2    C     C_3   0.439519 0.300594 0.652485 0.302178
C3    C     C_3   0.469584 0.317145 0.398508 0.307120
C4    C     C_3   0.473379 0.237132 0.383271 -0.380770
C5    C     C_3   0.862883 0.716741 0.373098 0.359329
C6    C     C_3   0.852137 0.788502 0.356026 -0.361227
C7    C     C_3   0.364282 0.698835 0.346327 0.305829
C8    C     C_3   0.418865 0.709863 0.295007 -0.354427
C9    C     C_R   0.955909 0.801686 0.524461 -0.147510
C10   C     C_R   0.990108 0.727587 0.516652 0.061668
C11   C     C_R   0.132398 0.812296 0.456983 -0.155498
C12   C     C_3   0.941514 0.285275 0.627849 0.352253
C13   C     C_R   0.200563 0.745783 0.461688 0.002849
C14   C     C_R   0.677194 0.188296 0.542637 -0.160439
C15   C     C_R   0.605725 0.253564 0.536127 0.010212
C16   C     C_R   0.856771 0.198036 0.475820 -0.143146
C17   C     C_R   0.818266 0.271769 0.482090 0.056987
C18   C     C_R   0.018104 0.846049 0.491760 -0.000270
C19   C     C_R   0.118439 0.701341 0.486826 -0.248166
C20   C     C_R   0.793437 0.154148 0.508713 0.000031
C21   C     C_R   0.684778 0.297202 0.509609 -0.247828
C22   C     C_R   0.225018 0.965787 0.466750 -0.077095
C23   C     C_3   0.946728 0.214140 0.645840 -0.363191
C24   C     C_R   0.317501 0.018536 0.453475 -0.080604
C25   C     C_R   0.273731 0.088373 0.469755 -0.065742
C26   C     C_R   0.130630 0.104236 0.495127 -0.078158
C27   C     C_R   0.013108 0.053128 0.495159 0.012704
C28   C     C_R   0.065861 0.979895 0.484903 0.039281
C29   C     C_R   0.850804 0.075390 0.508032 -0.017303
C30   C     C_R   0.746757 0.020534 0.517136 0.039159
C31   C     C_R   0.799381 0.947270 0.506737 0.013438
C32   C     C_R   0.961406 0.925011 0.493523 -0.016976
C33   C     C_R   0.588376 0.034571 0.536006 -0.076553
C34   C     C_3   0.826952 0.633325 0.635748 0.304113
C35   C     C_R   0.496490 0.981750 0.549453 -0.079706
C36   C     C_R   0.539872 0.911962 0.532925 -0.066795
C37   C     C_R   0.682060 0.896148 0.507140 -0.079489
C38   C     C_R   0.289714 0.446818 0.172480 0.587319
C39   C     C_R   0.182973 0.565446 0.176191 0.580855
C40   C     C_2   0.029431 0.523285 0.268759 -0.070060
C41   C     C_3   0.993492 0.517710 0.322862 -0.055491
C42   C     C_1   0.279587 0.490659 0.335920 0.014896
C43   C     C_2   0.314609 0.492685 0.288665 -0.093778
C44   C     C_2   0.182295 0.509055 0.251973 0.209862
C45   C     C_3   0.794155 0.663586 0.690569 -0.367428
C46   C     C_R   0.300552 0.504208 0.098306 -0.078702
C47   C     C_R   0.332942 0.444829 0.122033 -0.032901
C48   C     C_R   0.407725 0.384487 0.094919 -0.062179
C49   C     C_R   0.223884 0.564714 0.125614 -0.030781
C50   C     C_2   0.147555 0.522758 0.355462 -0.285484
C51   C     C_2   0.657096 0.479276 0.639590 -0.284289
C52   C     C_R   0.470849 0.441116 0.969916 0.020797
C53   C     C_R   0.353187 0.561821 0.972658 0.020347
C54   C     C_R   0.434449 0.500968 0.946151 0.049336
C55   C     C_R   0.554699 0.382549 0.942060 -0.099840
C56   C     C_3   0.980150 0.369041 0.364576 0.300839
C57   C     C_R   0.598596 0.382280 0.892692 -0.062938
C58   C     C_R   0.561897 0.440395 0.868641 -0.030649
C59   C     C_R   0.480065 0.499979 0.895273 -0.078563
C60   C     C_R   0.444313 0.558653 0.871067 -0.032428
C61   C     C_R   0.490633 0.557079 0.820920 0.587928
C62   C     C_R   0.605364 0.439941 0.818363 0.580760
C63   C     C_2   0.765038 0.481557 0.727695 -0.072628
C64   C     C_3   0.807316 0.485407 0.673953 -0.060260
C65   C     C_1   0.522634 0.511871 0.656942 0.039930
C66   C     C_2   0.483384 0.512589 0.704338 -0.100725
C67   C     C_3   0.013176 0.339696 0.309599 -0.362242
C68   C     C_2   0.610565 0.496322 0.742676 0.201374
C69   C     C_R   0.423550 0.441746 0.020471 0.020405
C70   C     C_R   0.344765 0.503040 0.047279 0.049305
C71   C     C_R   0.309854 0.563190 0.023705 0.020607
C72   C     C_R   0.451858 0.382816 0.045420 -0.100451
C73   C     C_R   0.190970 0.623581 0.102038 -0.062569
C74   C     C_R   0.318199 0.619481 0.946870 -0.100316
C75   C     C_R   0.363036 0.617853 0.897414 -0.062459
C76   C     C_R   0.232763 0.622993 0.052403 -0.099720
C77   C     C_3   0.333391 0.681246 0.589681 0.314774
C78   C     C_3   0.331805 0.761361 0.604344 -0.381661
H1    H     H_    0.427654 0.358393 0.651834 0.051908
H2    H     H_    0.714952 0.711961 0.692485 0.142018
H3    H     H_    0.731731 0.624938 0.708762 0.079476
H4    H     H_    0.910277 0.677300 0.711694 0.121994
H5    H     H_    0.095017 0.387697 0.384071 0.022127
H6    H     H_    0.889695 0.413495 0.366619 0.035663
H7    H     H_    0.095326 0.292192 0.307342 0.147065
H8    H     H_    0.072139 0.379233 0.291372 0.080584
H9    H     H_    0.897437 0.324733 0.288640 0.118565
H10   H     H_    0.208564 0.664029 0.579578 0.003298
H11   H     H_    0.411354 0.666258 0.556702 0.081570
H12   H     H_    0.257546 0.306803 0.709081 0.153902
H13   H     H_    0.250551 0.778272 0.636343 0.128491
H14   H     H_    0.287421 0.786483 0.571944 0.057391
H15   H     H_    0.456524 0.779371 0.615557 0.124868
H16   H     H_    0.568801 0.282845 0.648544 -0.016489
H17   H     H_    0.463173 0.316504 0.733899 0.131886
H18   H     H_    0.595363 0.334536 0.408136 0.018023
H19   H     H_    0.394241 0.330729 0.432252 0.071621
H20   H     H_    0.550773 0.221298 0.350197 0.131441
H21   H     H_    0.523815 0.211962 0.415056 0.055340
H22   H     H_    0.394166 0.230214 0.705258 0.113650
H23   H     H_    0.944240 0.170634 0.612967 0.071455
H24   H     H_    0.768450 0.715869 0.401242 0.103061
H25   H     H_    0.984145 0.709325 0.390510 -0.050667
H26   H     H_    0.860501 0.831361 0.389220 0.069624
H27   H     H_    0.952766 0.793062 0.330663 0.119125
H28   H     H_    0.734363 0.794992 0.335585 0.142386
H29   H     H_    0.236919 0.719194 0.350666 -0.018811
H30   H     H_    0.370307 0.641089 0.347371 0.047206
H31   H     H_    0.337761 0.681661 0.264957 0.127461
H32   H     H_    0.544739 0.688675 0.288962 0.158229
H33   H     H_    0.042295 0.285508 0.601765 0.103989
H34   H     H_    0.414187 0.767129 0.292563 0.113506
H35   H     H_    0.875315 0.823171 0.554273 0.077159
H36   H     H_    0.167496 0.835314 0.425257 0.063868
H37   H     H_    0.643701 0.166784 0.575183 0.063994
H38   H     H_    0.940829 0.176643 0.446991 0.077208
H39   H     H_    0.160796 0.647074 0.485584 0.061349
H40   H     H_    0.638718 0.350573 0.508947 0.064087
H41   H     H_    0.289711 0.916635 0.465394 0.074782
H42   H     H_    0.434597 0.005399 0.436980 0.079262
H43   H     H_    0.356372 0.129434 0.465765 0.095807
H44   H     H_    0.824399 0.292134 0.607689 -0.047706
H45   H     H_    0.109269 0.156784 0.514740 0.127191
H46   H     H_    0.523237 0.083603 0.537843 0.074309
H47   H     H_    0.379906 0.994828 0.566309 0.079181
H48   H     H_    0.457606 0.870847 0.537012 0.096186
H49   H     H_    0.702593 0.843550 0.487558 0.127629
H50   H     H_    0.437874 0.482011 0.276259 0.111584
H51   H     H_    0.433144 0.337799 0.112016 0.122885
H52   H     H_    0.861210 0.472545 0.754855 0.104707
H53   H     H_    0.662276 0.335832 0.873318 0.121330
H54   H     H_    0.590168 0.335637 0.957218 0.068734
H55   H     H_    0.060083 0.208109 0.668606 0.138380
H56   H     H_    0.507321 0.333757 0.027833 0.069219
H57   H     H_    0.930103 0.532475 0.242697 0.100114
H58   H     H_    0.132599 0.670980 0.122070 0.121222
H59   H     H_    0.255208 0.667184 0.963567 0.069184
H60   H     H_    0.333052 0.663666 0.879744 0.122371
H61   H     H_    0.359804 0.525345 0.715752 0.125760
H62   H     H_    0.203344 0.671061 0.037968 0.068728
H63   H     H_    0.149531 0.551002 0.394012 0.066451
H64   H     H_    0.659343 0.449195 0.601621 0.071389
H65   H     H_    0.840592 0.210197 0.669223 0.119568
H66   H     H_    0.710894 0.615820 0.616407 0.022908
H67   H     H_    0.915299 0.588156 0.633966 0.032852
N1    N     N_R   0.217597 0.507072 0.199249 -0.426665
N2    N     N_R   0.568769 0.497798 0.794878 -0.424913
O1    O     O_2   0.103290 0.325410 0.465600 -0.459203
O2    O     O_3   0.392377 0.650979 0.630891 -0.627591
O3    O     O_3   0.955523 0.339328 0.669651 -0.593727
O4    O     O_2   0.707020 0.674640 0.534420 -0.465608
O5    O     O_3   0.952550 0.585840 0.530020 -0.488341
O6    O     O_3   0.436140 0.628890 0.444040 -0.462991
O7    O     O_3   0.893867 0.686144 0.614014 -0.633863
O8    O     O_3   0.350480 0.462320 0.439870 -0.480272
O9    O     O_3   0.840680 0.592440 0.417430 -0.488727
O10   O     O_2   0.662287 0.557194 0.333044 -0.485019
O11   O     O_3   0.840974 0.663648 0.331093 -0.595121
O12   O     O_3   0.857760 0.414170 0.470020 -0.485408
O13   O     O_3   0.459840 0.537690 0.560170 -0.492016
O14   O     O_2   0.582520 0.462630 0.379680 -0.459181
O15   O     O_3   0.404010 0.348361 0.358216 -0.633640
O16   O     O_2   0.529873 0.752825 0.481995 -0.508723
O17   O     O_3   0.466427 0.735589 0.384126 -0.600390
O18   O     O_2   0.315077 0.394571 0.192500 -0.596936
O19   O     O_2   0.674676 0.387718 0.795337 -0.603224
O20   O     O_2   0.118083 0.618342 0.199865 -0.601955
O21   O     O_2   0.463104 0.608925 0.800624 -0.599537
O22   O     O_3   0.374170 0.371120 0.556000 -0.467644
O23   O     O_2   0.277000 0.248270 0.516462 -0.504123
O24   O     O_3   0.917317 0.314916 0.385955 -0.636710
O25   O     O_3   0.341984 0.262271 0.614115 -0.604714
O26   O     O_2   0.227790 0.537410 0.620340 -0.464978
O27   O     O_3   0.969630 0.407570 0.582610 -0.490342
O28   O     O_2   0.139280 0.444755 0.668314 -0.487788
P1    P     P_3+3 0.926760 0.336170 0.451740 0.983258
P2    P     P_3+3 0.399470 0.558680 0.614150 0.994332
P3    P     P_3+3 0.968414 0.420498 0.648604 0.971030
P4    P     P_3+3 0.883550 0.663840 0.548300 0.982732
P5    P     P_3+3 0.834305 0.581647 0.351283 0.972760
P6    P     P_3+3 0.401800 0.281676 0.556569 0.921975
P7    P     P_3+3 0.400591 0.440404 0.376609 0.959121
P8    P     P_3+3 0.406027 0.717915 0.442101 0.921078
H68   H     H_    0.348466 0.218320 0.373476 0.124430

loop_
_geom_bond_atom_site_label_1
_geom_bond_atom_site_label_2
_ccdc_geom_bond_type
C53   C54   A    
C6    H27   S    
Ba1   O27   S    
Ba2   O6    S    
O17   P8    S    
C60   C75   A    
C75   H60   S    
Ba2   O13   S    
C5    C6    S    
C43   C44   S    
C42   C43   D    
O27   P3    S    
C13   P8    S    
Ba1   O26   S    
C24   C25   A    
C31   C37   A    
O22   P6    S    
C26   C27   A    
C33   C35   A    
C35   C36   A    
C22   C24   A    
Ba1   Ba2   S    
C76   H62   S    
C36   C37   A    
C41   C50   S    
C45   H2    S    
C38   C47   A    
O5    P4    S    
C56   H6    S    
C34   C45   S    
C16   C17   A    
C40   C44   D    
C4    H21   S    
C15   P6    S    
C61   N2    Am   
C38   O18   D    
C2    H16   S    
C46   C49   A    
C44   N1    S    
C52   C69   A    
C3    H19   S    
C14   C15   A    
C77   H10   S    
C72   H56   S    
C14   C20   A    
C71   C76   A    
C5    H25   S    
C8    H32   S    
O8    P7    S    
C45   H3    S    
C9    H35   S    
C7    C8    S    
C16   H38   S    
C77   H11   S    
C67   H7    S    
O1    P1    D    
C18   C32   S    
C42   C50   D    
C63   C68   D    
Ba1   O12   S    
C57   C58   A    
Ba2   O5    S    
C2    O25   S    
C40   H57   S    
C59   C60   A    
C68   N2    S    
C46   C70   A    
C67   H9    S    
C6    H28   S    
Ba2   O12   S    
O11   P5    S    
C7    H29   S    
C52   C54   A    
C9    C18   A    
C50   H63   S    
C12   H44   S    
C20   C29   S    
C28   C32   A    
C65   C66   D    
C30   C33   A    
C8    H31   S    
C74   C75   A    
C8    H34   S    
O6    P8    S    
C21   H40   S    
C38   N1    Am   
C23   H23   S    
C61   O21   D    
O26   P2    D    
C5    O11   S    
C37   H49   S    
C64   P3    S    
C10   C19   A    
Ba1   O22   S    
O16   P8    D    
C1    H12   S    
Ba2   P4    S    
C4    H20   S    
O3    P3    S    
C33   H46   S    
C17   C21   A    
C3    O15   S    
C27   C28   A    
O15   P7    S    
Ba1   P1    S    
C1    H17   S    
C34   H67   S    
O2    P2    S    
C10   P4    S    
C13   C19   A    
Ba2   O9    S    
O28   P3    D    
C60   C61   A    
C31   C32   A    
Ba1   O1    S    
C15   C21   A    
C45   H4    S    
C3    H18   S    
C78   H15   S    
C51   C64   S    
O9    P5    S    
C17   P1    S    
O13   P2    S    
C67   H8    S    
C53   C74   A    
C1    H22   S    
C34   H66   S    
C46   C47   A    
O4    P4    D    
Ba1   O13   S    
C47   C48   A    
Ba2   O4    S    
C5    H24   S    
C11   C13   A    
C55   H54   S    
C56   O24   S    
C40   C41   S    
C78   H14   S    
C1    C2    S    
C56   H5    S    
C63   H52   S    
C26   H45   S    
C34   O7    S    
C77   O2    S    
C74   H59   S    
C7    H30   S    
C42   P7    S    
C7    O17   S    
C25   H43   S    
C11   C18   A    
O14   P7    D    
C16   C20   A    
C29   C30   A    
C49   C73   A    
C70   C71   A    
C73   H58   S    
C6    H26   S    
Ba2   O14   S    
C69   C72   A    
C36   H48   S    
O7    P4    S    
C56   C67   S    
C12   H33   S    
C4    H68   S    
C41   P5    S    
C62   N2    Am   
C58   C62   A    
C51   H64   S    
C30   C31   A    
Ba1   O8    S    
O12   P1    S    
C69   C70   A    
C27   C29   A    
C65   P2    S    
C14   H37   S    
Ba1   P2    S    
O23   P6    D    
C48   C72   A    
C3    C4    S    
C39   N1    Am   
C39   O20   D    
O24   P1    S    
Ba2   O8    S    
C2    H1    S    
C22   H41   S    
C57   H53   S    
O10   P5    D    
Ba1   O5    S    
C51   C65   D    
C73   C76   A    
C22   C28   A    
C11   H36   S    
C55   C57   A    
C48   H51   S    
C77   C78   S    
C53   C71   A    
C43   H50   S    
C19   H39   S    
C12   C23   S    
C62   O19   D    
C63   C64   S    
C23   H55   S    
C12   O3    S    
C25   C26   A    
C66   C68   S    
C54   C59   A    
C58   C59   A    
C23   H65   S    
C24   H42   S    
C78   H13   S    
O25   P6    S    
C39   C49   A    
C66   H61   S    
C9    C10   A    
C35   H47   S    
C52   C55   A    
