data_mof_unit_40947.cif
_audit_creation_date              2013-03-05T16:33:53-0500
_audit_creation_method            fapswitch 2.2
_symmetry_space_group_name_H-M    P1
_symmetry_Int_Tables_number       1
_space_group_crystal_system       triclinic
_cell_length_a                    26.217283
_cell_length_b                    22.476588
_cell_length_c                    17.350749
_cell_angle_alpha                 89.60673
_cell_angle_beta                  139.392923
_cell_angle_gamma                 90.549481
_cell_volume                      6654.40378205

loop_
_atom_site_label
_atom_site_type_symbol
_atom_site_description
_atom_site_fract_x
_atom_site_fract_y
_atom_site_fract_z
_atom_type_partial_charge
Zn1   Zn    Zn3+2 0.006080 0.799450 0.098920 1.088843
Zn2   Zn    Zn3+2 0.993920 0.200550 0.901080 1.076377
Zn3   Zn    Zn3+2 0.993920 0.799450 0.901080 1.077054
Zn4   Zn    Zn3+2 0.006080 0.200550 0.098920 1.099717
Zn5   Zn    Zn3+2 0.506080 0.299450 0.098920 1.067235
Zn6   Zn    Zn3+2 0.493920 0.700550 0.901080 1.084723
Zn7   Zn    Zn3+2 0.493920 0.299450 0.901080 1.105762
Zn8   Zn    Zn3+2 0.506080 0.700550 0.098920 1.113543
Zn9   Zn    Zn3+2 0.092840 0.700530 0.098900 0.989371
Zn10  Zn    Zn3+2 0.907160 0.299470 0.901100 1.007718
Zn11  Zn    Zn3+2 0.907160 0.700530 0.901100 1.004280
Zn12  Zn    Zn3+2 0.092840 0.299470 0.098900 1.033777
Zn13  Zn    Zn3+2 0.592840 0.200530 0.098900 1.007953
Zn14  Zn    Zn3+2 0.407160 0.799470 0.901100 0.990868
Zn15  Zn    Zn3+2 0.407160 0.200530 0.901100 1.030867
Zn16  Zn    Zn3+2 0.592840 0.799470 0.098900 1.013671
O1    O     O_3   0.000000 0.749980 0.000000 -0.533536
O2    O     O_3   0.000000 0.250020 0.000000 -0.539455
O3    O     O_3   0.500000 0.249980 0.000000 -0.540410
O4    O     O_3   0.500000 0.750020 0.000000 -0.540282
O5    O     O_R   0.081200 0.784590 0.930760 -0.574779
O6    O     O_R   0.918800 0.215410 0.069240 -0.571397
O7    O     O_R   0.918800 0.784590 0.069240 -0.578520
O8    O     O_R   0.081200 0.215410 0.930760 -0.608812
O9    O     O_R   0.581200 0.284590 0.930760 -0.572820
O10   O     O_R   0.418800 0.715410 0.069240 -0.547192
O11   O     O_R   0.418800 0.284590 0.069240 -0.594589
O12   O     O_R   0.581200 0.715410 0.930760 -0.578885
O13   O     O_R   0.162390 0.715380 0.264050 -0.634602
O14   O     O_R   0.837610 0.284620 0.735950 -0.642284
O15   O     O_R   0.837610 0.715380 0.735950 -0.642260
O16   O     O_R   0.162390 0.284620 0.264050 -0.652730
O17   O     O_R   0.662390 0.215380 0.264050 -0.637861
O18   O     O_R   0.337610 0.784620 0.735950 -0.640014
O19   O     O_R   0.337610 0.215380 0.735950 -0.648263
O20   O     O_R   0.662390 0.784620 0.264050 -0.645012
O21   O     O_R   0.064970 0.617950 0.069210 -0.629447
O22   O     O_R   0.935030 0.382050 0.930790 -0.625418
O23   O     O_R   0.935030 0.617950 0.930790 -0.611922
O24   O     O_R   0.064970 0.382050 0.069210 -0.598318
O25   O     O_R   0.564970 0.117950 0.069210 -0.608416
O26   O     O_R   0.435030 0.882050 0.930790 -0.630649
O27   O     O_R   0.435030 0.117950 0.930790 -0.606327
O28   O     O_R   0.564970 0.882050 0.069210 -0.590308
O29   O     O_R   0.995760 0.882010 0.930780 -0.615760
O30   O     O_R   0.004240 0.117990 0.069220 -0.607253
O31   O     O_R   0.004240 0.882010 0.069220 -0.619252
O32   O     O_R   0.995760 0.117990 0.930780 -0.631586
O33   O     O_R   0.495760 0.382010 0.930780 -0.610305
O34   O     O_R   0.504240 0.617990 0.069220 -0.600594
O35   O     O_R   0.504240 0.382010 0.069220 -0.622979
O36   O     O_R   0.495760 0.617990 0.930780 -0.621686
O37   O     O_R   0.101670 0.784610 0.264060 -0.571739
O38   O     O_R   0.898330 0.215390 0.735940 -0.558555
O39   O     O_R   0.898330 0.784610 0.735940 -0.581577
O40   O     O_R   0.101670 0.215390 0.264060 -0.566553
O41   O     O_R   0.601670 0.284610 0.264060 -0.583469
O42   O     O_R   0.398330 0.715390 0.735940 -0.578906
O43   O     O_R   0.398330 0.284610 0.735940 -0.562816
O44   O     O_R   0.601670 0.715390 0.264060 -0.570303
O45   O     O_R   0.150430 0.715370 0.069210 -0.678208
O46   O     O_R   0.849570 0.284630 0.930790 -0.668357
O47   O     O_R   0.849570 0.715370 0.930790 -0.666802
O48   O     O_R   0.150430 0.284630 0.069210 -0.654124
O49   O     O_R   0.650430 0.215370 0.069210 -0.668723
O50   O     O_R   0.349570 0.784630 0.930790 -0.692097
O51   O     O_R   0.349570 0.215370 0.930790 -0.650897
O52   O     O_R   0.650430 0.784630 0.069210 -0.669221
C1    C     C_R   0.139392 0.748848 0.998120 0.834518
C2    C     C_R   0.860400 0.250843 0.001474 0.850880
C3    C     C_R   0.859161 0.749906 0.998778 0.870746
C4    C     C_R   0.140123 0.251202 0.999649 0.892691
C5    C     C_R   0.641806 0.251844 0.003187 0.854001
C6    C     C_R   0.358028 0.748217 0.996552 0.863463
C7    C     C_R   0.359863 0.248799 0.000298 0.857115
C8    C     C_R   0.639527 0.751639 0.998495 0.853626
C9    C     C_R   0.160003 0.749930 0.319921 0.860413
C10   C     C_R   0.839732 0.249891 0.680087 0.884634
C11   C     C_R   0.839833 0.749968 0.679830 0.844453
C12   C     C_R   0.160316 0.249934 0.320157 0.875216
C13   C     C_R   0.659826 0.249863 0.319904 0.842237
C14   C     C_R   0.339987 0.750039 0.680084 0.862800
C15   C     C_R   0.339980 0.249810 0.679845 0.883325
C16   C     C_R   0.660147 0.750085 0.320171 0.863089
C17   C     C_R   0.999778 0.589989 0.999643 0.842787
C18   C     C_R   0.000159 0.410011 0.000166 0.856246
C19   C     C_R   0.499835 0.089987 0.999860 0.851870
C20   C     C_R   0.500192 0.910006 0.000316 0.859296
C21   C     C_R   0.999975 0.909903 0.999816 0.820961
C22   C     C_R   0.000028 0.090097 0.000186 0.822481
C23   C     C_R   0.499968 0.409902 0.999810 0.824065
C24   C     C_R   0.499999 0.590097 0.000157 0.824581
C25   C     C_1   0.999984 0.973309 0.999774 -0.089983
C26   C     C_1   0.000023 0.026692 0.000228 -0.088593
C27   C     C_1   0.499955 0.473307 0.999750 -0.082873
C28   C     C_1   0.499984 0.526691 0.000197 -0.079299
C29   C     C_R   0.650812 0.661830 0.625485 0.204871
C30   C     C_R   0.345866 0.367285 0.339340 0.227867
C31   C     C_R   0.248828 0.588731 0.220932 0.219087
C32   C     C_R   0.731543 0.403938 0.748127 0.145885
C33   C     C_R   0.143428 0.135229 0.648867 0.189166
C34   C     C_R   0.796165 0.890220 0.284414 0.130314
C35   C     C_R   0.814774 0.141165 0.334244 0.204581
C36   C     C_R   0.241414 0.905129 0.768034 0.215156
C37   C     C_R   0.685277 0.667880 0.738903 0.088688
C38   C     C_R   0.317744 0.346316 0.235351 0.108217
C39   C     C_R   0.232459 0.614668 0.128572 0.085503
C40   C     C_R   0.753137 0.381559 0.847301 0.083948
C41   C     C_R   0.170189 0.156395 0.751675 0.081711
C42   C     C_R   0.773070 0.866938 0.184622 0.119119
C43   C     C_R   0.795587 0.152380 0.234220 0.080362
C44   C     C_R   0.249104 0.876960 0.850343 0.088937
C45   C     C_R   0.690446 0.725326 0.777573 0.073888
C46   C     C_R   0.307530 0.284227 0.213487 0.076341
C47   C     C_R   0.275073 0.666273 0.154032 0.095607
C48   C     C_R   0.717803 0.326756 0.831857 0.128512
C49   C     C_R   0.192222 0.217117 0.783627 0.103990
C50   C     C_R   0.797141 0.808062 0.193704 0.100621
C51   C     C_R   0.804244 0.210921 0.214851 0.098725
C52   C     C_R   0.214496 0.819945 0.822263 0.108283
C53   C     C_R   0.663302 0.774875 0.705617 -0.269288
C54   C     C_R   0.323574 0.244669 0.292128 -0.210954
C55   C     C_R   0.333207 0.689908 0.268289 -0.219092
C56   C     C_R   0.656433 0.301828 0.719053 -0.274055
C57   C     C_R   0.184493 0.255730 0.711792 -0.228296
C58   C     C_R   0.852655 0.779174 0.302599 -0.279432
C59   C     C_R   0.836739 0.255391 0.298456 -0.277615
C60   C     C_R   0.175719 0.791631 0.717194 -0.174703
H1    H     H_    0.669203 0.818649 0.737687 0.197268
H2    H     H_    0.314594 0.197463 0.272764 0.204286
H3    H     H_    0.363731 0.730156 0.285380 0.212805
H4    H     H_    0.628467 0.261337 0.707726 0.221850
H5    H     H_    0.199519 0.302283 0.736143 0.193904
H6    H     H_    0.873492 0.735741 0.309470 0.219390
H7    H     H_    0.842767 0.300059 0.282047 0.203011
H8    H     H_    0.153031 0.747004 0.700472 0.221131
C61   C     C_R   0.630343 0.769246 0.594540 0.242999
C62   C     C_R   0.350356 0.265001 0.394337 0.229686
C63   C     C_R   0.349584 0.665073 0.358897 0.196832
C64   C     C_R   0.625997 0.330372 0.619808 0.234522
C65   C     C_R   0.156423 0.235448 0.608526 0.233009
C66   C     C_R   0.891498 0.809860 0.404623 0.252131
C67   C     C_R   0.859085 0.244007 0.400334 0.220249
C68   C     C_R   0.167294 0.818709 0.635296 0.218943
C69   C     C_R   0.621649 0.712176 0.551989 0.143265
C70   C     C_R   0.362703 0.326789 0.418982 0.155868
C71   C     C_R   0.307756 0.614290 0.335955 0.171295
C72   C     C_R   0.666122 0.379442 0.634074 0.154366
C73   C     C_R   0.137339 0.174457 0.578229 0.169964
C74   C     C_R   0.861491 0.863959 0.396705 0.143059
C75   C     C_R   0.847258 0.186353 0.418073 0.153342
C76   C     C_R   0.199296 0.876196 0.660074 0.172894
C77   C     C_R   0.167343 0.251138 0.889493 0.230201
C78   C     C_R   0.826668 0.768909 0.098095 0.233857
C79   C     C_R   0.826118 0.225790 0.099367 0.259093
C80   C     C_R   0.176736 0.779478 0.907340 0.255376
C81   C     C_R   0.668684 0.737942 0.892508 0.261895
C82   C     C_R   0.330150 0.252394 0.105850 0.250357
C83   C     C_R   0.303917 0.700223 0.053824 0.276760
C84   C     C_R   0.686860 0.291144 0.927292 0.229577
C85   C     C_R   0.195537 0.254945 0.998019 -0.250125
C86   C     C_R   0.801976 0.749875 0.996627 -0.240687
C87   C     C_R   0.807480 0.255099 0.007870 -0.239422
C88   C     C_R   0.191417 0.743896 0.989942 -0.240331
C89   C     C_R   0.693889 0.755953 0.994856 -0.230062
C90   C     C_R   0.302847 0.246924 0.998691 -0.250452
C91   C     C_R   0.297332 0.743801 0.987430 -0.234016
C92   C     C_R   0.701836 0.256932 0.011181 -0.234381
C93   C     C_R   0.276950 0.260429 0.104951 -0.091822
C94   C     C_R   0.721962 0.735846 0.892169 -0.122745
C95   C     C_R   0.740488 0.292266 0.927911 -0.076430
C96   C     C_R   0.254466 0.702717 0.061425 -0.107189
C97   C     C_R   0.771394 0.777185 0.093396 -0.088740
C98   C     C_R   0.221205 0.241157 0.891031 -0.089382
C99   C     C_R   0.231859 0.782484 0.911137 -0.119375
C100  C     C_R   0.775466 0.229410 0.104425 -0.112510
C101  C     C_1   0.776559 0.749956 0.553248 -0.060122
C102  C     C_1   0.223925 0.249878 0.446736 0.046931
C103  C     C_1   0.223426 0.749892 0.446709 -0.008948
C104  C     C_1   0.775710 0.249854 0.553288 0.005457
C105  C     C_1   0.276936 0.249609 0.553266 0.051415
C106  C     C_1   0.723503 0.750130 0.446769 -0.034300
C107  C     C_1   0.722622 0.249757 0.446653 -0.022171
C108  C     C_1   0.276596 0.750025 0.553304 -0.009719
C109  C     C_1   0.999579 0.526663 0.999369 -0.034685
C110  C     C_1   0.000114 0.473330 0.000000 -0.025466
C111  C     C_1   0.499828 0.026663 0.999978 -0.039909
C112  C     C_1   0.500303 0.973330 0.000526 -0.020822
N1    N     N_R   0.581527 0.705092 0.433567 0.256127
O53   O     O_R   0.603881 0.665125 0.410179 -0.285756
O54   O     O_R   0.519327 0.736213 0.346908 -0.318339
N2    N     N_R   0.389795 0.349432 0.522435 0.286838
O55   O     O_R   0.345149 0.344548 0.531583 -0.337599
O56   O     O_R   0.448527 0.386629 0.591435 -0.216331
N3    N     N_R   0.328017 0.587134 0.431369 0.289155
O57   O     O_R   0.286731 0.598778 0.445049 -0.292238
O58   O     O_R   0.397035 0.563711 0.518935 -0.241015
N4    N     N_R   0.641010 0.403936 0.532724 0.267606
O59   O     O_R   0.625027 0.369038 0.456860 -0.307829
O60   O     O_R   0.632645 0.461063 0.514648 -0.227221
N5    N     N_R   0.115000 0.151262 0.478903 0.287331
O61   O     O_R   0.165046 0.152944 0.479939 -0.346727
O62   O     O_R   0.053613 0.116989 0.402493 -0.232301
N6    N     N_R   0.899071 0.892467 0.503659 0.284988
O63   O     O_R   0.907829 0.863949 0.578597 -0.278816
O64   O     O_R   0.933173 0.943870 0.533058 -0.230171
N7    N     N_R   0.868223 0.172917 0.520568 0.243053
O65   O     O_R   0.820674 0.142502 0.510001 -0.330435
O66   O     O_R   0.938871 0.183587 0.625959 -0.291355
N8    N     N_R   0.190764 0.905046 0.577016 0.281859
O67   O     O_R   0.237917 0.892021 0.574871 -0.325921
O68   O     O_R   0.129123 0.937111 0.492495 -0.220483
N9    N     N_R   0.643929 0.604270 0.583611 0.239721
O69   O     O_R   0.575158 0.579859 0.496060 -0.248349
O70   O     O_R   0.705223 0.579426 0.623805 -0.273641
N10   N     N_R   0.352954 0.430005 0.361504 0.239407
O71   O     O_R   0.397033 0.463407 0.368271 -0.319808
O72   O     O_R   0.321192 0.452776 0.386171 -0.248658
N11   N     N_R   0.205111 0.537672 0.198408 0.235823
O73   O     O_R   0.183097 0.533982 0.244797 -0.301218
O74   O     O_R   0.189254 0.493386 0.134935 -0.425224
N12   N     N_R   0.779259 0.447623 0.763091 0.248217
O75   O     O_R   0.798150 0.439513 0.712932 -0.295313
O76   O     O_R   0.802046 0.496303 0.822614 -0.427614
N13   N     N_R   0.127435 0.073030 0.619782 0.243408
O77   O     O_R   0.072212 0.046460 0.595499 -0.325862
O78   O     O_R   0.161877 0.044610 0.603939 -0.233673
N14   N     N_R   0.751071 0.935100 0.272813 0.242455
O79   O     O_R   0.764783 0.945713 0.360947 -0.246933
O80   O     O_R   0.685348 0.954730 0.169819 -0.399437
N15   N     N_R   0.800196 0.083710 0.350292 0.237946
O81   O     O_R   0.858125 0.053105 0.444685 -0.257842
O82   O     O_R   0.728567 0.067880 0.284085 -0.288452
N16   N     N_R   0.279936 0.961230 0.796092 0.237696
O83   O     O_R   0.313273 0.971026 0.767982 -0.311312
O84   O     O_R   0.280125 0.003710 0.846715 -0.414631
C113  C     C_3   0.719470 0.614011 0.819844 -0.378862
C114  C     C_3   0.659047 0.564894 0.767700 -0.618554
H9    H     H_    0.600757 0.583659 0.714107 0.308897
H10   H     H_    0.653180 0.534262 0.711453 0.286875
H11   H     H_    0.678681 0.537926 0.840416 0.233713
H12   H     H_    0.767617 0.595821 0.839674 0.267957
H13   H     H_    0.746863 0.626553 0.906813 0.206835
C115  C     C_3   0.289791 0.390179 0.141870 -0.411253
C116  C     C_3   0.352285 0.405543 0.153509 -0.615374
H14   H     H_    0.406842 0.421753 0.243671 0.331267
H15   H     H_    0.365684 0.366725 0.132654 0.262095
H16   H     H_    0.330145 0.441300 0.089558 0.230413
H17   H     H_    0.236587 0.373280 0.051226 0.214367
H18   H     H_    0.271070 0.431935 0.147475 0.265106
C117  C     C_3   0.164230 0.592564 0.001374 -0.351345
C118  C     C_3   0.191926 0.552258 0.968481 -0.711100
H19   H     H_    0.220869 0.579089 0.956004 0.276478
H20   H     H_    0.233634 0.518642 0.038363 0.273368
H21   H     H_    0.140840 0.528980 0.883977 0.252338
H22   H     H_    0.119648 0.568970 0.985656 0.231780
H23   H     H_    0.131612 0.630191 0.938064 0.194936
C119  C     C_3   0.814582 0.416768 0.963601 -0.321419
C120  C     C_3   0.832041 0.399502 0.067175 -0.825070
H24   H     H_    0.777390 0.395523 0.038706 0.282641
H25   H     H_    0.867354 0.358463 0.110822 0.261848
H26   H     H_    0.868159 0.435159 0.135229 0.261472
H27   H     H_    0.870759 0.417015 0.995695 0.227677
H28   H     H_    0.793514 0.463270 0.943057 0.237729
C121  C     C_3   0.180332 0.113359 0.830776 -0.416647
C122  C     C_3   0.105732 0.106458 0.793372 -0.598193
H29   H     H_    0.098539 0.144688 0.824118 0.260774
H30   H     H_    0.052868 0.102896 0.695833 0.314579
H31   H     H_    0.109784 0.065690 0.834283 0.239870
H32   H     H_    0.196997 0.069017 0.828608 0.270000
H33   H     H_    0.229475 0.127143 0.925119 0.206998
C123  C     C_3   0.725548 0.903551 0.071955 -0.349602
C124  C     C_3   0.766422 0.911996 0.040879 -0.825974
H34   H     H_    0.830076 0.920395 0.121789 0.302960
H35   H     H_    0.756837 0.873327 0.991908 0.261250
H36   H     H_    0.741006 0.950917 0.981088 0.250014
H37   H     H_    0.666938 0.882947 0.996009 0.226573
H38   H     H_    0.716599 0.949471 0.081362 0.247786
C125  C     C_3   0.765460 0.102162 0.149158 -0.390631
C126  C     C_3   0.828068 0.054632 0.208903 -0.652737
H39   H     H_    0.887397 0.074890 0.272172 0.316231
H40   H     H_    0.828154 0.022221 0.257465 0.270742
H41   H     H_    0.815604 0.030056 0.140770 0.240581
H42   H     H_    0.712434 0.081585 0.114706 0.242542
H43   H     H_    0.747084 0.118665 0.070527 0.215490
C127  C     C_3   0.304384 0.902270 0.974509 -0.347581
C128  C     C_3   0.260913 0.938474 0.984994 -0.684418
H44   H     H_    0.216262 0.967531 0.906581 0.286351
H45   H     H_    0.232019 0.908302 0.994097 0.260742
H46   H     H_    0.303302 0.966811 0.065467 0.241877
H47   H     H_    0.337186 0.866402 0.041911 0.195906
H48   H     H_    0.351157 0.929907 0.001295 0.233463
N17   N     N_R   0.146090 0.277553 0.534555 0.212462
O85   O     O_R   0.093008 0.268864 0.421064 -0.328614
O86   O     O_R   0.183823 0.328104 0.578133 -0.404625
N18   N     N_R   0.967717 0.790814 0.514626 0.272766
O87   O     O_R   0.985641 0.734616 0.534227 -0.352994
O88   O     O_R   0.023646 0.830274 0.579975 -0.307750
N19   N     N_R   0.889995 0.292280 0.480945 0.272295
O89   O     O_R   0.875139 0.295831 0.537176 -0.350199
O90   O     O_R   0.925939 0.336613 0.488493 -0.311991
N20   N     N_R   0.128384 0.786231 0.529917 0.241411
O91   O     O_R   0.117048 0.729094 0.523546 -0.345820
O92   O     O_R   0.102714 0.812913 0.438828 -0.253672
N21   N     N_R   0.608780 0.822119 0.528052 0.243834
O93   O     O_R   0.582788 0.868239 0.535009 -0.336754
O94   O     O_R   0.625910 0.827597 0.474900 -0.370027
N22   N     N_R   0.364403 0.222261 0.471140 0.216552
O95   O     O_R   0.329609 0.170558 0.430094 -0.399494
O96   O     O_R   0.415562 0.232623 0.583656 -0.315969
N23   N     N_R   0.406651 0.693632 0.472768 0.259874
O97   O     O_R   0.463809 0.724167 0.507510 -0.329192
O98   O     O_R   0.395373 0.696850 0.533846 -0.280334
N24   N     N_R   0.551300 0.311739 0.504864 0.267054
O99   O     O_R   0.526340 0.257664 0.488491 -0.321331
O100  O     O_R   0.501472 0.351781 0.425342 -0.330111
N25   N     N_R   0.085857 0.263845 0.779707 0.245434
O101  O     O_R   0.049111 0.303216 0.778396 -0.331903
O102  O     O_R   0.051740 0.244326 0.678611 -0.337354
N26   N     N_R   0.908314 0.779945 0.206760 0.233636
O103  O     O_R   0.957987 0.736373 0.260508 -0.321603
O104  O     O_R   0.933268 0.833381 0.250773 -0.319193
N27   N     N_R   0.897375 0.193231 0.189768 0.241256
O105  O     O_R   0.951435 0.212586 0.298244 -0.328333
O106  O     O_R   0.902371 0.139892 0.167370 -0.339769
N28   N     N_R   0.103078 0.809113 0.813518 0.260335
O107  O     O_R   0.038376 0.778142 0.740517 -0.295507
O108  O     O_R   0.099939 0.866749 0.803772 -0.321291
N29   N     N_R   0.587156 0.727218 0.784765 0.252597
O109  O     O_R   0.537096 0.770144 0.735401 -0.330937
O110  O     O_R   0.562038 0.673212 0.745244 -0.311072
N30   N     N_R   0.410961 0.241593 0.216420 0.226246
O111  O     O_R   0.430515 0.191597 0.271504 -0.342255
O112  O     O_R   0.464872 0.280919 0.262524 -0.283627
N31   N     N_R   0.356678 0.650798 0.106393 0.235510
O113  O     O_R   0.409890 0.639822 0.219176 -0.277036
O114  O     O_R   0.349164 0.614916 0.039636 -0.388222
N32   N     N_R   0.616065 0.324620 0.838492 0.236227
O115  O     O_R   0.551895 0.297648 0.744382 -0.295817
O116  O     O_R   0.617999 0.382412 0.844121 -0.348936

loop_
_geom_bond_atom_site_label_1
_geom_bond_atom_site_label_2
_geom_bond_distance
_ccdc_geom_bond_type
C83   N31   1.441964 S    
O13   C9    1.284565 A    
Zn8   O10   1.958544 S    
Zn6   O42   1.923948 S    
C42   C50   1.427038 A    
C113  H12   1.107888 S    
C118  H20   1.107643 S    
O42   C14   1.283376 A    
C66   N18   1.425956 S    
C101  C106  1.202530 T    
C124  H36   1.111162 S    
C115  C116  1.527139 S    
O46   C2    1.274383 A    
C33   N13   1.436017 S    
O24   C18   1.279318 A    
C50   C97   1.479907 S    
C123  C124  1.532025 S    
C4    C85   1.476001 S    
C128  H45   1.108619 S    
N28   O107  1.301334 A    
Zn16  O28   1.919841 S    
Zn4   O2    1.941487 S    
C67   C75   1.414864 A    
C116  H14   1.107345 S    
Zn4   O40   1.922434 S    
C17   C109  1.423344 S    
N16   O84   1.299210 A    
O33   C23   1.283782 A    
C5    C92   1.474652 S    
O11   C7    1.283936 A    
Zn7   O43   1.922434 S    
C6    C91   1.477113 S    
N9    O70   1.300266 A    
O25   C19   1.276276 A    
C114  H10   1.108773 S    
C90   C98   1.419385 A    
C47   C55   1.395133 A    
C83   C96   1.400903 A    
C41   C49   1.418715 A    
N27   O105  1.299806 A    
Zn14  O50   1.955828 S    
C44   C52   1.420528 A    
N24   O99   1.301303 A    
C48   C95   1.489410 S    
C77   C85   1.409615 A    
C43   C125  1.520488 S    
Zn12  O24   1.919841 S    
C121  H32   1.104294 S    
Zn13  O17   1.927481 S    
C51   C100  1.487643 S    
O16   C12   1.275785 A    
Zn10  O14   1.927481 S    
C52   C99   1.489199 S    
Zn16  O4    1.933080 S    
C59   C67   1.399148 A    
N30   O111  1.300543 A    
C60   C68   1.397362 A    
O30   C22   1.283781 A    
C127  H47   1.109251 S    
N8    O68   1.300394 A    
N18   O87   1.301856 A    
O47   C3    1.271135 A    
Zn7   O3    1.941487 S    
N14   O80   1.298274 A    
O23   C17   1.278547 A    
Zn8   O34   1.919647 S    
Zn6   O4    1.953194 S    
C31   C71   1.420183 A    
C123  H38   1.100957 S    
O29   C21   1.283771 A    
C29   C69   1.416912 A    
C29   C37   1.417374 A    
C119  H28   1.109786 S    
O43   C15   1.275178 A    
C47   C96   1.488948 S    
C120  H25   1.106220 S    
C45   C94   1.483329 S    
C39   C117  1.523503 S    
C30   C38   1.416437 A    
Zn10  O22   1.913117 S    
O45   C1    1.273127 A    
C36   C76   1.418919 A    
C16   C106  1.429692 S    
C42   C123  1.533114 S    
C66   C74   1.402946 A    
C117  H22   1.108064 S    
Zn10  O2    1.946334 S    
C83   C91   1.414941 A    
Zn3   O1    1.941487 S    
C84   C92   1.409530 A    
N31   O113  1.300484 A    
C58   H6    1.084149 S    
C116  H16   1.110322 S    
C37   C113  1.525716 S    
Zn5   O35   1.913694 S    
N4    O60   1.300223 A    
Zn6   O36   1.913694 S    
C33   C41   1.416152 A    
C117  H23   1.108146 S    
N2    O56   1.301257 A    
C118  H19   1.106883 S    
C79   C100  1.398897 A    
C80   C99   1.396834 A    
O22   C18   1.276121 A    
Zn9   O45   1.955828 S    
C37   C45   1.416404 A    
N10   O72   1.300337 A    
Zn11  O47   1.961963 S    
Zn12  O48   1.961963 S    
C79   N27   1.430748 S    
O50   C6    1.275707 A    
C55   C63   1.391093 A    
C24   C28   1.425140 S    
C56   H4    1.084142 S    
C43   C51   1.414133 A    
C53   C61   1.396293 A    
N1    O54   1.301456 A    
Zn1   O37   1.923948 S    
Zn5   O11   1.952255 S    
Zn3   O39   1.922434 S    
Zn6   O12   1.952255 S    
C57   C65   1.400857 A    
N21   O94   1.301397 A    
C11   C101  1.429518 S    
C85   C93   1.413662 A    
C36   N16   1.443785 S    
O32   C22   1.281457 A    
C113  C114  1.533233 S    
N5    O62   1.300670 A    
N22   O96   1.299571 A    
C124  H34   1.109862 S    
C35   N15   1.427743 S    
N20   O92   1.300058 A    
C32   C40   1.431386 A    
C115  H17   1.109284 S    
C126  H39   1.110153 S    
C41   C121  1.524016 S    
C81   C89   1.406070 A    
C36   C44   1.426132 A    
C19   C111  1.423280 S    
C79   C87   1.416683 A    
N3    O57   1.301096 A    
O5    C1    1.281466 A    
N27   O106  1.300851 A    
N26   O104  1.301020 A    
N17   O85   1.300589 A    
Zn4   O6    1.958544 S    
Zn15  O51   1.961963 S    
C34   N14   1.454149 S    
N12   O76   1.298784 A    
C122  H30   1.108919 S    
C118  H21   1.110268 S    
N32   O116  1.300915 A    
N23   O98   1.301121 A    
C88   C96   1.424071 A    
O51   C7    1.267367 A    
C61   N21   1.437546 S    
O8    C4    1.283750 A    
C91   C99   1.420357 A    
C103  C108  1.203828 T    
Zn9   O1    1.946333 S    
C92   C100  1.411959 A    
C76   N8    1.431038 S    
C78   C86   1.405767 A    
C38   C115  1.525441 S    
C122  H31   1.110501 S    
Zn14  O18   1.927481 S    
O52   C8    1.270002 A    
Zn1   O1    1.953194 S    
O40   C12   1.276479 A    
C127  H48   1.108881 S    
C75   N7    1.437889 S    
C119  C120  1.527892 S    
Zn15  O27   1.919841 S    
C68   C76   1.413308 A    
Zn16  O20   1.926725 S    
C62   C70   1.416220 A    
N13   O78   1.299737 A    
O9    C5    1.274174 A    
C21   C25   1.425137 S    
C80   N28   1.435071 S    
C23   C27   1.425125 S    
C63   N23   1.436922 S    
N6    O63   1.300875 A    
N7    O66   1.298761 A    
N28   O108  1.300582 A    
O18   C14   1.284754 A    
C49   C57   1.397437 A    
O6    C2    1.279876 A    
N3    O58   1.301043 A    
C51   C59   1.398655 A    
C46   C93   1.479305 S    
C84   N32   1.433080 S    
C1    C88   1.479810 S    
C74   N6    1.432879 S    
C2    C87   1.477447 S    
Zn13  O25   1.913117 S    
C67   N19   1.439854 S    
C117  C118  1.524040 S    
N9    O69   1.301244 A    
C113  H13   1.108481 S    
Zn15  O3    1.933081 S    
C114  H11   1.110676 S    
C9    C103  1.431841 S    
C10   C104  1.431970 S    
C125  H43   1.108814 S    
C61   C69   1.412211 A    
C59   H7    1.084137 S    
C60   H8    1.083785 S    
N24   O100  1.299614 A    
C35   C43   1.413998 A    
N29   O109  1.301183 A    
N25   O102  1.300047 A    
N14   O79   1.301223 A    
O35   C23   1.281455 A    
C27   C28   1.199948 T    
C15   C105  1.429542 S    
C125  C126  1.531333 S    
C87   C95   1.421203 A    
C35   C75   1.412546 A    
N18   O88   1.298761 A    
C29   N9    1.429555 S    
Zn10  O46   1.955828 S    
C22   C26   1.425124 S    
C81   N29   1.432011 S    
Zn13  O3    1.946333 S    
N7    O65   1.301273 A    
Zn14  O4    1.946334 S    
C54   C62   1.400411 A    
Zn2   O38   1.923948 S    
N11   O73   1.300523 A    
O19   C15   1.277086 A    
Zn1   O31   1.913694 S    
Zn4   O30   1.919647 S    
Zn2   O32   1.913694 S    
C55   H3    1.084534 S    
C77   C98   1.412055 A    
C58   C66   1.382928 A    
C32   C72   1.415713 A    
C12   C102  1.429467 S    
O37   C9    1.283626 A    
N19   O89   1.299468 A    
O7    C3    1.278417 A    
C81   C94   1.402515 A    
O39   C11   1.275362 A    
C65   N17   1.441039 S    
C128  H44   1.110010 S    
C86   C94   1.416731 A    
C32   N12   1.443346 S    
C64   N24   1.432998 S    
C128  H46   1.110326 S    
C8    C89   1.475969 S    
N15   O82   1.300029 A    
C125  H42   1.110672 S    
C34   C74   1.419379 A    
C31   N11   1.443683 S    
C18   C110  1.423186 S    
C116  H15   1.103979 S    
C34   C42   1.432818 A    
N16   O83   1.300898 A    
O12   C8    1.281864 A    
C82   C90   1.401816 A    
N31   O114  1.301625 A    
C68   N20   1.445184 S    
C114  H9    1.107816 S    
Zn11  O1    1.933081 S    
C48   C56   1.396303 A    
C69   N1    1.439860 S    
C56   C64   1.386304 A    
C53   H1    1.084210 S    
C52   C60   1.396922 A    
Zn5   O3    1.953194 S    
C31   C39   1.428229 A    
Zn7   O9    1.958544 S    
Zn5   O41   1.923948 S    
C40   C48   1.432819 A    
C121  H33   1.110185 S    
C111  C112  1.198844 T    
C77   N25   1.448896 S    
Zn8   O44   1.922434 S    
C109  C110  1.198840 T    
C84   C95   1.397819 A    
Zn3   O29   1.919647 S    
C7    C90   1.473972 S    
N1    O53   1.300522 A    
C102  C105  1.203134 T    
N21   O93   1.301413 A    
O38   C10   1.285532 A    
C49   C98   1.482577 S    
N23   O97   1.301679 A    
C123  H37   1.110078 S    
C3    C86   1.471100 S    
C14   C108  1.431751 S    
Zn2   O2    1.953194 S    
N5    O61   1.298659 A    
C40   C119  1.534589 S    
C119  H27   1.110797 S    
C120  H26   1.110822 S    
C64   C72   1.403739 A    
C65   C73   1.415389 A    
Zn13  O49   1.955828 S    
C63   C71   1.408295 A    
Zn8   O4    1.941487 S    
C115  H18   1.101712 S    
C38   C46   1.417398 A    
O21   C17   1.276915 A    
C126  H40   1.108762 S    
C127  C128  1.526041 S    
C89   C97   1.413298 A    
O49   C5    1.277836 A    
C124  H35   1.105560 S    
N8    O67   1.300877 A    
C71   N3    1.432651 S    
N4    O59   1.301490 A    
Zn16  O52   1.961963 S    
N2    O55   1.298748 A    
C121  C122  1.529274 S    
C104  C107  1.204300 T    
Zn9   O13   1.927481 S    
Zn14  O26   1.913117 S    
Zn11  O15   1.926725 S    
Zn12  O16   1.926725 S    
O31   C21   1.281483 A    
C70   N2    1.433613 S    
N25   O101  1.301733 A    
C44   C127  1.524972 S    
C126  H41   1.108326 S    
Zn15  O19   1.926725 S    
N10   O71   1.300559 A    
Zn7   O33   1.919647 S    
C78   N26   1.437560 S    
C30   C70   1.413202 A    
C46   C54   1.395835 A    
N11   O74   1.299398 A    
C20   C112  1.423300 S    
Zn9   O21   1.913117 S    
N13   O77   1.300368 A    
N29   O110  1.299165 A    
C45   C53   1.397333 A    
C25   C26   1.199947 T    
Zn11  O23   1.919841 S    
N19   O90   1.301726 A    
C39   C47   1.421812 A    
O34   C24   1.283738 A    
N6    O64   1.300070 A    
Zn1   O7    1.952255 S    
Zn2   O8    1.952255 S    
O41   C13   1.281704 A    
Zn3   O5    1.958544 S    
O26   C20   1.276413 A    
C13   C107  1.431579 S    
C120  H24   1.108349 S    
C73   N5    1.434844 S    
N22   O95   1.301691 A    
C57   H5    1.083514 S    
C30   N10   1.436546 S    
N20   O91   1.301760 A    
C78   C97   1.402416 A    
C82   C93   1.396415 A    
O15   C11   1.277042 A    
C82   N30   1.435287 S    
O27   C19   1.279213 A    
N26   O103  1.301012 A    
C62   N22   1.441649 S    
N17   O86   1.302226 A    
O44   C16   1.275752 A    
C72   N4    1.436883 S    
O20   C16   1.276669 A    
C33   C73   1.412729 A    
O10   C6    1.277319 A    
O48   C4    1.267894 A    
N12   O75   1.301655 A    
O36   C24   1.281513 A    
C122  H29   1.104842 S    
O14   C10   1.282577 A    
N30   O112  1.299183 A    
C80   C88   1.412226 A    
N32   O115  1.298866 A    
Zn12  O2    1.933080 S    
N15   O81   1.299964 A    
C50   C58   1.391273 A    
O28   C20   1.278936 A    
O17   C13   1.286328 A    
C54   H2    1.083550 S    
