data_mof_unit_24945.cif
_audit_creation_date              2012-12-11T15:29:16-0500
_audit_creation_method            fapswitch 2.2
_symmetry_space_group_name_H-M    P1
_symmetry_Int_Tables_number       1
_space_group_crystal_system       triclinic
_cell_length_a                    13.492869
_cell_length_b                    13.496509
_cell_length_c                    27.559108
_cell_angle_alpha                 90.641463
_cell_angle_beta                  90.092191
_cell_angle_gamma                 60.170337
_cell_volume                      4353.44114035

loop_
_atom_site_label
_atom_site_type_symbol
_atom_type_description
_atom_site_fract_x
_atom_site_fract_y
_atom_site_fract_z
_atom_type_partial_charge
C1    C     C_R   0.620346 0.101179 0.569863 0.545412
C2    C     C_1   0.641079 0.716840 0.659647 -0.060280
C3    C     C_3   0.088697 0.152900 0.739079 -0.093299
C4    C     C_R   0.599031 0.780375 0.568734 0.545367
C5    C     C_3   0.169585 0.060710 0.775443 -0.120510
C6    C     C_1   0.105683 0.194714 0.901969 -0.015737
C7    C     C_1   0.235268 0.134731 0.618233 -0.014596
C8    C     C_3   0.087927 0.244997 0.772512 0.179342
C9    C     C_3   0.166230 0.155004 0.808642 0.069935
C10   C     C_3   0.190511 0.239809 0.746219 -0.089988
C11   C     C_3   0.193573 0.145214 0.713347 0.028909
C12   C     C_1   0.626712 0.738803 0.617163 -0.014923
C13   C     C_3   0.270961 0.147432 0.782659 -0.134828
C14   C     C_3   0.275044 0.052522 0.748760 -0.117965
C15   C     C_1   0.139475 0.171015 0.860692 -0.042442
C16   C     C_R   0.278708 0.121158 0.569688 0.545165
C17   C     C_1   0.211833 0.140638 0.660750 -0.058690
C18   C     C_3   0.626171 0.277155 0.739236 -0.102426
C19   C     C_3   0.554034 0.255706 0.777028 -0.100436
C20   C     C_1   0.691345 0.206343 0.901485 -0.014494
C21   C     C_1   0.635628 0.133299 0.617804 -0.016208
C22   C     C_3   0.734648 0.206625 0.770106 -0.102956
C23   C     C_3   0.694398 0.574779 0.768391 -0.101825
C24   C     C_3   0.662358 0.184902 0.807061 0.052846
C25   C     C_3   0.758937 0.096271 0.742458 -0.100017
C26   C     C_3   0.650723 0.166958 0.712360 0.052826
C27   C     C_3   0.686879 0.074772 0.780130 -0.102236
C28   C     C_R   0.621961 0.100199 0.431589 0.542916
C29   C     C_3   0.578387 0.145244 0.749279 -0.103786
C30   C     C_1   0.674123 0.195370 0.859406 -0.057232
C31   C     C_1   0.643898 0.152213 0.659984 -0.059134
C32   C     C_R   0.640322 0.720802 0.383332 0.024066
C33   C     C_R   0.725414 0.731511 0.358662 -0.126692
C34   C     C_3   0.669691 0.668836 0.806340 0.052521
C35   C     C_R   0.738710 0.712878 0.309097 -0.123906
C36   C     C_R   0.669812 0.679588 0.283769 0.036986
C37   C     C_R   0.593324 0.656927 0.309226 -0.121889
C38   C     C_R   0.577984 0.678275 0.358838 -0.131672
C39   C     C_R   0.577196 0.704392 0.203288 -0.116936
C40   C     C_R   0.601972 0.776551 0.430561 0.541472
C41   C     C_R   0.585817 0.682392 0.153671 -0.123257
C42   C     C_R   0.790788 0.606515 0.158033 -0.125565
C43   C     C_R   0.782549 0.625735 0.207598 -0.122517
C44   C     C_R   0.676357 0.670755 0.230827 0.037493
C45   C     C_3   0.583364 0.658117 0.741696 -0.101469
C46   C     C_R   0.693463 0.628447 0.131285 0.025068
C47   C     C_R   0.227294 0.135617 0.383083 0.024881
C48   C     C_R   0.255711 0.038757 0.354134 -0.126522
C49   C     C_R   0.232892 0.050001 0.304840 -0.123849
C50   C     C_R   0.178590 0.158484 0.283897 0.034304
C51   C     C_R   0.142103 0.256016 0.313585 -0.120016
C52   C     C_R   0.279250 0.119761 0.430926 0.541969
C53   C     C_R   0.167464 0.244572 0.362858 -0.127035
C54   C     C_R   0.172325 0.254310 0.206244 -0.122405
C55   C     C_R   0.144346 0.272892 0.157365 -0.129635
C56   C     C_3   0.651844 0.699399 0.712046 0.052945
C57   C     C_R   0.108383 0.113813 0.156340 -0.140223
C58   C     C_R   0.133557 0.097063 0.205395 -0.129369
C59   C     C_R   0.162016 0.169618 0.231122 0.037559
C60   C     C_R   0.107275 0.205876 0.132668 0.022046
C61   C     C_R   0.643467 0.141214 0.386047 0.023814
C62   C     C_R   0.557732 0.243232 0.365689 -0.125331
C63   C     C_R   0.568116 0.270541 0.318134 -0.121901
C64   C     C_3   0.762590 0.616659 0.738015 -0.105255
C65   C     C_R   0.664535 0.196542 0.290618 0.035902
C66   C     C_R   0.752965 0.098049 0.311905 -0.119762
C67   C     C_3   0.558660 0.751887 0.780368 -0.101981
C68   C     C_R   0.742789 0.070863 0.359315 -0.127745
C69   C     C_R   0.777492 0.196986 0.220540 -0.126142
C70   C     C_R   0.791442 0.201302 0.171164 -0.114943
C71   C     C_R   0.592955 0.256183 0.157748 -0.133012
C72   C     C_R   0.579225 0.249645 0.207686 -0.115397
C73   C     C_R   0.672467 0.217787 0.239135 0.031226
C74   C     C_R   0.700475 0.228219 0.139429 0.038694
C75   C     C_R   0.051147 0.234034 0.948365 0.547699
C76   C     C_3   0.738001 0.710438 0.776702 -0.104361
C77   C     C_R   0.711646 0.562525 0.946636 0.547849
C78   C     C_3   0.626755 0.793908 0.749827 -0.101089
C79   C     C_R   0.722596 0.224013 0.949150 0.546882
C80   C     C_R   0.048617 0.243432 0.086124 0.537320
C81   C     C_R   0.709413 0.572239 0.084266 0.540837
C82   C     C_R   0.721734 0.234435 0.088208 0.535048
C83   C     C_1   0.694386 0.612805 0.899691 -0.017749
C84   C     C_3   0.001263 0.435274 0.809792 -0.301877
C85   C     C_1   0.681920 0.643721 0.858217 -0.064321
Cr1   Cr    Cr6+3 0.417550 0.169090 0.500530 1.020844
Cr2   Cr    Cr6+3 0.669180 0.913420 0.499920 1.019219
Cr3   Cr    Cr6+3 0.413260 0.917540 0.499520 1.020814
Cr4   Cr    Cr6+3 0.909770 0.175810 0.018240 1.020246
Cr5   Cr    Cr6+3 0.913300 0.427650 0.016090 1.016804
Cr6   Cr    Cr6+3 0.657770 0.431010 0.016900 1.026290
H1    H     H_    0.801374 0.732074 0.791719 0.097249
H2    H     H_    0.775112 0.763925 0.376684 0.130999
H3    H     H_    0.845748 0.562459 0.719508 0.103158
H4    H     H_    0.493746 0.743409 0.220368 0.101641
H5    H     H_    0.509636 0.701049 0.133477 0.125772
H6    H     H_    0.798275 0.731025 0.290369 0.101464
H7    H     H_    0.860369 0.598787 0.227959 0.099767
H8    H     H_    0.875128 0.564663 0.141671 0.134068
H9    H     H_    0.542459 0.626834 0.290534 0.104403
H10   H     H_    0.512851 0.668161 0.377342 0.123851
H11   H     H_    0.303380 0.953430 0.368715 0.135325
H12   H     H_    0.346000 0.144106 0.800857 0.102265
H13   H     H_    0.198478 0.308554 0.224890 0.098648
H14   H     H_    0.145870 0.343424 0.139713 0.123856
H15   H     H_    0.598731 0.884347 0.741445 0.100177
H16   H     H_    0.262959 0.973282 0.282866 0.101112
H17   H     H_    0.124858 0.031066 0.223559 0.097682
H18   H     H_    0.081448 0.059827 0.137996 0.124763
H19   H     H_    0.096693 0.340933 0.298519 0.102665
H20   H     H_    0.144585 0.320266 0.384672 0.122477
H21   H     H_    0.480272 0.299286 0.385642 0.127612
H22   H     H_    0.849511 0.175529 0.244167 0.111364
H23   H     H_    0.197310 0.314244 0.733900 0.101746
H24   H     H_    0.873559 0.184774 0.157639 0.129993
H25   H     H_    0.499952 0.347809 0.302517 0.100755
H26   H     H_    0.497356 0.265788 0.221501 0.107179
H27   H     H_    0.475179 0.807456 0.798443 0.103726
H28   H     H_    0.521451 0.279915 0.133566 0.106210
H29   H     H_    0.827819 0.039016 0.291146 0.103067
H30   H     H_    0.809948 0.991606 0.373996 0.126040
H31   H     H_    0.520097 0.636317 0.726686 0.103416
H32   H     H_    0.721163 0.484618 0.776730 0.110177
H33   H     H_    0.162206 0.986644 0.787808 0.106314
H34   H     H_    0.469718 0.320824 0.791849 0.102891
H35   H     H_    0.012726 0.157532 0.721196 0.097147
H36   H     H_    0.353224 0.972258 0.737952 0.111714
H37   H     H_    0.926658 0.380118 0.757900 0.236749
H38   H     H_    0.919207 0.501695 0.825722 0.159465
H39   H     H_    0.031488 0.475912 0.783269 0.121872
H40   H     H_    0.064169 0.398056 0.839627 0.166023
H41   H     H_    0.601737 0.360071 0.721939 0.101939
H42   H     H_    0.513865 0.119937 0.739994 0.101208
H43   H     H_    0.711334 0.991799 0.797382 0.102272
H44   H     H_    0.843299 0.031084 0.727696 0.105084
H45   H     H_    0.799255 0.231933 0.779261 0.113362
N1    N     N_2   0.984542 0.348821 0.785847 -0.522729
O1    O     O_R   0.301780 0.195490 0.553940 -0.507939
O2    O     O_R   0.636050 0.541380 0.962520 -0.506870
O3    O     O_R   0.666480 0.323610 0.968170 -0.494554
O4    O     O_R   0.522450 0.158840 0.550250 -0.495175
O5    O     O_R   0.817280 0.156800 0.072180 -0.520750
O6    O     O_R   0.005110 0.187160 0.067410 -0.510274
O7    O     O_R   0.026450 0.340060 0.069950 -0.522858
O8    O     O_R   0.808300 0.527240 0.065170 -0.507677
O9    O     O_R   0.634070 0.548770 0.069460 -0.515231
O10   O     O_R   0.664650 0.330470 0.067300 -0.496072
O11   O     O_3   0.826940 0.344820 0.017080 -0.245510
O12   O     O_R   0.658840 0.818280 0.449970 -0.505865
O13   O     O_R   0.694460 0.003360 0.553820 -0.506594
O14   O     O_R   0.657750 0.819520 0.549120 -0.494373
O15   O     O_R   0.501990 0.803120 0.552700 -0.507807
O16   O     O_R   0.318230 0.023430 0.549370 -0.493917
O17   O     O_R   0.302950 0.194150 0.446980 -0.517530
O18   O     O_R   0.523540 0.157600 0.451100 -0.503576
O19   O     O_R   0.695630 0.002030 0.446860 -0.523011
O20   O     O_R   0.503160 0.801780 0.445740 -0.523029
O21   O     O_R   0.319320 0.022190 0.450230 -0.505245
O22   O     O_3   0.499990 0.000010 0.499990 -0.245077
O23   O     O_R   0.819250 0.149410 0.965240 -0.505109
O24   O     O_R   0.006940 0.180310 0.968270 -0.492203
O25   O     O_R   0.028420 0.332670 0.963010 -0.510127
O26   O     O_R   0.810130 0.520390 0.966030 -0.495248

loop_
_geom_bond_atom_site_label_1
_geom_bond_atom_site_label_2
_ccdc_geom_bond_type
C77   O26   A    
Cr4   O11   S    
C29   H42   S    
C63   C65   A    
C1    C21   S    
C23   C45   S    
C27   C29   S    
C18   H41   S    
C35   C36   A    
C18   C26   S    
C43   H7    S    
Cr5   O7    S    
C82   O5    A    
C2    C12   T    
Cr6   O10   S    
C82   O10   A    
C3    H35   S    
C56   C78   S    
C6    C75   S    
C39   C41   A    
C20   C30   T    
C21   C31   T    
C5    H33   S    
C69   H22   S    
C62   C63   A    
Cr5   O25   S    
C75   O25   A    
C50   C59   S    
C54   H13   S    
C36   C37   A    
C76   C78   S    
Cr5   O8    S    
C35   H6    S    
C11   C14   S    
C41   H5    S    
C66   C68   A    
C77   C83   S    
C52   O17   A    
Cr4   O5    S    
C84   H38   S    
C65   C73   S    
C18   C19   S    
C42   C46   A    
Cr3   O22   S    
C49   C50   A    
C9    C13   S    
Cr5   O11   S    
C6    C15   T    
C57   H18   S    
C45   C56   S    
Cr2   O22   S    
C8    C9    S    
C7    C17   T    
Cr2   O13   S    
C72   H26   S    
C70   C74   A    
C28   O18   A    
C41   C46   A    
C24   C27   S    
C69   C73   A    
Cr3   O21   S    
C13   H12   S    
Cr1   O22   S    
C10   H23   S    
C47   C53   A    
C28   C61   S    
C80   O6    A    
C79   O3    A    
C26   C31   S    
Cr2   O14   S    
C13   C14   S    
Cr3   O15   S    
C61   C62   A    
C67   C78   S    
C74   C82   S    
Cr4   O24   S    
Cr6   O11   S    
C54   C59   A    
C52   O21   A    
C4    O15   A    
C16   O1    A    
C40   O20   A    
C3    C11   S    
C49   H16   S    
C3    C8    S    
C79   O23   A    
C57   C60   A    
C23   H32   S    
C80   O7    A    
C25   C26   S    
Cr4   O6    S    
C22   C25   S    
C14   H36   S    
C22   H45   S    
C8    N1    S    
C51   C53   A    
C34   C85   S    
C34   C67   S    
C43   C44   A    
C5    C9    S    
C37   C38   A    
C46   C81   S    
C33   H2    S    
C47   C48   A    
C23   C34   S    
C48   H11   S    
C56   C64   S    
C50   C51   A    
C64   C76   S    
C1    O13   A    
Cr1   O18   S    
Cr3   O20   S    
C39   H4    S    
C5    C14   S    
C39   C44   A    
C76   H1    S    
H37   N1    S    
Cr6   O2    S    
C63   H25   S    
C23   C64   S    
C83   C85   T    
C55   H14   S    
C84   N1    S    
C65   C66   A    
C51   H19   S    
C32   C38   A    
C45   H31   S    
C22   C24   S    
C45   C67   S    
C36   C44   S    
C4    C12   S    
C42   C43   A    
C19   C29   S    
Cr4   O23   S    
C75   O24   A    
C4    O14   A    
C54   C55   A    
C60   C80   S    
C20   C79   S    
C18   C22   S    
C27   H43   S    
C7    C16   S    
C77   O2    A    
C72   C73   A    
C3    C5    S    
C10   C13   S    
C11   C17   S    
C68   H30   S    
C71   C74   A    
C47   C52   S    
C70   H24   S    
C25   C27   S    
C84   H40   S    
C81   O8    A    
C71   H28   S    
Cr5   O26   S    
C78   H15   S    
C32   C33   A    
C19   C24   S    
C58   C59   A    
C64   H3    S    
C71   C72   A    
C2    C56   S    
C42   H8    S    
Cr3   O16   S    
C61   C68   A    
C53   H20   S    
C57   C58   A    
C48   C49   A    
C84   H39   S    
C33   C35   A    
C19   H34   S    
C40   O12   A    
C58   H17   S    
C32   C40   S    
Cr1   O17   S    
C69   C70   A    
C25   H44   S    
C67   H27   S    
C24   C30   S    
C1    O4    A    
C10   C11   S    
Cr1   O1    S    
Cr6   O3    S    
C38   H10   S    
C62   H21   S    
Cr1   O4    S    
C26   C29   S    
C8    C10   S    
C81   O9    A    
Cr2   O12   S    
C16   O16   A    
C28   O19   A    
Cr2   O19   S    
C66   H29   S    
C55   C60   A    
C37   H9    S    
Cr6   O9    S    
C9    C15   S    
C34   C76   S    
