data_mof_unit_18836.cif
_audit_creation_date              2012-10-26T19:15:22-0400
_audit_creation_method            fapswitch 2.2
_symmetry_space_group_name_H-M    P1
_symmetry_Int_Tables_number       1
_space_group_crystal_system       triclinic
_cell_length_a                    15.972235
_cell_length_b                    10.813702
_cell_length_c                    9.548822
_cell_angle_alpha                 91.036421
_cell_angle_beta                  90.122879
_cell_angle_gamma                 90.909153
_cell_volume                      1648.78059839

loop_
_atom_site_label
_atom_site_type_symbol
_atom_type_description
_atom_site_fract_x
_atom_site_fract_y
_atom_site_fract_z
_atom_type_partial_charge
C1    C     C_R   0.491407 0.262714 0.498218 0.542260
C2    C     C_R   0.463414 0.929817 0.374994 -0.149557
C3    C     C_R   0.482174 0.870564 0.501121 -0.023187
C4    C     C_R   0.341288 0.499542 0.499828 0.549290
C5    C     C_R   0.476691 0.940010 0.624990 0.028610
C6    C     C_3   0.526373 0.942613 0.757743 -0.129960
C7    C     C_3   0.525484 0.083318 0.751908 -0.255419
C8    C     C_R   0.570373 0.536614 0.074972 0.158540
C9    C     C_R   0.433825 0.453613 0.073048 -0.011888
C10   C     C_R   0.433683 0.454020 0.924469 -0.000832
C11   C     C_R   0.570965 0.531926 0.927078 0.146523
C12   C     C_R   0.042878 0.465295 0.625917 0.005880
C13   C     C_3   0.618635 0.649810 0.915517 -0.137821
C14   C     C_3   0.612086 0.663531 0.075703 -0.147931
C15   C     C_R   0.496666 0.737943 0.500960 0.531232
C16   C     C_R   0.658637 0.498060 0.500099 0.547830
C17   C     C_R   0.955295 0.464366 0.624234 -0.098067
C18   C     C_R   0.912266 0.490774 0.500839 0.022793
C19   C     C_R   0.956289 0.518081 0.378564 -0.118413
C20   C     C_R   0.043577 0.519123 0.379441 -0.116145
C21   C     C_R   0.087138 0.493049 0.502590 0.022813
C22   C     C_1   0.085959 0.438058 0.754659 0.192731
C23   C     C_1   0.822770 0.491881 0.500314 -0.046495
C24   C     C_1   0.702563 0.627471 0.857194 0.188202
C25   C     C_3   0.696548 0.677927 0.156614 -0.249670
C26   C     C_3   0.690664 0.770615 0.280144 -0.299704
C27   C     C_3   0.777034 0.805697 0.338641 -0.453425
C28   C     C_3   0.420465 0.112482 0.235413 -0.249534
C29   C     C_3   0.334425 0.057057 0.194286 -0.303046
C30   C     C_3   0.301680 0.113747 0.059816 -0.434261
C31   C     C_1   0.476480 0.893971 0.874524 0.186150
C32   C     C_1   0.176963 0.495696 0.500488 -0.046572
C33   C     C_1   0.252098 0.497723 0.499676 -0.017929
C34   C     C_1   0.747704 0.494357 0.500107 -0.013006
C35   C     C_R   0.474993 0.066645 0.621143 -0.007911
C36   C     C_R   0.472930 0.129805 0.495167 0.006467
C37   C     C_R   0.452758 0.058909 0.371368 -0.025809
Cu1   Cu    Cu3+1 0.500000 0.499980 0.640670 0.959646
Cu2   Cu    Cu3+1 0.500000 0.500020 0.359330 0.928370
H1    H     H_    0.588419 0.124695 0.731888 0.136905
H2    H     H_    0.589811 0.903058 0.746375 0.101587
H3    H     H_    0.489496 0.129742 0.837005 0.136609
H4    H     H_    0.811257 0.721969 0.369212 0.164021
H5    H     H_    0.814246 0.856048 0.259066 0.157128
H6    H     H_    0.770046 0.866833 0.432445 0.151710
H7    H     H_    0.660002 0.856606 0.245801 0.157741
H8    H     H_    0.652962 0.730612 0.365318 0.200219
H9    H     H_    0.718489 0.587029 0.193171 0.169491
H10   H     H_    0.745817 0.715727 0.087038 0.163333
H11   H     H_    0.292975 0.214812 0.074869 0.144542
H12   H     H_    0.379609 0.417737 0.127307 0.114525
H13   H     H_    0.346143 0.097611 0.972348 0.167936
H14   H     H_    0.240342 0.070408 0.031406 0.163956
H15   H     H_    0.338117 0.955473 0.177562 0.193190
H16   H     H_    0.288960 0.075066 0.280016 0.167845
H17   H     H_    0.411069 0.212955 0.242567 0.179078
H18   H     H_    0.466479 0.093946 0.150677 0.152465
H19   H     H_    0.379366 0.418297 0.868421 0.130857
H20   H     H_    0.584118 0.718954 0.856725 0.133938
H21   H     H_    0.566353 0.736018 0.105340 0.160006
H22   H     H_    0.920670 0.443579 0.718783 0.134953
H23   H     H_    0.923150 0.538967 0.282909 0.114205
H24   H     H_    0.077154 0.540603 0.284193 0.128573
H25   H     H_    0.457717 0.876063 0.278539 0.156284
N1    N     N_R   0.500520 0.500930 0.147930 -0.233160
N2    N     N_R   0.500520 0.500890 0.852020 -0.239109
N3    N     N_1   0.120521 0.416251 0.857746 -0.315594
N4    N     N_1   0.768697 0.610437 0.812261 -0.321773
N5    N     N_1   0.437122 0.855150 0.965815 -0.341400
O1    O     O_R   0.500000 0.319640 0.618810 -0.501769
O2    O     O_R   0.500010 0.319680 0.381230 -0.514410
O3    O     O_R   0.380300 0.499950 0.618760 -0.495606
O4    O     O_R   0.380310 0.499990 0.381180 -0.506502
O5    O     O_R   0.499990 0.680320 0.618770 -0.492484
O6    O     O_R   0.500000 0.680360 0.381190 -0.512019
O7    O     O_R   0.619690 0.500010 0.618820 -0.481578
O8    O     O_R   0.619700 0.500050 0.381240 -0.506450

loop_
_geom_bond_atom_site_label_1
_geom_bond_atom_site_label_2
_ccdc_geom_bond_type
C15   O6    A    
Cu1   O1    S    
C19   C20   A    
C9    H12   S    
C28   H17   S    
Cu1   O7    S    
C28   H18   S    
C26   C27   S    
C1    O2    A    
Cu2   O8    S    
C36   C37   A    
C10   H19   S    
C18   C19   A    
C5    C6    S    
C29   H15   S    
C19   H23   S    
C12   C22   S    
C16   O8    A    
C7    H3    S    
C17   H22   S    
C27   H5    S    
Cu1   N2    S    
C6    H2    S    
C12   C17   A    
C7    H1    S    
Cu2   O6    S    
C9    C10   A    
C11   N2    A    
C16   C34   S    
C27   H6    S    
C6    C31   S    
C30   H11   S    
C8    N1    A    
C13   C14   S    
Cu2   N1    S    
C30   H14   S    
C2    H25   S    
C9    N1    A    
C10   N2    A    
C21   C32   S    
Cu1   O3    S    
C18   C23   S    
C24   N4    T    
C29   H16   S    
C25   C26   S    
C12   C21   A    
C13   C24   S    
C35   C36   A    
C29   C30   S    
C23   C34   T    
C17   C18   A    
C25   H9    S    
C4    O4    A    
C26   H8    S    
C4    O3    A    
C3    C15   S    
Cu1   O5    S    
C30   H13   S    
C4    C33   S    
C28   C29   S    
C8    C14   S    
C16   O7    A    
C7    C35   S    
C3    C5    A    
C6    C7    S    
C13   H20   S    
C14   H21   S    
C1    O1    A    
C32   C33   T    
C20   H24   S    
C2    C3    A    
C11   C13   S    
C2    C37   A    
Cu1   Cu2   S    
C28   C37   S    
C8    C11   A    
C5    C35   A    
Cu2   O4    S    
C14   C25   S    
C25   H10   S    
C22   N3    T    
C26   H7    S    
C27   H4    S    
C31   N5    T    
C15   O5    A    
C20   C21   A    
Cu2   O2    S    
C1    C36   S    
