data_mof_unit_23559.cif
_audit_creation_date              2012-12-10T19:58:46-0500
_audit_creation_method            fapswitch 2.2
_symmetry_space_group_name_H-M    P1
_symmetry_Int_Tables_number       1
_space_group_crystal_system       triclinic
_cell_length_a                    18.772182
_cell_length_b                    18.772491
_cell_length_c                    22.1986
_cell_angle_alpha                 89.993114
_cell_angle_beta                  90.036749
_cell_angle_gamma                 90.01059
_cell_volume                      7822.79855177

loop_
_atom_site_label
_atom_site_type_symbol
_atom_type_description
_atom_site_fract_x
_atom_site_fract_y
_atom_site_fract_z
_atom_type_partial_charge
C1    C     C_R   0.499996 0.999997 0.340439 0.830467
C2    C     C_R   0.862979 0.642851 0.497649 0.846970
C3    C     C_3   0.402071 0.702443 0.533668 -0.887397
C4    C     C_3   0.308024 0.407917 0.475386 -0.453404
C5    C     C_3   0.296950 0.395768 0.543818 -0.888263
C6    C     C_3   0.592294 0.308609 0.479083 -0.460919
C7    C     C_3   0.607283 0.298731 0.547253 -0.888868
C8    C     C_3   0.296136 0.583693 0.442148 -0.476157
C9    C     C_3   0.297503 0.575458 0.511483 -0.841969
C10   C     C_3   0.583625 0.704279 0.437011 -0.401871
C11   C     C_3   0.572292 0.706548 0.505701 -0.864117
C12   C     C_3   0.701423 0.419328 0.449388 -0.419891
C13   C     C_R   0.356936 0.863252 0.497483 0.850638
C14   C     C_3   0.708042 0.426727 0.518355 -0.850412
C15   C     C_3   0.418790 0.297829 0.450260 -0.423026
C16   C     C_3   0.424773 0.292374 0.519472 -0.849253
C17   C     C_3   0.191552 0.091767 0.984761 -0.463728
C18   C     C_3   0.200742 0.109289 0.052508 -0.892083
C19   C     C_3   0.908188 0.191686 0.984164 -0.462670
C20   C     C_3   0.891102 0.200905 0.051981 -0.892540
C21   C     C_3   0.808320 0.908355 0.984061 -0.462543
C22   C     C_3   0.798990 0.891225 0.051866 -0.891850
C23   C     C_3   0.091576 0.808465 0.984743 -0.466118
C24   C     C_R   0.137060 0.357046 0.497450 0.839949
C25   C     C_3   0.109300 0.798767 0.052406 -0.887273
C26   C     C_3   0.799588 0.079718 0.956340 -0.416901
C27   C     C_3   0.788680 0.074711 0.025123 -0.855035
C28   C     C_3   0.079490 0.200270 0.956701 -0.416951
C29   C     C_3   0.074623 0.211574 0.025444 -0.854954
C30   C     C_3   0.200187 0.920705 0.957350 -0.419993
C31   C     C_3   0.211866 0.925009 0.026082 -0.850568
C32   C     C_3   0.920332 0.799711 0.956706 -0.417621
C33   C     C_3   0.925076 0.788599 0.025494 -0.854035
C34   C     C_3   0.696707 0.580138 0.341650 0.150193
C35   C     C_R   0.357474 0.137805 0.498445 0.823976
C36   C     C_3   0.715429 0.582491 0.275297 -0.796598
C37   C     C_3   0.405643 0.709735 0.329432 0.101570
C38   C     C_3   0.456101 0.758631 0.295517 -0.810715
C39   C     C_3   0.313017 0.417128 0.343253 0.159530
C40   C     C_3   0.295620 0.417671 0.276527 -0.822354
C41   C     C_3   0.577718 0.311777 0.346091 0.153162
C42   C     C_3   0.582409 0.298154 0.278782 -0.790114
C43   C     C_3   0.255078 0.602401 0.320316 0.087300
C44   C     C_3   0.231576 0.620694 0.256717 -0.830562
C45   C     C_3   0.654716 0.803929 0.336841 0.119417
C46   C     C_R   0.137989 0.642288 0.498892 0.848548
C47   C     C_3   0.651262 0.812509 0.268738 -0.858945
C48   C     C_3   0.796335 0.366577 0.341434 0.137979
C49   C     C_3   0.802353 0.367825 0.273098 -0.866569
C50   C     C_3   0.369945 0.200061 0.343049 0.146240
C51   C     C_3   0.367828 0.191252 0.274944 -0.859012
C52   C     C_3   0.181625 0.074512 0.851222 0.155293
C53   C     C_3   0.192104 0.079317 0.783426 -0.786019
C54   C     C_3   0.924870 0.182406 0.850711 0.155332
C55   C     C_3   0.919999 0.193153 0.782954 -0.786261
C56   C     C_3   0.817920 0.925085 0.850632 0.155143
C57   C     C_R   0.642669 0.862148 0.498295 0.819350
C58   C     C_3   0.807358 0.920222 0.782838 -0.784924
C59   C     C_3   0.074284 0.819053 0.851204 0.154884
C60   C     C_3   0.079151 0.808928 0.783369 -0.784469
C61   C     C_3   0.708192 0.126067 0.844186 0.145986
C62   C     C_3   0.703494 0.125486 0.775772 -0.871632
C63   C     C_3   0.125670 0.291143 0.844232 0.145846
C64   C     C_3   0.124760 0.295506 0.775805 -0.872383
C65   C     C_3   0.290749 0.875343 0.844482 0.146839
C66   C     C_3   0.294961 0.876707 0.776073 -0.874821
C67   C     C_3   0.874477 0.708543 0.844295 0.146546
C68   C     C_R   0.862118 0.357468 0.498365 0.822373
C69   C     C_3   0.875428 0.703966 0.775892 -0.873234
C70   C     C_3   0.774848 0.880358 0.579706 -0.351840
C71   C     C_3   0.730746 0.860348 0.635252 -0.787714
C72   C     C_3   0.120041 0.773730 0.581824 -0.347110
C73   C     C_3   0.139455 0.728605 0.636954 -0.791712
C74   C     C_3   0.223835 0.118190 0.578072 -0.349426
C75   C     C_3   0.266352 0.137919 0.634604 -0.789481
C76   C     C_3   0.882097 0.223443 0.577227 -0.349869
C77   C     C_3   0.862753 0.265554 0.634042 -0.789110
C78   C     C_3   0.210986 0.900324 0.553898 -0.352885
C79   C     C_R   0.142862 0.637133 0.997312 0.845006
C80   C     C_3   0.234037 0.907981 0.619961 -0.792455
C81   C     C_3   0.901199 0.789259 0.552250 -0.357419
C82   C     C_3   0.908226 0.766713 0.618509 -0.789010
C83   C     C_3   0.789895 0.098043 0.549460 -0.357909
C84   C     C_3   0.768930 0.090440 0.616053 -0.786391
C85   C     C_3   0.098300 0.210183 0.550033 -0.357806
C86   C     C_3   0.090805 0.231633 0.616512 -0.786148
C87   C     C_3   0.278133 0.383340 0.074360 -0.351958
C88   C     C_3   0.236687 0.364823 0.131713 -0.789096
C89   C     C_3   0.616877 0.277730 0.075207 -0.349756
C90   C     C_R   0.362734 0.142704 0.997607 0.845954
C91   C     C_3   0.635742 0.236232 0.132484 -0.789228
C92   C     C_3   0.722534 0.617097 0.074974 -0.349987
C93   C     C_3   0.764943 0.636358 0.131630 -0.789787
C94   C     C_3   0.386618 0.718237 0.070237 -0.346082
C95   C     C_3   0.367985 0.752869 0.130713 -0.808989
C96   C     C_3   0.709641 0.402593 0.047445 -0.357448
C97   C     C_3   0.729665 0.410572 0.114231 -0.786975
C98   C     C_3   0.402788 0.290405 0.047005 -0.357866
C99   C     C_3   0.410668 0.270709 0.113867 -0.785563
C100  C     C_3   0.292139 0.594926 0.041209 -0.354766
C101  C     C_R   0.857271 0.362750 0.997624 0.845503
C102  C     C_3   0.276184 0.585734 0.108472 -0.806408
C103  C     C_3   0.597666 0.709696 0.047346 -0.358440
C104  C     C_3   0.590122 0.730356 0.114014 -0.784062
C105  C     C_R   0.999981 0.499965 0.340438 0.833592
C106  C     C_R   0.637260 0.857266 0.997593 0.845551
C107  C     C_R   0.857392 0.637746 0.998149 0.823878
C108  C     C_R   0.637770 0.142593 0.998251 0.823372
C109  C     C_R   0.142630 0.362231 0.998184 0.822848
C110  C     C_R   0.362402 0.857239 0.997987 0.824447
C111  C     C_R   0.710826 0.761856 0.449747 -0.133527
C112  C     C_R   0.240045 0.708436 0.454051 0.006319
C113  C     C_R   0.291451 0.239049 0.451224 -0.108182
C114  C     C_R   0.760000 0.291796 0.451268 -0.114908
C115  C     C_R   0.292241 0.758475 0.455384 0.030050
C116  C     C_R   0.000001 0.500003 0.840439 0.828137
C117  C     C_R   0.759500 0.707703 0.453409 0.044642
C118  C     C_R   0.706138 0.242661 0.454498 0.043851
C119  C     C_R   0.242109 0.292787 0.453730 0.043519
C120  C     C_R   0.206806 0.258674 0.952140 -0.107974
C121  C     C_R   0.741054 0.207003 0.952167 -0.108427
C122  C     C_R   0.793089 0.741192 0.951969 -0.108003
C123  C     C_R   0.258493 0.793545 0.951984 -0.108413
C124  C     C_R   0.794850 0.256267 0.955304 0.043391
C125  C     C_R   0.256069 0.204880 0.955316 0.043559
C126  C     C_R   0.204688 0.744317 0.955103 0.043893
C127  C     C_R   0.499986 0.000001 0.840439 0.828354
C128  C     C_R   0.743795 0.794978 0.955100 0.043678
C129  C     C_R   0.707345 0.815186 0.493525 -0.185242
C130  C     C_R   0.185258 0.706321 0.495730 -0.189467
C131  C     C_R   0.293013 0.184670 0.493758 -0.188782
C132  C     C_R   0.814934 0.293161 0.493546 -0.187745
C133  C     C_R   0.292526 0.816761 0.493159 -0.178306
C134  C     C_R   0.817133 0.707551 0.492103 -0.173938
C135  C     C_R   0.707239 0.183489 0.491755 -0.178301
C136  C     C_R   0.183371 0.292422 0.491588 -0.178650
C137  C     C_R   0.206806 0.314829 0.993118 -0.187205
C138  C     C_R   0.500014 0.000001 0.659572 0.830406
C139  C     C_R   0.685094 0.206791 0.993324 -0.187070
C140  C     C_R   0.793208 0.685073 0.993004 -0.187245
C141  C     C_R   0.315468 0.792786 0.992214 -0.187368
C142  C     C_R   0.792921 0.316350 0.991491 -0.181545
C143  C     C_R   0.316334 0.206983 0.991343 -0.181781
C144  C     C_R   0.207344 0.683349 0.990188 -0.182475
C145  C     C_R   0.683693 0.792947 0.991285 -0.181490
C146  C     C_R   0.770276 0.822721 0.531146 0.122808
C147  C     C_R   0.177767 0.769258 0.533315 0.107585
C148  C     C_R   0.229289 0.176478 0.530103 0.121726
C149  C     C_R   0.000000 0.499998 0.659572 0.829235
C150  C     C_R   0.823467 0.229170 0.529594 0.121287
C151  C     C_R   0.228418 0.827145 0.527653 0.111328
C152  C     C_R   0.828036 0.772108 0.525703 0.110706
C153  C     C_R   0.772621 0.171670 0.523949 0.110316
C154  C     C_R   0.171813 0.227356 0.524359 0.111154
C155  C     C_R   0.271631 0.323991 0.027818 0.119564
C156  C     C_R   0.676022 0.271425 0.028297 0.119694
C157  C     C_R   0.728558 0.675939 0.027836 0.119811
C158  C     C_R   0.325796 0.726802 0.025069 0.122577
C159  C     C_R   0.727013 0.328740 0.022639 0.110404
C160  C     C_R   0.000011 0.499981 0.159571 0.831513
C161  C     C_R   0.328898 0.273013 0.022219 0.110572
C162  C     C_R   0.274403 0.669740 0.019032 0.110867
C163  C     C_R   0.671317 0.726934 0.022256 0.109761
C164  C     C_1   0.999964 0.499943 0.276853 -0.156993
C165  C     C_1   0.500002 0.999981 0.276857 -0.161799
C166  C     C_1   0.499980 0.000002 0.776855 -0.162683
C167  C     C_1   0.000002 0.500004 0.776855 -0.162776
C168  C     C_1   0.500019 0.000002 0.723161 -0.170781
C169  C     C_1   0.000002 0.499998 0.723161 -0.170204
C170  C     C_1   0.000005 0.499949 0.223159 -0.167423
C171  C     C_R   0.500002 0.999994 0.159574 0.830718
C172  C     C_1   0.500004 0.999977 0.223164 -0.169235
C173  C     C_3   0.712298 0.652856 0.426740 0.524730
C174  C     C_3   0.344415 0.714215 0.422468 0.496350
C175  C     C_3   0.291156 0.347617 0.429057 0.523902
C176  C     C_3   0.650470 0.291451 0.430963 0.525323
C177  C     C_3   0.282302 0.659358 0.415047 0.484310
C178  C     C_3   0.660082 0.715560 0.414042 0.495656
C179  C     C_3   0.712292 0.345362 0.420498 0.492919
C180  C     C_3   0.345438 0.285754 0.420344 0.488290
C181  C     C_3   0.206102 0.148535 0.934784 0.522151
C182  C     C_R   0.642802 0.137170 0.497611 0.844507
C183  C     C_3   0.851116 0.206444 0.934455 0.522358
C184  C     C_3   0.793690 0.851280 0.934363 0.522310
C185  C     C_3   0.148301 0.794272 0.934738 0.522852
C186  C     C_3   0.789566 0.152096 0.924460 0.491745
C187  C     C_3   0.151775 0.210073 0.924690 0.491682
C188  C     C_3   0.209838 0.848714 0.924879 0.491496
C189  C     C_3   0.848101 0.789773 0.924514 0.491383
C190  C     C_3   0.691391 0.594401 0.473788 -0.460125
C191  C     C_3   0.699686 0.607669 0.542464 -0.890864
C192  C     C_3   0.408564 0.694211 0.464106 -0.425482
H1    H     H_    0.746077 0.578136 0.560716 0.237404
H2    H     H_    0.449681 0.731483 0.450454 0.261131
H3    H     H_    0.637845 0.306630 0.262940 0.277891
H4    H     H_    0.217469 0.560830 0.336222 0.183180
H5    H     H_    0.310550 0.581979 0.318594 0.098232
H6    H     H_    0.267661 0.661001 0.236661 0.243678
H7    H     H_    0.232469 0.571694 0.228803 0.212390
H8    H     H_    0.176417 0.642100 0.257165 0.268066
H9    H     H_    0.702229 0.833828 0.352806 0.145754
H10   H     H_    0.605923 0.827672 0.356320 0.170180
H11   H     H_    0.605089 0.782785 0.250299 0.259439
H12   H     H_    0.645442 0.869723 0.256989 0.214694
H13   H     H_    0.249193 0.424725 0.560070 0.235618
H14   H     H_    0.700798 0.791637 0.247849 0.256346
H15   H     H_    0.833718 0.325395 0.358589 0.143237
H16   H     H_    0.812608 0.419924 0.357663 0.183819
H17   H     H_    0.766447 0.409265 0.254235 0.256650
H18   H     H_    0.857998 0.380245 0.259730 0.218489
H19   H     H_    0.787255 0.315142 0.254210 0.257215
H20   H     H_    0.331607 0.161469 0.362754 0.143488
H21   H     H_    0.424917 0.187237 0.357570 0.185685
H22   H     H_    0.406585 0.228103 0.253500 0.255627
H23   H     H_    0.381970 0.135667 0.262667 0.217887
H24   H     H_    0.343335 0.416739 0.569269 0.254796
H25   H     H_    0.313575 0.203275 0.257718 0.258258
H26   H     H_    0.125370 0.088415 0.861841 0.121361
H27   H     H_    0.190119 0.018485 0.864154 0.125264
H28   H     H_    0.247048 0.062422 0.771644 0.247390
H29   H     H_    0.153612 0.043772 0.760163 0.186934
H30   H     H_    0.183528 0.134821 0.767770 0.279261
H31   H     H_    0.911038 0.126089 0.861186 0.121612
H32   H     H_    0.980890 0.190949 0.863672 0.124260
H33   H     H_    0.936815 0.248167 0.771302 0.247879
H34   H     H_    0.955568 0.154815 0.759589 0.186976
H35   H     H_    0.287778 0.340082 0.557080 0.256319
H36   H     H_    0.864489 0.184546 0.767307 0.279043
H37   H     H_    0.874224 0.911306 0.861258 0.121653
H38   H     H_    0.809294 0.981097 0.863546 0.123916
H39   H     H_    0.752430 0.937198 0.771031 0.247176
H40   H     H_    0.845874 0.955687 0.759552 0.186921
H41   H     H_    0.815843 0.864687 0.767244 0.278810
H42   H     H_    0.088110 0.875273 0.862088 0.121459
H43   H     H_    0.018252 0.810407 0.864003 0.124689
H44   H     H_    0.062012 0.754124 0.771341 0.246565
H45   H     H_    0.043801 0.847681 0.760215 0.186942
H46   H     H_    0.361378 0.431251 0.466997 0.180404
H47   H     H_    0.134712 0.817360 0.767830 0.279080
H48   H     H_    0.669160 0.165821 0.861024 0.144780
H49   H     H_    0.693398 0.071983 0.859713 0.186517
H50   H     H_    0.741174 0.085584 0.757084 0.256197
H51   H     H_    0.648572 0.111319 0.761476 0.221608
H52   H     H_    0.717084 0.178900 0.757567 0.256850
H53   H     H_    0.165627 0.330157 0.860830 0.144775
H54   H     H_    0.071709 0.306166 0.859874 0.186482
H55   H     H_    0.084655 0.257831 0.757353 0.256240
H56   H     H_    0.110674 0.350389 0.761380 0.221841
H57   H     H_    0.269808 0.448840 0.463477 0.254157
H58   H     H_    0.178046 0.281695 0.757483 0.256750
H59   H     H_    0.329763 0.835249 0.860819 0.145049
H60   H     H_    0.305847 0.929203 0.860363 0.187338
H61   H     H_    0.257328 0.917018 0.757919 0.256671
H62   H     H_    0.349837 0.890803 0.761661 0.222489
H63   H     H_    0.280986 0.823576 0.757475 0.256939
H64   H     H_    0.834606 0.669492 0.860931 0.144880
H65   H     H_    0.928475 0.693713 0.860029 0.187016
H66   H     H_    0.915527 0.741608 0.757442 0.256394
H67   H     H_    0.889565 0.649052 0.761614 0.222012
H68   H     H_    0.577208 0.252555 0.565331 0.236371
H69   H     H_    0.822151 0.717689 0.757452 0.256970
H70   H     H_    0.725929 0.907289 0.665311 0.239504
H71   H     H_    0.676467 0.841916 0.623190 0.261274
H72   H     H_    0.757290 0.816640 0.660371 0.236995
H73   H     H_    0.829061 0.891300 0.596038 0.185669
H74   H     H_    0.760484 0.933003 0.561155 0.213579
H75   H     H_    0.092444 0.723969 0.666938 0.240012
H76   H     H_    0.157129 0.674252 0.624400 0.260079
H77   H     H_    0.183493 0.754266 0.662339 0.237358
H78   H     H_    0.109744 0.827791 0.598760 0.186023
H79   H     H_    0.589183 0.346397 0.572522 0.255977
H80   H     H_    0.067247 0.760062 0.563117 0.215474
H81   H     H_    0.269837 0.091014 0.664831 0.238544
H82   H     H_    0.321143 0.155828 0.623761 0.262476
H83   H     H_    0.239444 0.181899 0.659051 0.237677
H84   H     H_    0.169239 0.106729 0.593154 0.184691
H85   H     H_    0.239150 0.065796 0.559564 0.213803
H86   H     H_    0.909921 0.269055 0.663986 0.238233
H87   H     H_    0.844508 0.320330 0.623532 0.262667
H88   H     H_    0.819097 0.238343 0.658670 0.237675
H89   H     H_    0.893767 0.168774 0.592027 0.185200
H90   H     H_    0.663236 0.287815 0.558848 0.256730
H91   H     H_    0.934273 0.238906 0.558418 0.213063
H92   H     H_    0.195794 0.881872 0.650800 0.230728
H93   H     H_    0.287329 0.884211 0.627906 0.278411
H94   H     H_    0.236117 0.965186 0.632283 0.235747
H95   H     H_    0.235037 0.943029 0.526126 0.203929
H96   H     H_    0.153588 0.912956 0.548901 0.157453
H97   H     H_    0.884696 0.806857 0.649116 0.229322
H98   H     H_    0.881574 0.714920 0.627092 0.276308
H99   H     H_    0.965315 0.761568 0.630587 0.236514
H100  H     H_    0.943915 0.764634 0.524850 0.205863
H101  H     H_    0.568039 0.361552 0.470638 0.181263
H102  H     H_    0.914322 0.846509 0.546956 0.156998
H103  H     H_    0.810912 0.111589 0.646184 0.228282
H104  H     H_    0.718506 0.118955 0.626058 0.274930
H105  H     H_    0.761738 0.033403 0.627430 0.237320
H106  H     H_    0.764230 0.055871 0.522094 0.202827
H107  H     H_    0.846886 0.084552 0.543024 0.156454
H108  H     H_    0.112279 0.190025 0.646838 0.228236
H109  H     H_    0.119076 0.282296 0.626217 0.275118
H110  H     H_    0.033751 0.238573 0.627882 0.238095
H111  H     H_    0.056101 0.235599 0.522543 0.202407
H112  H     H_    0.651735 0.588123 0.566581 0.255089
H113  H     H_    0.551733 0.269346 0.469475 0.255324
H114  H     H_    0.084852 0.153124 0.543901 0.156526
H115  H     H_    0.231803 0.412906 0.160355 0.240527
H116  H     H_    0.182438 0.344512 0.121957 0.262885
H117  H     H_    0.265121 0.322688 0.157205 0.237408
H118  H     H_    0.332974 0.395583 0.088427 0.186519
H119  H     H_    0.262092 0.434698 0.054459 0.212688
H120  H     H_    0.587814 0.231339 0.161296 0.239459
H121  H     H_    0.655888 0.181980 0.122539 0.262521
H122  H     H_    0.677936 0.264644 0.157963 0.237036
H123  H     H_    0.604841 0.332561 0.089365 0.185453
H124  H     H_    0.280669 0.622394 0.536721 0.242808
H125  H     H_    0.565106 0.261769 0.055892 0.212150
H126  H     H_    0.771991 0.588140 0.159756 0.243219
H127  H     H_    0.818369 0.658219 0.121062 0.261651
H128  H     H_    0.735985 0.677554 0.157754 0.236120
H129  H     H_    0.667879 0.605370 0.089793 0.185806
H130  H     H_    0.738095 0.565185 0.055716 0.211692
H131  H     H_    0.412364 0.744918 0.163004 0.229251
H132  H     H_    0.357837 0.810750 0.126156 0.272951
H133  H     H_    0.319296 0.728189 0.149786 0.243378
H134  H     H_    0.400776 0.662459 0.079621 0.184031
H135  H     H_    0.257640 0.536097 0.526273 0.250166
H136  H     H_    0.437360 0.737896 0.051663 0.212831
H137  H     H_    0.686696 0.390805 0.143996 0.227668
H138  H     H_    0.779283 0.381088 0.125162 0.274484
H139  H     H_    0.737952 0.467535 0.125174 0.238106
H140  H     H_    0.735977 0.444314 0.020085 0.201238
H141  H     H_    0.652802 0.416255 0.040260 0.156027
H142  H     H_    0.391293 0.314022 0.143463 0.227631
H143  H     H_    0.380786 0.221381 0.124978 0.273612
H144  H     H_    0.467557 0.262015 0.124848 0.238429
H145  H     H_    0.444468 0.263872 0.019763 0.201081
H146  H     H_    0.350857 0.557870 0.527067 0.260160
H147  H     H_    0.416574 0.347179 0.039638 0.156169
H148  H     H_    0.322544 0.601173 0.136438 0.231419
H149  H     H_    0.229505 0.618212 0.122211 0.276232
H150  H     H_    0.264365 0.529349 0.118743 0.241340
H151  H     H_    0.263107 0.554461 0.014412 0.200367
H152  H     H_    0.348218 0.580676 0.031190 0.157078
H153  H     H_    0.607978 0.686719 0.144009 0.226208
H154  H     H_    0.621570 0.778789 0.124896 0.272628
H155  H     H_    0.533511 0.741167 0.124593 0.243256
H156  H     H_    0.556015 0.735864 0.019811 0.199470
H157  H     H_    0.253840 0.548613 0.425805 0.233711
H158  H     H_    0.583898 0.652808 0.040577 0.155903
H159  H     H_    0.346333 0.562043 0.423232 0.141716
H160  H     H_    0.619479 0.720820 0.531648 0.254900
H161  H     H_    0.535308 0.749618 0.517602 0.265287
H162  H     H_    0.551163 0.654938 0.522207 0.256962
H163  H     H_    0.551111 0.745870 0.415403 0.226064
H164  H     H_    0.709396 0.663404 0.555538 0.255247
H165  H     H_    0.562368 0.653441 0.418838 0.153014
H166  H     H_    0.724622 0.378118 0.541538 0.252429
H167  H     H_    0.750494 0.465059 0.530030 0.251615
H168  H     H_    0.657256 0.446264 0.537838 0.257375
H169  H     H_    0.742084 0.453263 0.428933 0.221558
H170  H     H_    0.649760 0.441843 0.434225 0.148776
H171  H     H_    0.375857 0.275755 0.542118 0.250734
H172  H     H_    0.463130 0.250434 0.532377 0.249815
H173  H     H_    0.443420 0.343651 0.538715 0.258078
H174  H     H_    0.453809 0.257519 0.430683 0.223375
H175  H     H_    0.637975 0.572081 0.463771 0.180324
H176  H     H_    0.441045 0.349515 0.434967 0.144978
H177  H     H_    0.242610 0.075193 0.072911 0.237812
H178  H     H_    0.150854 0.097377 0.077251 0.259265
H179  H     H_    0.217297 0.164369 0.062316 0.257172
H180  H     H_    0.139627 0.065103 0.977071 0.181215
H181  H     H_    0.232816 0.052837 0.976565 0.257665
H182  H     H_    0.924982 0.243121 0.072121 0.237424
H183  H     H_    0.903544 0.151148 0.076766 0.258765
H184  H     H_    0.835981 0.217036 0.062038 0.257107
H185  H     H_    0.934635 0.139689 0.976381 0.180807
H186  H     H_    0.729346 0.552524 0.464627 0.254435
H187  H     H_    0.947266 0.232759 0.975708 0.257788
H188  H     H_    0.756694 0.925026 0.071919 0.237325
H189  H     H_    0.848684 0.903727 0.076739 0.258885
H190  H     H_    0.782886 0.836084 0.061910 0.256989
H191  H     H_    0.860319 0.934853 0.976359 0.180666
H192  H     H_    0.767257 0.947413 0.975493 0.257806
H193  H     H_    0.075253 0.756737 0.072603 0.238208
H194  H     H_    0.097483 0.848464 0.077458 0.259458
H195  H     H_    0.164426 0.782141 0.062005 0.256607
H196  H     H_    0.064925 0.860450 0.977356 0.181327
H197  H     H_    0.427720 0.752105 0.549477 0.237965
H198  H     H_    0.052586 0.767287 0.976265 0.258072
H199  H     H_    0.774388 0.125026 0.046799 0.255455
H200  H     H_    0.743614 0.038945 0.035953 0.247843
H201  H     H_    0.837017 0.052434 0.046877 0.256802
H202  H     H_    0.760597 0.044453 0.935221 0.221838
H203  H     H_    0.852486 0.057596 0.944253 0.146956
H204  H     H_    0.125030 0.225848 0.047041 0.255687
H205  H     H_    0.038958 0.256757 0.036137 0.247758
H206  H     H_    0.052223 0.163415 0.047364 0.256714
H207  H     H_    0.044262 0.239216 0.935502 0.221713
H208  H     H_    0.428625 0.657162 0.556653 0.250420
H209  H     H_    0.057286 0.147324 0.944810 0.147235
H210  H     H_    0.226431 0.874410 0.047256 0.256655
H211  H     H_    0.256941 0.960833 0.036855 0.247424
H212  H     H_    0.163752 0.947036 0.048306 0.256332
H213  H     H_    0.239075 0.956041 0.936245 0.222273
H214  H     H_    0.147183 0.942973 0.945745 0.147574
H215  H     H_    0.874680 0.774193 0.046985 0.255116
H216  H     H_    0.960872 0.743568 0.036390 0.247676
H217  H     H_    0.947239 0.836894 0.047388 0.256885
H218  H     H_    0.955690 0.760782 0.935672 0.222204
H219  H     H_    0.347593 0.706907 0.551142 0.251654
H220  H     H_    0.942499 0.852656 0.944788 0.147036
H221  H     H_    0.639772 0.595651 0.346527 0.125928
H222  H     H_    0.702545 0.524479 0.356942 0.119959
H223  H     H_    0.771448 0.565032 0.268759 0.254774
H224  H     H_    0.679622 0.546506 0.249566 0.189195
H225  H     H_    0.708992 0.637700 0.258265 0.277112
H226  H     H_    0.370974 0.684287 0.295489 0.177859
H227  H     H_    0.437603 0.667645 0.352005 0.083663
H228  H     H_    0.490560 0.787656 0.327731 0.266769
H229  H     H_    0.489792 0.726724 0.264536 0.196221
H230  H     H_    0.429233 0.640420 0.453317 0.176092
H231  H     H_    0.425330 0.798118 0.268832 0.262384
H232  H     H_    0.369295 0.399734 0.348802 0.137558
H233  H     H_    0.309202 0.471807 0.360351 0.077478
H234  H     H_    0.240069 0.436313 0.269598 0.252847
H235  H     H_    0.332542 0.454001 0.252362 0.186839
H236  H     H_    0.301470 0.363068 0.258006 0.277888
H237  H     H_    0.591559 0.368549 0.354683 0.123132
H238  H     H_    0.521787 0.303502 0.359538 0.119175
H239  H     H_    0.566044 0.242497 0.268938 0.250688
H240  H     H_    0.546454 0.335150 0.254273 0.187547
O1    O     O_3   0.500000 0.000000 0.500000 -0.480323
O2    O     O_R   0.560750 0.000000 0.867980 -0.648926
O3    O     O_R   0.000000 0.560750 0.867980 -0.649264
O4    O     O_R   0.439250 0.000000 0.867980 -0.649196
O5    O     O_R   0.560720 0.000000 0.632020 -0.637453
O6    O     O_R   1.000000 0.560720 0.632020 -0.638806
O7    O     O_R   0.439280 0.000000 0.632020 -0.637716
O8    O     O_R   0.000000 0.439280 0.632020 -0.637511
O9    O     O_R   0.060720 0.500000 0.132020 -0.636734
O10   O     O_R   0.500000 0.060720 0.132020 -0.637436
O11   O     O_R   0.939280 0.500000 0.132020 -0.638076
O12   O     O_3   1.000000 0.500000 0.500000 -0.484397
O13   O     O_R   0.500000 0.939280 0.132020 -0.636898
O14   O     O_R   0.585450 0.146130 0.465380 -0.624437
O15   O     O_R   0.853870 0.585450 0.465380 -0.621636
O16   O     O_R   0.414550 0.853870 0.465380 -0.619598
O17   O     O_R   0.146130 0.414550 0.465380 -0.628446
O18   O     O_R   0.414550 0.146130 0.465380 -0.674129
O19   O     O_R   0.146130 0.585450 0.465380 -0.640349
O20   O     O_R   0.585450 0.853870 0.465380 -0.669929
O21   O     O_R   0.853870 0.414550 0.465380 -0.672926
O22   O     O_R   0.085450 0.646130 0.965380 -0.626484
O23   O     O_3   1.000000 0.500000 0.000000 -0.480851
O24   O     O_R   0.353870 0.085450 0.965380 -0.626258
O25   O     O_R   0.914550 0.353870 0.965380 -0.626048
O26   O     O_R   0.646130 0.914550 0.965380 -0.626383
O27   O     O_R   0.914550 0.646130 0.965380 -0.674321
O28   O     O_R   0.646130 0.085450 0.965380 -0.674012
O29   O     O_R   0.085450 0.353870 0.965380 -0.673915
O30   O     O_R   0.353870 0.914550 0.965380 -0.674065
O31   O     O_R   0.353850 0.914510 0.534610 -0.655554
O32   O     O_R   0.085490 0.353850 0.534610 -0.651184
O33   O     O_R   0.646150 0.085490 0.534610 -0.650925
O34   O     O_3   0.500000 0.000000 0.000000 -0.480745
O35   O     O_R   0.914510 0.646150 0.534610 -0.652632
O36   O     O_R   0.646150 0.914510 0.534610 -0.644558
O37   O     O_R   0.914510 0.353850 0.534610 -0.645254
O38   O     O_R   0.353850 0.085490 0.534610 -0.644726
O39   O     O_R   0.085490 0.646150 0.534610 -0.654073
O40   O     O_R   0.853850 0.414510 0.034610 -0.649804
O41   O     O_R   0.585490 0.853850 0.034610 -0.648774
O42   O     O_R   0.146150 0.585490 0.034610 -0.647215
O43   O     O_R   0.414510 0.146150 0.034610 -0.649359
O44   O     O_R   0.146150 0.414510 0.034610 -0.644869
O45   O     O_R   0.500000 0.939250 0.367980 -0.649306
O46   O     O_R   0.414510 0.853850 0.034610 -0.648643
O47   O     O_R   0.853850 0.585490 0.034610 -0.643515
O48   O     O_R   0.585490 0.146150 0.034610 -0.644693
O49   O     O_3   0.744396 0.624692 0.373854 -0.576447
O50   O     O_3   0.363730 0.751294 0.369041 -0.573380
O51   O     O_3   0.263055 0.373603 0.373783 -0.575504
O52   O     O_3   0.622080 0.262489 0.376753 -0.578714
O53   O     O_3   0.249982 0.663868 0.356638 -0.591061
O54   O     O_3   0.660397 0.730579 0.350843 -0.611256
O55   O     O_3   0.724952 0.350959 0.357122 -0.620510
O56   O     O_R   0.060750 0.500000 0.367980 -0.634965
O57   O     O_3   0.351952 0.271261 0.357283 -0.622683
O58   O     O_3   0.232670 0.118410 0.880350 -0.580144
O59   O     O_3   0.880906 0.233235 0.879961 -0.579892
O60   O     O_3   0.767037 0.881068 0.879787 -0.580136
O61   O     O_3   0.118188 0.767909 0.880190 -0.580417
O62   O     O_3   0.778793 0.143496 0.861051 -0.624905
O63   O     O_3   0.142981 0.220578 0.861264 -0.625100
O64   O     O_3   0.220200 0.857978 0.861495 -0.625510
O65   O     O_3   0.857007 0.779119 0.861133 -0.625140
O66   O     O_R   0.500000 0.060750 0.367980 -0.650560
O67   O     O_R   0.939250 0.500000 0.367980 -0.650544
O68   O     O_R   0.000000 0.439250 0.867980 -0.648818
Zn1   Zn    Zn3+2 0.586760 0.000000 0.549450 0.933012
Zn2   Zn    Zn3+2 0.913280 0.500000 0.450540 0.938641
Zn3   Zn    Zn3+2 0.500000 0.913280 0.450540 0.932751
Zn4   Zn    Zn3+2 0.086720 0.500000 0.450540 0.956582
Zn5   Zn    Zn3+2 1.000000 0.586720 0.950540 0.935096
Zn6   Zn    Zn3+2 0.413280 0.000000 0.950540 0.935103
Zn7   Zn    Zn3+2 1.000000 0.413280 0.950540 0.934791
Zn8   Zn    Zn3+2 0.586720 0.000000 0.950540 0.934809
Zn9   Zn    Zn3+2 1.000000 0.586760 0.549450 0.934887
Zn10  Zn    Zn3+2 0.413240 0.000000 0.549450 0.933475
Zn11  Zn    Zn3+2 1.000000 0.413240 0.549450 0.930774
Zn12  Zn    Zn3+2 0.086760 0.500000 0.049450 0.934314
Zn13  Zn    Zn3+2 0.500000 0.086760 0.049450 0.933516
Zn14  Zn    Zn3+2 0.913240 0.500000 0.049450 0.933439
Zn15  Zn    Zn3+2 0.500000 0.913240 0.049450 0.933410
Zn16  Zn    Zn3+2 0.500000 0.086720 0.450540 0.935111

loop_
_geom_bond_atom_site_label_1
_geom_bond_atom_site_label_2
_ccdc_geom_bond_type
O26   Zn8   S    
C74   H85   S    
C107  O27   A    
C71   H72   S    
O38   Zn10  S    
C132  C150  A    
C19   C20   S    
C133  C151  A    
C29   H205  S    
C3    H219  S    
C181  C187  S    
O11   Zn14  S    
C28   H207  S    
C21   H192  S    
C138  O7    A    
C2    C134  S    
C55   H34   S    
O31   Zn10  S    
C180  O57   S    
C115  C174  S    
O3    Zn5   S    
C128  C145  A    
O10   Zn13  S    
C53   H29   S    
C110  O46   A    
O39   Zn9   S    
C107  C140  S    
C29   H204  S    
C41   H237  S    
C23   H198  S    
O24   Zn6   S    
C15   H176  S    
C10   H165  S    
C3    H208  S    
C9    H135  S    
C26   H202  S    
C43   O53   S    
O43   Zn13  S    
O32   Zn11  S    
C142  C159  A    
C90   C143  S    
C47   H14   S    
C9    H124  S    
C53   H28   S    
C174  O50   S    
C59   C60   S    
C21   C22   S    
C14   H167  S    
O66   Zn16  S    
O35   Zn9   S    
C45   C47   S    
C61   H49   S    
C87   H119  S    
C74   C75   S    
C28   C187  S    
C36   H224  S    
C120  C125  A    
C4    C5    S    
C123  C126  A    
C69   H69   S    
C160  O11   A    
O34   Zn15  S    
C155  C161  A    
C190  H175  S    
C43   C44   S    
C37   C38   S    
O47   Zn14  S    
C66   H61   S    
C99   H144  S    
C25   H193  S    
C48   H16   S    
C40   H234  S    
C88   H117  S    
C105  C164  S    
C43   H5    S    
C174  C177  S    
C13   O16   A    
C64   H58   S    
C85   H111  S    
C96   H140  S    
C42   H239  S    
C93   H127  S    
C12   H169  S    
C30   H214  S    
C101  O40   A    
O33   Zn1   S    
C175  O51   S    
C122  C189  S    
C92   H129  S    
C117  C173  S    
C39   H232  S    
C138  O5    A    
C184  O60   S    
C75   H83   S    
C48   O55   S    
C13   C133  S    
C126  C185  S    
C59   H43   S    
C72   C73   S    
C104  H155  S    
C6    C7    S    
C145  C163  A    
C80   H94   S    
C119  C136  A    
C15   H174  S    
C54   H31   S    
C36   H225  S    
C105  O67   A    
C47   H12   S    
C42   H3    S    
C104  H153  S    
C81   H100  S    
C58   H40   S    
C82   H99   S    
C57   O20   A    
O28   Zn8   S    
C83   H106  S    
C190  H186  S    
O2    Zn8   S    
C98   C99   S    
O15   Zn2   S    
C43   H4    S    
C192  H230  S    
O56   Zn4   S    
C143  C161  A    
C182  O33   A    
C97   H137  S    
C3    H197  S    
C11   H160  S    
C44   H6    S    
C190  C191  S    
C164  C170  T    
O7    Zn10  S    
C58   H41   S    
C139  C156  A    
C62   H51   S    
C167  C169  T    
C84   H103  S    
C67   H64   S    
O34   Zn13  S    
C96   H141  S    
O16   Zn3   S    
C149  C169  S    
C31   H212  S    
C34   H222  S    
O12   Zn9   S    
C73   H76   S    
C78   C80   S    
O23   Zn12  S    
C99   H142  S    
C25   H195  S    
O21   Zn2   S    
C40   H236  S    
C137  C155  A    
C138  C168  S    
O8    Zn11  S    
C171  O10   A    
C86   H110  S    
C4    C175  S    
C49   H18   S    
C56   H37   S    
C187  O63   S    
C100  H151  S    
O12   Zn2   S    
C70   C146  S    
C89   C91   S    
C102  H149  S    
C95   H133  S    
C24   C136  S    
C71   H70   S    
C50   H20   S    
C75   H81   S    
C166  C168  T    
C49   H19   S    
C38   H231  S    
C24   O17   A    
C78   H96   S    
O6    Zn9   S    
C111  C129  A    
C78   C151  S    
C70   H74   S    
C176  C179  S    
C63   H53   S    
C16   H172  S    
O14   Zn16  S    
C116  O3    A    
C39   C40   S    
O45   Zn3   S    
C50   H21   S    
C94   H134  S    
C20   H183  S    
C5    H35   S    
C17   H180  S    
C192  H2    S    
C77   H86   S    
C110  C141  S    
C147  C151  A    
C81   H102  S    
O29   Zn7   S    
C82   H97   S    
C101  C142  S    
C83   C84   S    
C64   H56   S    
C76   C150  S    
C17   C18   S    
C52   O58   S    
C46   O19   A    
C114  C118  A    
C89   H123  S    
C28   H209  S    
C97   H139  S    
C11   H162  S    
C27   H200  S    
C51   H22   S    
O23   Zn7   S    
C59   O61   S    
C44   H8    S    
C177  O53   S    
C39   O51   S    
C22   H190  S    
C90   O24   A    
C127  O4    A    
C52   C53   S    
C171  O13   A    
C1    O45   A    
C84   H105  S    
C91   H121  S    
C54   C55   S    
C52   H27   S    
C130  C147  A    
C186  O62   S    
C31   H210  S    
O12   Zn11  S    
C46   C130  S    
C108  C139  S    
C13   O31   A    
C88   H116  S    
C175  C180  S    
C83   C153  S    
C21   H191  S    
C72   C147  S    
O41   Zn15  S    
C37   H227  S    
C55   H33   S    
C38   H228  S    
C57   O36   A    
C122  C140  A    
C75   H82   S    
C3    C192  S    
O23   Zn14  S    
C26   C186  S    
C104  H154  S    
C54   O59   S    
C125  C143  A    
C86   H108  S    
C126  C144  A    
C56   C58   S    
C16   H173  S    
O12   Zn4   S    
C34   C36   S    
C85   C154  S    
C61   C62   S    
C10   C11   S    
C63   C64   S    
C17   C181  S    
C96   C159  S    
C108  O28   A    
C26   H203  S    
C65   H60   S    
O42   Zn12  S    
C112  C177  S    
C79   O42   A    
C100  C162  S    
C60   H45   S    
C112  C130  A    
C174  C192  S    
C85   H114  S    
C83   H107  S    
C21   C184  S    
C87   C88   S    
C188  O64   S    
C106  O26   A    
C41   C42   S    
C14   H168  S    
O40   Zn14  S    
C103  H156  S    
O9    Zn12  S    
C6    H101  S    
C191  H112  S    
C91   H120  S    
C51   H25   S    
C68   O37   A    
C26   C27   S    
C106  C145  S    
C123  C141  A    
C77   H88   S    
C74   C148  S    
C28   C29   S    
C4    H57   S    
C189  O65   S    
C149  O6    A    
O5    Zn1   S    
C29   H206  S    
C173  C190  S    
C123  C188  S    
C68   C132  S    
C89   H125  S    
C102  H150  S    
C90   O43   A    
C119  C175  S    
C121  C186  S    
C113  C119  A    
C127  O2    A    
C8    C177  S    
O23   Zn5   S    
C8    H157  S    
C66   H62   S    
C99   H143  S    
C45   H10   S    
C150  C153  A    
C128  C184  S    
C18   H179  S    
C22   H188  S    
C70   C71   S    
O46   Zn15  S    
C36   H223  S    
C69   H67   S    
C94   C158  S    
C109  O44   A    
C101  O25   A    
C93   H126  S    
C12   H170  S    
C7    H68   S    
C148  C154  A    
C117  C134  A    
O34   Zn8   S    
C91   H122  S    
C23   H196  S    
C92   H130  S    
C6    H113  S    
C71   H71   S    
C10   H163  S    
C35   O38   A    
C125  C181  S    
C76   H89   S    
C110  O30   A    
C23   C185  S    
C89   C156  S    
C182  O14   A    
C53   H30   S    
C85   C86   S    
C92   C157  S    
C173  O49   S    
C30   C188  S    
C41   H238  S    
C191  H1    S    
C136  C154  A    
C98   H147  S    
C54   H32   S    
O67   Zn2   S    
C134  C152  A    
C20   H182  S    
C50   C51   S    
C47   H11   S    
C60   H47   S    
C19   H187  S    
C2    O35   A    
C95   H132  S    
C48   C49   S    
C80   H92   S    
C63   O63   S    
C108  O48   A    
C33   H217  S    
C14   H166  S    
C120  C187  S    
C35   C131  S    
C98   C161  S    
C51   H23   S    
C35   O18   A    
C61   H48   S    
C181  O58   S    
C56   O60   S    
C149  O8    A    
C62   H52   S    
C191  H164  S    
C84   H104  S    
C115  C133  A    
C52   H26   S    
C111  C117  A    
C183  C186  S    
C31   H211  S    
C32   C33   S    
C7    H79   S    
O22   Zn5   S    
C121  C139  A    
C8    H159  S    
C127  C166  S    
C25   H194  S    
O44   Zn12  S    
C18   H177  S    
C92   C93   S    
O17   Zn4   S    
O18   Zn16  S    
C122  C128  A    
C94   C95   S    
O30   Zn6   S    
C41   O52   S    
C141  C158  A    
C113  C180  S    
C114  C179  S    
C33   H215  S    
C93   H128  S    
C49   H17   S    
C103  C104  S    
C100  H152  S    
C30   H213  S    
C120  C137  A    
O34   Zn6   S    
C118  C135  A    
C68   O21   A    
C171  C172  S    
O68   Zn7   S    
C76   H91   S    
C60   H44   S    
C81   C82   S    
C109  O29   A    
O1    Zn10  S    
C80   H93   S    
C32   H218  S    
C173  C178  S    
C57   C129  S    
C37   O50   S    
C98   H145  S    
C45   O54   S    
C179  O55   S    
C15   C16   S    
C20   H184  S    
C109  C137  S    
C19   H185  S    
C121  C124  A    
C58   H39   S    
C82   H98   S    
O27   Zn5   S    
O4    Zn6   S    
O1    Zn1   S    
C8    C9    S    
O25   Zn7   S    
C111  C178  S    
C116  C167  S    
C73   H75   S    
C157  C163  A    
C107  O47   A    
C97   H138  S    
C11   H161  S    
C27   H199  S    
C165  C172  T    
C39   H233  S    
C15   C180  S    
C72   H78   S    
C18   H178  S    
C62   H50   S    
C67   O65   S    
C1    O66   A    
O13   Zn15  S    
C56   H38   S    
C10   C178  S    
C34   H221  S    
C65   O64   S    
C106  O41   A    
C76   C77   S    
C124  C183  S    
C46   O39   A    
C19   C183  S    
C185  C188  S    
C95   H131  S    
C5    H24   S    
C5    H13   S    
C33   H216  S    
C40   H235  S    
C183  O59   S    
C37   H226  S    
C67   C69   S    
C55   H36   S    
C38   H229  S    
C116  O68   A    
C140  C157  A    
C79   C144  S    
C1    C165  S    
C30   C31   S    
C86   H109  S    
C96   C97   S    
C34   O49   S    
C100  C102  S    
C129  C146  A    
C131  C148  A    
C67   H65   S    
C2    O15   A    
C42   H240  S    
C102  H148  S    
C27   H201  S    
C7    H90   S    
C44   H7    S    
C146  C152  A    
C61   O62   S    
C12   C14   S    
C178  O54   S    
C94   H136  S    
C65   H59   S    
O20   Zn3   S    
C87   C155  S    
C59   H42   S    
C78   H95   S    
C70   H73   S    
C63   H54   S    
C4    H46   S    
C113  C131  A    
C16   H171  S    
C144  C162  A    
C32   H220  S    
C114  C132  A    
C156  C159  A    
C185  O61   S    
O36   Zn1   S    
C124  C142  A    
C81   C152  S    
O19   Zn4   S    
C103  C163  S    
C135  C153  A    
C17   H181  S    
C9    H146  S    
C77   H87   S    
C50   O57   S    
C79   O22   A    
C73   H77   S    
O1    Zn3   S    
C64   H55   S    
C6    C176  S    
C160  O9    A    
C87   H118  S    
C74   H84   S    
C32   C189  S    
C23   C25   S    
C103  H158  S    
C176  O52   S    
O1    Zn16  S    
O37   Zn11  S    
C158  C162  A    
C118  C176  S    
C105  O56   A    
C12   C179  S    
C66   H63   S    
C88   H115  S    
C45   H9    S    
C65   C66   S    
C72   H80   S    
C160  C170  S    
C184  C189  S    
O48   Zn13  S    
C22   H189  S    
C135  C182  S    
C48   H15   S    
C24   O32   A    
C112  C115  A    
C69   H66   S    
