data_mof_unit_12017.cif
_audit_creation_date              2013-03-05T15:51:58-0500
_audit_creation_method            fapswitch 2.2
_symmetry_space_group_name_H-M    P1
_symmetry_Int_Tables_number       1
_space_group_crystal_system       triclinic
_cell_length_a                    23.269126
_cell_length_b                    7.295535
_cell_length_c                    15.028665
_cell_angle_alpha                 89.910187
_cell_angle_beta                  108.016127
_cell_angle_gamma                 90.078268
_cell_volume                      2426.18262675

loop_
_atom_site_label
_atom_site_type_symbol
_atom_site_description
_atom_site_fract_x
_atom_site_fract_y
_atom_site_fract_z
_atom_type_partial_charge
O1    O     O_R   0.711000 0.648610 0.341170 -0.574711
O2    O     O_R   0.289000 0.351390 0.658830 -0.575363
O3    O     O_R   0.789000 0.148610 0.158830 -0.561698
O4    O     O_R   0.211000 0.851390 0.841170 -0.577248
O5    O     O_R   0.829650 0.322030 0.336650 -0.581246
O6    O     O_R   0.170350 0.677970 0.663350 -0.579729
O7    O     O_R   0.670350 0.822030 0.163350 -0.576102
O8    O     O_R   0.329650 0.177970 0.836650 -0.577561
C1    C     C_R   0.854319 0.485813 0.356781 0.990349
C2    C     C_R   0.145647 0.514194 0.643343 0.980593
C3    C     C_R   0.645659 0.985757 0.143308 0.985104
C4    C     C_R   0.354350 0.014246 0.856663 0.981510
O9    O     O_R   0.713950 0.319280 0.352070 -0.586439
O10   O     O_R   0.286050 0.680720 0.647930 -0.584023
O11   O     O_R   0.786050 0.819280 0.147930 -0.586498
O12   O     O_R   0.213950 0.180720 0.852070 -0.582960
O13   O     O_R   0.672470 0.142870 0.174360 -0.577280
O14   O     O_R   0.327530 0.857130 0.825640 -0.579684
O15   O     O_R   0.827530 0.642870 0.325640 -0.587258
O16   O     O_R   0.172470 0.357130 0.674360 -0.577875
C5    C     C_R   0.701982 0.486561 0.376414 1.012325
C6    C     C_R   0.297882 0.512943 0.623447 1.019198
C7    C     C_R   0.798796 0.987243 0.123720 0.984251
C8    C     C_R   0.201796 0.012963 0.876671 1.013874
O17   O     O_3   0.736530 0.478650 0.191680 -0.272207
O18   O     O_3   0.263470 0.521350 0.808320 -0.281848
O19   O     O_3   0.763470 0.978650 0.308320 -0.287018
O20   O     O_3   0.236530 0.021350 0.691680 -0.278911
V1    V     V_3+5 0.752500 0.206170 0.260820 1.251838
V2    V     V_3+5 0.247500 0.793830 0.739180 1.255049
V3    V     V_3+5 0.747500 0.706170 0.239180 1.250867
V4    V     V_3+5 0.252500 0.293830 0.760820 1.255514
C9    C     C_R   0.826965 0.987010 0.047955 -0.295175
C10   C     C_R   0.172720 0.010183 0.951016 -0.306784
C11   C     C_R   0.670253 0.485037 0.446512 -0.297069
C12   C     C_R   0.327748 0.509803 0.551040 -0.310399
C13   C     C_R   0.831465 0.834325 0.906396 0.350735
C14   C     C_R   0.175458 0.105680 0.107682 0.357932
C15   C     C_R   0.668464 0.357369 0.595479 0.353953
C16   C     C_R   0.326091 0.605468 0.395126 0.364709
C17   C     C_R   0.798020 0.892448 0.964736 0.110138
C18   C     C_R   0.205412 0.071345 0.041207 0.090288
C19   C     C_R   0.701225 0.425521 0.537809 0.091076
C20   C     C_R   0.294925 0.557854 0.458630 0.099750
C21   C     C_R   0.886775 0.047810 0.065002 0.139508
C22   C     C_R   0.110021 0.980356 0.927600 0.115441
C23   C     C_R   0.607019 0.502168 0.416996 0.109178
C24   C     C_R   0.390487 0.481546 0.576761 0.115857
C25   C     C_R   0.923603 0.964165 0.016185 0.033228
C26   C     C_R   0.081283 0.984589 0.998771 0.026566
C27   C     C_R   0.575065 0.467142 0.481699 0.035437
C28   C     C_R   0.420531 0.504261 0.508577 0.029503
C29   C     C_R   0.895331 0.849664 0.938067 -0.208629
C30   C     C_R   0.114042 0.053120 0.089138 -0.218475
C31   C     C_R   0.604427 0.362871 0.562907 -0.215714
C32   C     C_R   0.390013 0.599681 0.425129 -0.220053
C33   C     C_R   0.987586 0.988390 0.042412 0.073652
C34   C     C_R   0.019799 0.931771 0.981400 0.081469
C35   C     C_R   0.514111 0.521371 0.466293 0.084663
C36   C     C_R   0.480872 0.446465 0.522234 0.085383
C37   C     C_R   0.992603 0.800268 0.913748 -0.237066
C38   C     C_R   0.021504 0.041411 0.132799 -0.255798
C39   C     C_R   0.506837 0.303468 0.583842 -0.244611
C40   C     C_R   0.486945 0.659489 0.402104 -0.241505
C41   C     C_R   0.931876 0.753151 0.893890 0.392913
C42   C     C_R   0.083776 0.068919 0.157834 0.401693
C43   C     C_R   0.568221 0.262779 0.606427 0.389694
C44   C     C_R   0.424951 0.692377 0.376962 0.387118
H1    H     H_    0.020122 0.720658 0.881809 0.186478
H2    H     H_    0.000855 0.043906 0.187991 0.183559
H3    H     H_    0.478884 0.218163 0.612645 0.187581
H4    H     H_    0.513968 0.746040 0.372276 0.187315
C45   C     C_1   0.416836 0.007069 0.918653 -0.208912
C46   C     C_1   0.583168 0.992934 0.081340 -0.212790
C47   C     C_1   0.083152 0.506927 0.581401 -0.207720
C48   C     C_1   0.916802 0.493035 0.418775 -0.228911
C49   C     C_1   0.469161 0.002455 0.969920 0.140903
C50   C     C_1   0.530839 0.997553 0.030090 0.139922
C51   C     C_1   0.030819 0.502347 0.530170 0.134583
C52   C     C_1   0.969132 0.497566 0.470026 0.124693
N1    N     N_R   0.910023 0.595376 0.836038 0.261050
O21   O     O_R   0.930034 0.560189 0.766033 -0.333001
O22   O     O_R   0.879889 0.469109 0.863908 -0.319209
N2    N     N_R   0.115252 0.102265 0.254792 0.258627
O23   O     O_R   0.092852 0.216399 0.301749 -0.350327
O24   O     O_R   0.157503 0.990120 0.300417 -0.295329
N3    N     N_R   0.590867 0.105304 0.664231 0.260527
O25   O     O_R   0.570413 0.065959 0.733396 -0.331675
O26   O     O_R   0.623430 0.984380 0.638069 -0.338867
N4    N     N_R   0.400259 0.837603 0.311794 0.258619
O27   O     O_R   0.419127 0.861653 0.239622 -0.335040
O28   O     O_R   0.368023 0.965191 0.333674 -0.318814
I1    I     I_    0.059270 0.991154 0.780402 -0.301880
I2    I     I_    0.910115 0.302973 0.139131 -0.312762
I3    I     I_    0.439716 0.469282 0.724346 -0.301960
I4    I     I_    0.561225 0.509482 0.267910 -0.308730
I5    I     I_    0.299487 0.136071 0.073398 -0.093782
I6    I     I_    0.701902 0.860917 0.923375 -0.076955
I7    I     I_    0.198402 0.559065 0.417588 -0.083679
I8    I     I_    0.797808 0.433399 0.585180 -0.077378
N5    N     N_R   0.800642 0.773833 0.812821 0.274357
O29   O     O_R   0.761122 0.642292 0.797762 -0.269865
O30   O     O_R   0.814776 0.843161 0.742501 -0.292218
N6    N     N_R   0.204691 0.218889 0.186705 0.263935
O31   O     O_R   0.253501 0.164079 0.250268 -0.240756
O32   O     O_R   0.183228 0.381070 0.193354 -0.324752
N7    N     N_R   0.699936 0.295065 0.688676 0.280235
O33   O     O_R   0.742721 0.173747 0.702820 -0.265445
O34   O     O_R   0.682479 0.347859 0.758904 -0.288353
N8    N     N_R   0.293389 0.642291 0.298771 0.279190
O35   O     O_R   0.308967 0.561542 0.232568 -0.302163
O36   O     O_R   0.250628 0.764206 0.276510 -0.263722

loop_
_geom_bond_atom_site_label_1
_geom_bond_atom_site_label_2
_geom_bond_distance
_ccdc_geom_bond_type
O17   V3    1.794379 S    
N3    O25   1.301568 A    
O1    C5    1.337297 A    
N5    O29   1.298995 A    
C24   I3    2.160500 S    
O19   V1    1.792954 S    
C9    C21   1.406198 A    
O3    C7    1.339181 A    
C10   C18   1.406495 A    
O15   V3    1.968056 S    
N6    O32   1.300856 A    
N1    O21   1.301469 A    
N4    O27   1.301438 A    
C25   C33   1.428184 A    
C33   C38   1.398363 A    
C49   C50   1.440859 S    
O7    C3    1.319583 A    
C35   C40   1.402505 A    
C26   C30   1.426933 A    
C36   C39   1.401179 A    
C40   C44   1.394562 A    
O9    V1    2.032915 S    
N2    O24   1.299836 A    
C14   C18   1.406628 A    
O4    C8    1.339156 A    
C20   I7    2.137314 S    
O1    V3    2.012301 S    
O13   V1    1.967816 S    
C31   C43   1.417210 A    
C38   H2    1.079709 S    
O2    V4    2.012304 S    
O3    V1    2.013790 S    
N8    O35   1.301489 A    
C14   N6    1.434254 S    
C28   C36   1.419320 A    
C41   N1    1.437870 S    
C1    O15   1.319202 A    
C15   C31   1.417911 A    
C2    O16   1.319154 A    
C7    C9    1.479129 S    
O2    C6    1.334152 A    
C44   N4    1.436039 S    
C23   I4    2.163637 S    
C10   C22   1.407665 A    
C1    C48   1.465183 S    
C11   C19   1.406351 A    
C16   C20   1.408500 A    
C16   N8    1.437323 S    
C13   C29   1.417673 A    
C34   C37   1.399296 A    
O11   C7    1.336513 A    
C11   C23   1.404997 A    
C35   C36   1.415360 A    
N5    O30   1.301424 A    
C4    C45   1.465234 S    
N7    O34   1.301613 A    
O10   V2    2.032918 S    
C21   I2    2.151963 S    
N6    O31   1.300510 A    
N1    O22   1.301693 A    
O5    V1    1.992325 S    
C39   C43   1.394431 A    
O7    V3    1.992888 S    
C38   C42   1.394153 A    
O8    V4    1.992892 S    
C19   I8    2.137982 S    
C18   I5    2.142834 S    
O18   V4    1.794381 S    
C23   C27   1.417629 A    
C16   C32   1.415175 A    
C32   C44   1.415354 A    
C8    C10   1.474470 S    
C26   C34   1.425228 A    
C15   N7    1.438432 S    
O5    C1    1.319328 A    
C2    C47   1.465152 S    
N4    O28   1.301022 A    
C14   C30   1.421085 A    
C21   C25   1.427149 A    
O8    C4    1.319598 A    
O9    C5    1.328960 A    
N2    O23   1.301375 A    
O14   V2    1.967818 S    
O6    V2    1.992324 S    
C39   H3    1.081666 S    
N3    O26   1.301612 A    
C12   C20   1.406430 A    
C27   C35   1.421248 A    
N7    O33   1.300235 A    
C29   C41   1.418467 A    
O16   V4    1.968052 S    
C37   H1    1.081567 S    
C3    O13   1.319267 A    
C48   C52   1.223485 T    
C3    C46   1.465209 S    
O6    C2    1.319388 A    
C15   C19   1.409205 A    
O11   V3    2.030175 S    
C30   C42   1.423220 A    
O12   V4    2.030176 S    
C6    C12   1.461344 S    
C22   C26   1.426443 A    
C43   N3    1.437922 S    
C9    C17   1.405037 A    
O10   C6    1.332074 A    
O20   V2    1.792955 S    
C5    C11   1.461550 S    
C13   N5    1.436675 S    
C33   C34   1.414360 A    
C22   I1    2.162935 S    
C25   C29   1.425738 A    
C12   C24   1.405247 A    
C27   C31   1.420460 A    
C40   H4    1.080491 S    
C13   C17   1.406511 A    
N8    O36   1.299482 A    
C42   N2    1.435042 S    
C51   C52   1.440826 S    
C37   C41   1.393578 A    
C24   C28   1.417219 A    
O12   C8    1.332985 A    
C46   C50   1.223495 T    
C4    O14   1.319269 A    
C45   C49   1.223496 T    
C17   I6    2.140259 S    
C47   C51   1.223456 T    
O4    V2    2.013787 S    
C28   C32   1.417545 A    
