data_mof_unit_56142.cif
_audit_creation_date              2012-12-10T17:52:25-0500
_audit_creation_method            fapswitch 2.2
_symmetry_space_group_name_H-M    P1
_symmetry_Int_Tables_number       1
_space_group_crystal_system       triclinic
_cell_length_a                    18.831779
_cell_length_b                    10.724677
_cell_length_c                    9.920607
_cell_angle_alpha                 88.952787
_cell_angle_beta                  90.383353
_cell_angle_gamma                 94.186472
_cell_volume                      1997.90413964

loop_
_atom_site_label
_atom_site_type_symbol
_atom_type_description
_atom_site_fract_x
_atom_site_fract_y
_atom_site_fract_z
_atom_type_partial_charge
C1    C     C_R   0.503384 0.259922 0.502660 0.871129
C2    C     C_R   0.856034 0.618672 0.500759 -0.002989
C3    C     C_R   0.494049 0.103174 0.763031 -0.175150
C4    C     C_R   0.364548 0.505355 0.499615 0.875031
C5    C     C_R   0.464266 0.034995 0.872505 -0.149387
C6    C     C_R   0.428959 0.918559 0.852469 -0.150239
C7    C     C_R   0.430041 0.865134 0.725778 -0.154115
C8    C     C_R   0.466252 0.929051 0.617235 0.095538
C9    C     C_R   0.488674 0.055379 0.630370 0.100465
C10   C     C_R   0.505179 0.125809 0.509699 -0.125646
C11   C     C_R   0.513504 0.065910 0.387489 -0.237739
C12   C     C_R   0.288921 0.536766 0.498855 -0.163370
C13   C     C_R   0.505387 0.938387 0.382548 -0.211341
C14   C     C_R   0.483897 0.869593 0.497604 -0.119751
C15   C     C_R   0.396499 0.327983 0.129796 0.163293
C16   C     C_R   0.493406 0.738289 0.498926 0.872073
C17   C     C_R   0.349111 0.255132 0.048647 -0.267951
C18   C     C_R   0.352766 0.261369 0.911656 -0.248714
C19   C     C_R   0.404172 0.340142 0.851834 -0.130080
C20   C     C_R   0.451768 0.420072 0.925821 0.105058
C21   C     C_R   0.450280 0.417733 0.071057 0.154767
C22   C     C_R   0.546111 0.576562 0.070665 -0.132486
C23   C     C_R   0.933192 0.648679 0.501328 0.333309
C24   C     C_R   0.546065 0.576481 0.927845 -0.108815
C25   C     C_R   0.635131 0.505060 0.500484 0.884649
C26   C     C_R   0.253638 0.553720 0.622565 0.043113
C27   C     C_R   0.185962 0.597747 0.622379 -0.222976
C28   C     C_R   0.152373 0.628105 0.501790 0.011513
C29   C     C_R   0.187478 0.615773 0.379712 -0.300602
C30   C     C_R   0.253773 0.563076 0.375060 0.469417
C31   C     C_3   0.242667 0.513296 0.142115 0.081602
C32   C     C_3   0.191677 0.395820 0.166212 -0.389153
C33   C     C_3   0.156203 0.351296 0.035214 -0.942348
C34   C     C_R   0.076993 0.654617 0.501950 0.316748
C35   C     C_3   0.828475 0.661367 0.847598 0.088101
C36   C     C_3   0.782397 0.747279 0.925318 -0.342555
C37   C     C_3   0.764053 0.693739 0.065357 -0.965405
C38   C     C_R   0.814642 0.640545 0.614672 0.507249
C39   C     C_R   0.742166 0.600103 0.613068 -0.304754
C40   C     C_R   0.711779 0.535755 0.502673 -0.086656
C41   C     C_R   0.753279 0.514380 0.390602 -0.193368
C42   C     C_R   0.824919 0.555205 0.389847 -0.246075
H1    H     H_    0.523822 0.189641 0.786817 0.175305
H2    H     H_    0.159360 0.606064 0.717981 0.157055
H3    H     H_    0.583848 0.639186 0.873547 0.145025
H4    H     H_    0.161375 0.643726 0.288115 0.156745
H5    H     H_    0.708805 0.622785 0.696079 0.157106
H6    H     H_    0.730323 0.466495 0.303638 0.161491
H7    H     H_    0.856356 0.534750 0.303046 0.166946
H8    H     H_    0.527669 0.117485 0.295396 0.170129
H9    H     H_    0.288783 0.606013 0.807738 0.175304
H10   H     H_    0.252184 0.457480 0.799492 0.183273
H11   H     H_    0.394296 0.205311 0.285026 0.160256
H12   H     H_    0.467743 0.073548 0.972660 0.146178
H13   H     H_    0.334848 0.312812 0.295358 0.180378
H14   H     H_    0.277894 0.494163 0.056784 0.183395
H15   H     H_    0.213965 0.594910 0.107521 0.121957
H16   H     H_    0.221192 0.319055 0.210250 0.216611
H17   H     H_    0.149144 0.415657 0.237849 0.223137
H18   H     H_    0.128632 0.428124 0.985664 0.264143
H19   H     H_    0.116423 0.272102 0.057254 0.270680
H20   H     H_    0.196469 0.318379 0.965635 0.262371
H21   H     H_    0.879744 0.655688 0.902672 0.173797
H22   H     H_    0.803132 0.563972 0.846731 0.118383
H23   H     H_    0.403196 0.867565 0.936043 0.141698
H24   H     H_    0.811642 0.840484 0.935693 0.238340
H25   H     H_    0.732232 0.760457 0.869184 0.211750
H26   H     H_    0.734091 0.600967 0.057627 0.258625
H27   H     H_    0.730436 0.757711 0.118730 0.268843
H28   H     H_    0.813489 0.683978 0.124962 0.274964
H29   H     H_    0.402892 0.773505 0.713681 0.161547
H30   H     H_    0.517643 0.893799 0.289197 0.171206
H31   H     H_    0.583865 0.639231 0.123541 0.146982
H32   H     H_    0.309406 0.189298 0.093964 0.155310
H33   H     H_    0.316723 0.201917 0.851097 0.168068
H34   H     H_    0.405360 0.333079 0.745974 0.223872
N1    N     N_R   0.040249 0.659430 0.384120 -0.186164
N2    N     N_R   0.969656 0.656481 0.383776 -0.192595
N3    N     N_R   0.970009 0.649754 0.619205 -0.132952
N4    N     N_R   0.040595 0.652733 0.619533 -0.186318
N5    N     N_R   0.499340 0.498800 0.142780 -0.105791
N6    N     N_R   0.499320 0.498720 0.857170 -0.119351
N7    N     N_3   0.285598 0.525240 0.749870 -0.428915
N8    N     N_3   0.387493 0.300517 0.269052 -0.357064
O1    O     O_R   0.500000 0.316780 0.614690 -0.660333
O2    O     O_3   0.844116 0.713965 0.718012 -0.641876
O3    O     O_R   0.499990 0.316750 0.385360 -0.603405
O4    O     O_R   0.398140 0.500000 0.614700 -0.622834
O5    O     O_R   0.398130 0.499970 0.385370 -0.541335
O6    O     O_R   0.500010 0.683250 0.614640 -0.621275
O7    O     O_R   0.500000 0.683220 0.385310 -0.616846
O8    O     O_R   0.601870 0.500030 0.614630 -0.617529
O9    O     O_R   0.601860 0.500000 0.385300 -0.616609
O10   O     O_3   0.288115 0.542842 0.253676 -0.635214
Zn1   Zn    Zn3+2 0.500000 0.500020 0.653130 0.924683
Zn2   Zn    Zn3+2 0.500000 0.499980 0.346870 0.969464

loop_
_geom_bond_atom_site_label_1
_geom_bond_atom_site_label_2
_ccdc_geom_bond_type
C1    O3    A    
C16   O6    A    
C18   H33   S    
C20   N6    A    
C11   C13   A    
C41   C42   A    
C19   C20   A    
C32   H16   S    
C36   H25   S    
C7    C8    A    
N1    N2    A    
C25   O9    A    
C3    H1    S    
C26   C27   A    
C26   N7    S    
C38   O2    S    
H11   N8    S    
C24   H3    S    
C19   H34   S    
C37   H27   S    
C25   C40   S    
C7    H29   S    
C5    C6    A    
C35   O2    S    
C36   H24   S    
C37   H26   S    
C18   C19   A    
C24   N6    A    
C34   N4    A    
O7    Zn2   S    
C27   H2    S    
C6    H23   S    
C35   C36   S    
C33   H20   S    
C35   H22   S    
C31   H14   S    
C4    C12   S    
C9    C10   A    
C30   O10   S    
O4    Zn1   S    
C28   C34   S    
C37   H28   S    
C1    O1    A    
C22   N5    A    
C5    H12   S    
O6    Zn1   S    
C39   C40   A    
N5    Zn2   S    
C8    C9    A    
O8    Zn1   S    
C12   C26   A    
H10   N7    S    
C29   C30   A    
C3    C9    A    
C2    C38   A    
C31   C32   S    
O3    Zn2   S    
C17   C18   A    
C15   N8    S    
C33   H19   S    
C40   C41   A    
C21   N5    A    
C33   H18   S    
C17   H32   S    
C22   C24   A    
H9    N7    S    
C2    C23   S    
C39   H5    S    
C4    O5    A    
C15   C17   A    
C28   C29   A    
C25   O8    A    
C8    C14   A    
N6    Zn1   S    
C12   C30   A    
C1    C10   S    
C3    C5    A    
C6    C7    A    
C4    O4    A    
C13   H30   S    
O9    Zn2   S    
C31   O10   S    
C32   H17   S    
C29   H4    S    
C32   C33   S    
C31   H15   S    
O5    Zn2   S    
C34   N1    A    
C11   H8    S    
O1    Zn1   S    
C38   C39   A    
C2    C42   A    
C41   H6    S    
C14   C16   S    
C23   N2    A    
C10   C11   A    
C42   H7    S    
N3    N4    A    
C15   C21   A    
C20   C21   A    
C16   O7    A    
C36   C37   S    
C27   C28   A    
C35   H21   S    
C22   H31   S    
C23   N3    A    
H13   N8    S    
C13   C14   A    
