data_mof_unit_7772.cif
_audit_creation_date              2013-03-05T15:41:39-0500
_audit_creation_method            fapswitch 2.2
_symmetry_space_group_name_H-M    P1
_symmetry_Int_Tables_number       1
_space_group_crystal_system       triclinic
_cell_length_a                    7.806653
_cell_length_b                    8.569337
_cell_length_c                    15.715826
_cell_angle_alpha                 91.198112
_cell_angle_beta                  85.65354
_cell_angle_gamma                 93.418415
_cell_volume                      1046.32395897

loop_
_atom_site_label
_atom_site_type_symbol
_atom_site_description
_atom_site_fract_x
_atom_site_fract_y
_atom_site_fract_z
_atom_type_partial_charge
O1    O     O_R   0.389240 0.738570 0.505550 -0.619738
O2    O     O_R   0.678400 0.711630 0.491050 -0.629681
C1    C     C_R   0.545473 0.794526 0.497765 0.942657
O3    O     O_R   0.355360 0.513470 0.630110 -0.612467
O4    O     O_R   0.644510 0.486530 0.615610 -0.632876
C2    C     C_R   0.501699 0.500105 0.661485 0.875634
Zn1   Zn    Zn3+2 0.306930 0.517990 0.509680 1.038944
Zn2   Zn    Zn3+2 0.693070 0.482010 0.490320 1.048026
O5    O     O_R   0.321600 0.288370 0.508950 -0.588380
O6    O     O_R   0.610760 0.261430 0.494450 -0.613458
O7    O     O_R   0.355490 0.513470 0.384390 -0.576609
O8    O     O_R   0.644640 0.486530 0.369890 -0.570491
C3    C     C_R   0.454522 0.205476 0.502053 0.958427
C4    C     C_R   0.498326 0.499801 0.338531 0.898293
C5    C     C_3   0.344246 0.578935 0.956326 -0.417223
C6    C     C_3   0.669085 0.599743 0.946334 0.116245
C7    C     C_3   0.663444 0.603151 0.045808 0.111530
H1    H     H_    0.331172 0.697767 0.080997 0.201731
H2    H     H_    0.342882 0.701804 0.934833 0.194513
H3    H     H_    0.655720 0.722576 0.926602 0.084871
H4    H     H_    0.642147 0.726513 0.066231 0.087189
C8    C     C_1   0.495335 0.500715 0.249824 -0.059225
C9    C     C_3   0.507875 0.501931 0.916929 0.131256
C10   C     C_3   0.339353 0.576474 0.054827 -0.401278
C11   C     C_3   0.502299 0.502422 0.082853 0.116555
C12   C     C_3   0.500932 0.332117 0.047169 -0.350764
C13   C     C_3   0.500395 0.331731 0.949208 -0.360589
C14   C     C_1   0.496665 0.501521 0.174469 0.003878
C15   C     C_1   0.507424 0.500952 0.825469 -0.012766
C16   C     C_1   0.505573 0.500373 0.750203 -0.108728
H5    H     H_    0.380208 0.268155 0.930217 0.190198
H6    H     H_    0.607468 0.264817 0.919806 0.228986
H7    H     H_    0.383510 0.264713 0.074050 0.191587
H8    H     H_    0.226398 0.515223 0.934753 0.272286
H9    H     H_    0.221701 0.507957 0.080259 0.276045
H10   H     H_    0.611454 0.269279 0.066406 0.236590
C17   C     C_2   0.569453 0.957949 0.496368 -0.352915
H11   H     H_    0.700859 0.008533 0.489873 0.205039
C18   C     C_2   0.430528 0.042053 0.503129 -0.341288
H12   H     H_    0.299119 0.991485 0.509566 0.198379
N1    N     N_2   0.950340 0.457950 0.477370 0.026351
N2    N     N_2   0.049660 0.542050 0.522630 -0.151060
H13   H     H_    0.986333 0.600531 0.572289 0.175007
N3    N     N_R   0.027326 0.396679 0.402782 0.333880
O9    O     O_R   0.017586 0.469551 0.331689 -0.329162
O10   O     O_R   0.059093 0.249380 0.399327 -0.382064
N4    N     N_R   0.832946 0.550582 0.904594 0.236314
O11   O     O_R   0.932373 0.651080 0.860254 -0.402750
O12   O     O_R   0.879153 0.407766 0.908505 -0.373594
N5    N     N_R   0.825681 0.563747 0.080042 0.242700
O13   O     O_R   0.873970 0.421064 0.079129 -0.358606
O14   O     O_R   0.918557 0.672612 0.116960 -0.377400

loop_
_geom_bond_atom_site_label_1
_geom_bond_atom_site_label_2
_geom_bond_distance
_ccdc_geom_bond_type
C7    N5    1.472904 S    
O4    Zn2   1.976797 S    
N5    O14   1.301186 A    
C15   C16   1.183946 T    
C9    C13   1.550576 S    
N1    N2    1.273586 D    
C12   H7    1.113893 S    
N4    O11   1.301199 A    
C6    H3    1.116544 S    
Zn2   O8    1.959558 S    
C7    C11   1.564324 S    
C4    C8    1.396272 S    
C5    C9    1.553734 S    
O2    C1    1.288711 A    
C11   C12   1.552190 S    
N4    O12   1.300322 A    
C8    C14   1.183680 T    
Zn2   N1    2.025671 S    
C11   C14   1.437321 S    
C5    H2    1.113362 S    
C12   C13   1.539795 S    
C17   H11   1.087935 S    
O3    Zn1   1.959559 S    
H1    C10   1.113392 S    
C9    C15   1.437484 S    
C6    N4    1.472977 S    
C12   H10   1.107950 S    
C5    C10   1.546149 S    
C2    C16   1.396854 S    
O8    C4    1.289820 A    
Zn1   O7    1.976797 S    
C6    C9    1.564006 S    
O4    C2    1.290887 A    
N1    N3    1.384219 S    
O2    Zn2   1.977572 S    
C3    C18   1.402069 S    
C10   H9    1.112629 S    
N2    H13   1.029238 S    
C13   H5    1.113957 S    
C18   H12   1.087885 S    
C10   C11   1.551674 S    
C1    C17   1.402190 S    
C17   C18   1.333982 D    
O3    C2    1.290238 A    
Zn1   N2    2.025671 S    
O7    C4    1.291031 A    
Zn1   O5    1.977571 S    
O5    C3    1.288700 A    
C5    H8    1.113131 S    
N5    O13   1.300278 A    
C13   H6    1.108400 S    
O1    Zn1   1.960616 S    
Zn2   O6    1.960616 S    
C7    H4    1.116633 S    
N3    O9    1.300685 A    
N3    O10   1.300062 A    
C6    C7    1.560312 S    
O1    C1    1.281619 A    
O6    C3    1.281563 A    
