data_mof_unit_11786.cif
_audit_creation_date              2012-12-10T20:31:54-0500
_audit_creation_method            fapswitch 2.2
_symmetry_space_group_name_H-M    P1
_symmetry_Int_Tables_number       1
_space_group_crystal_system       triclinic
_cell_length_a                    9.885957
_cell_length_b                    10.672429
_cell_length_c                    15.542544
_cell_angle_alpha                 90.613853
_cell_angle_beta                  67.075398
_cell_angle_gamma                 89.780389
_cell_volume                      1510.18791347

loop_
_atom_site_label
_atom_site_type_symbol
_atom_type_description
_atom_site_fract_x
_atom_site_fract_y
_atom_site_fract_z
_atom_type_partial_charge
C1    C     C_R   0.501001 0.740065 0.497663 0.907771
C2    C     C_R   0.400046 0.481383 0.918240 0.091910
C3    C     C_R   0.255623 0.522626 0.971666 0.110904
C4    C     C_R   0.499527 0.457980 0.961542 0.005262
C5    C     C_R   0.463873 0.499388 0.055386 -0.040866
C6    C     C_R   0.317210 0.546370 0.107877 0.457450
C7    C     C_R   0.214195 0.548563 0.066075 -0.363089
C8    C     C_R   0.633078 0.392403 0.913047 -0.205108
C9    C     C_R   0.736036 0.375634 0.951521 -0.244934
C10   C     C_R   0.709723 0.422236 0.040056 0.173915
C11   C     C_R   0.575950 0.487133 0.092004 0.111005
C12   C     C_R   0.407556 0.499315 0.676179 0.865289
C13   C     C_R   0.814738 0.400791 0.078627 -0.233218
C14   C     C_R   0.783600 0.433738 0.171196 -0.222338
C15   C     C_R   0.560133 0.534563 0.179409 -0.216815
C16   C     C_R   0.379931 0.937372 0.495005 0.130713
C17   C     C_R   0.507788 0.871274 0.482665 -0.180713
C18   C     C_R   0.643449 0.932457 0.448319 -0.321499
C19   C     C_R   0.646624 0.062347 0.441795 0.483706
C20   C     C_R   0.511616 0.128567 0.477600 -0.243458
C21   C     C_R   0.381807 0.064858 0.493842 0.082157
C22   C     C_3   0.234932 0.077038 0.572327 -0.437463
C23   C     C_R   0.503231 0.260116 0.495007 0.896279
C24   C     C_3   0.231780 0.935206 0.573157 -0.486437
C25   C     C_R   0.879410 0.520259 0.580844 0.231369
C26   C     C_R   0.975687 0.466498 0.422221 -0.106498
C27   C     C_R   0.119199 0.465040 0.422546 -0.121482
C28   C     C_R   0.021501 0.519173 0.581079 0.206160
C29   C     C_3   0.988817 0.631605 0.643542 -0.525783
C30   C     C_3   0.836184 0.634139 0.642045 -0.496442
C31   C     C_R   0.592537 0.501941 0.324097 0.848569
C32   C     C_R   0.347912 0.498179 0.778184 -0.061556
C33   C     C_R   0.651727 0.495492 0.222675 -0.086577
C34   C     C_R   0.155435 0.541837 0.929037 -0.186208
C35   C     C_R   0.201307 0.528814 0.832452 -0.204561
C36   C     C_R   0.444296 0.472028 0.821377 -0.250314
H1    H     H_    0.101527 0.576113 0.107259 0.155167
H2    H     H_    0.916648 0.351680 0.039014 0.154814
H3    H     H_    0.745839 0.880797 0.428958 0.180734
H4    H     H_    0.240823 0.119359 0.636479 0.197325
H5    H     H_    0.151524 0.119467 0.549637 0.213543
H6    H     H_    0.233585 0.894302 0.638230 0.199851
H7    H     H_    0.147004 0.897638 0.549870 0.201047
H8    H     H_    0.960588 0.442463 0.358805 0.144245
H9    H     H_    0.211087 0.438580 0.359370 0.201095
H10   H     H_    0.987750 0.609538 0.713394 0.195829
H11   H     H_    0.476155 0.599668 0.218071 0.201362
H12   H     H_    0.056860 0.712604 0.609105 0.214516
H13   H     H_    0.748184 0.614828 0.711282 0.203530
H14   H     H_    0.815728 0.716796 0.605669 0.218296
H15   H     H_    0.858558 0.406430 0.203249 0.148666
H16   H     H_    0.836259 0.324039 0.912035 0.148060
H17   H     H_    0.043653 0.572029 0.969784 0.149263
H18   H     H_    0.124524 0.548195 0.800208 0.146811
H19   H     H_    0.557120 0.452202 0.777301 0.151202
H20   H     H_    0.658590 0.347312 0.846049 0.146685
N1    N     N_R   0.856900 0.500860 0.500610 -0.110022
N2    N     N_R   0.142540 0.500820 0.500610 -0.119161
O1    O     O_R   0.385310 0.683210 0.499990 -0.616201
O2    O     O_R   0.614650 0.683240 0.500000 -0.619046
O3    O     O_R   0.319830 0.499970 0.632240 -0.613120
O4    O     O_R   0.549170 0.500000 0.632250 -0.616954
O5    O     O_R   0.385350 0.316760 0.500000 -0.612464
O6    O     O_R   0.614690 0.316790 0.500010 -0.573296
O7    O     O_R   0.450830 0.500000 0.367750 -0.613832
O8    O     O_R   0.680170 0.500030 0.367760 -0.632105
Zn1   Zn    Zn3+2 0.346870 0.499980 0.499990 0.935774
Zn2   Zn    Zn3+2 0.653130 0.500020 0.500010 0.946827
O9    O     O_3   0.781003 0.121882 0.408504 -0.628216
C37   C     C_3   0.811632 0.165000 0.316950 0.127844
H21   H     H_    0.897736 0.237580 0.301573 0.157057
H22   H     H_    0.714900 0.211385 0.310314 0.114797
C38   C     C_3   0.870803 0.058601 0.244327 -0.401272
H23   H     H_    0.968777 0.015684 0.250493 0.233748
H24   H     H_    0.786195 0.985124 0.256957 0.216474
C39   C     C_3   0.913247 0.106277 0.145206 -0.956983
H25   H     H_    0.814823 0.144019 0.136206 0.275687
H26   H     H_    0.959414 0.027816 0.094523 0.266096
H27   H     H_    0.997478 0.180566 0.130218 0.263939
O10   O     O_3   0.268130 0.576633 0.202395 -0.673719
C40   C     C_3   0.201350 0.697580 0.221912 0.035732
H28   H     H_    0.080519 0.687090 0.244678 0.159949
H29   H     H_    0.242126 0.760710 0.160289 0.139740
C41   C     C_3   0.233029 0.761333 0.300922 -0.329657
H30   H     H_    0.199767 0.699723 0.362558 0.247790
H31   H     H_    0.352428 0.779743 0.277399 0.207284
C42   C     C_3   0.151157 0.885985 0.330225 -0.950489
H32   H     H_    0.186101 0.950815 0.270215 0.261513
H33   H     H_    0.177068 0.929828 0.386948 0.272904
H34   H     H_    0.030747 0.871205 0.356273 0.264238

loop_
_geom_bond_atom_site_label_1
_geom_bond_atom_site_label_2
_ccdc_geom_bond_type
C31   O8    A    
O8    Zn2   S    
C42   H32   S    
C16   C21   A    
C24   H6    S    
C38   H23   S    
C19   C20   A    
C41   C42   S    
C15   H11   S    
C4    C8    A    
C8    H20   S    
C14   C33   A    
C40   H28   S    
C26   H8    S    
C25   C28   A    
C26   C27   A    
O6    Zn2   S    
C28   C29   S    
C39   H26   S    
C5    C11   A    
C3    C7    A    
C1    O1    A    
C5    C6    A    
O10   C40   S    
C22   H5    S    
C18   C19   A    
C34   C35   A    
O1    Zn1   S    
C11   C15   A    
C8    C9    A    
O7    Zn1   S    
C31   C33   S    
C37   H21   S    
C9    C10   A    
C27   H9    S    
C23   O5    A    
C30   H14   S    
C16   C24   S    
C21   C22   S    
C12   C32   S    
C35   H18   S    
C38   H24   S    
C9    H16   S    
C25   N1    A    
C40   H29   S    
O5    Zn1   S    
C29   H12   S    
C32   C35   A    
C39   H25   S    
C1    O2    A    
C16   C17   A    
C3    C34   A    
C10   C13   A    
C2    C4    A    
C18   H3    S    
C29   C30   S    
C12   O4    A    
O3    Zn1   S    
C6    O10   S    
C14   H15   S    
C20   C23   S    
C22   H4    S    
C37   C38   S    
C17   C18   A    
C7    H1    S    
C41   H30   S    
C13   H2    S    
C23   O6    A    
C30   H13   S    
C42   H33   S    
C38   C39   S    
C22   C24   S    
C19   O9    S    
N1    Zn2   S    
C32   C36   A    
C40   C41   S    
C2    C36   A    
C25   C30   S    
C31   O7    A    
C41   H31   S    
C4    C5    A    
C27   N2    A    
C6    C7    A    
C28   N2    A    
C1    C17   S    
O4    Zn2   S    
C29   H10   S    
C2    C3    A    
C36   H19   S    
C12   O3    A    
O9    C37   S    
C26   N1    A    
C10   C11   A    
N2    Zn1   S    
C39   H27   S    
C20   C21   A    
O2    Zn2   S    
C34   H17   S    
C42   H34   S    
C24   H7    S    
C37   H22   S    
C13   C14   A    
C15   C33   A    
