data_mof_unit_9400.cif
_audit_creation_date              2013-03-05T16:30:58-0500
_audit_creation_method            fapswitch 2.2
_symmetry_space_group_name_H-M    P1
_symmetry_Int_Tables_number       1
_space_group_crystal_system       triclinic
_cell_length_a                    13.021978
_cell_length_b                    10.92194
_cell_length_c                    9.580269
_cell_angle_alpha                 92.18642
_cell_angle_beta                  96.725514
_cell_angle_gamma                 92.36895
_cell_volume                      1350.75390987

loop_
_atom_site_label
_atom_site_type_symbol
_atom_site_description
_atom_site_fract_x
_atom_site_fract_y
_atom_site_fract_z
_atom_type_partial_charge
O1    O     O_R   0.500000 0.319640 0.618810 -0.602775
O2    O     O_R   0.500010 0.319680 0.381230 -0.536370
C1    C     C_R   0.497503 0.262927 0.497461 0.840641
O3    O     O_R   0.348990 0.499960 0.599490 -0.606345
O4    O     O_R   0.349000 0.500000 0.361910 -0.531468
C2    C     C_R   0.300532 0.499715 0.473136 0.853163
Cu1   Cu    Cu3+1 0.499990 0.499980 0.640670 0.999113
Cu2   Cu    Cu3+1 0.500010 0.500020 0.359330 1.114176
O5    O     O_R   0.499990 0.680320 0.618770 -0.588183
O6    O     O_R   0.500000 0.680360 0.381190 -0.555524
O7    O     O_R   0.651000 0.500000 0.638090 -0.568212
O8    O     O_R   0.651010 0.500040 0.400510 -0.512326
C3    C     C_R   0.493942 0.737254 0.501065 0.877060
C4    C     C_R   0.698992 0.492844 0.526028 0.883512
C5    C     C_R   0.811612 0.481254 0.539704 -0.179687
C6    C     C_R   0.187458 0.491746 0.456219 -0.101843
C7    C     C_R   0.026019 0.428801 0.313913 0.344334
C8    C     C_R   0.132431 0.454263 0.326828 -0.173502
C9    C     C_R   0.134616 0.512965 0.572525 -0.194471
C10   C     C_R   0.027325 0.496972 0.560398 0.064016
C11   C     C_R   0.970532 0.453783 0.430613 -0.057756
C12   C     C_R   0.861262 0.441421 0.423013 0.317384
C13   C     C_R   0.870137 0.516029 0.667653 -0.126362
C14   C     C_R   0.977003 0.523217 0.678260 -0.096234
H1    H     H_    0.020399 0.553282 0.778073 0.192246
H2    H     H_    0.172348 0.438957 0.235635 0.227132
H3    H     H_    0.177075 0.543102 0.673034 0.172658
C15   C     C_R   0.515900 0.069589 0.615246 0.092857
C16   C     C_R   0.491157 0.130549 0.493809 -0.142542
C17   C     C_R   0.452020 0.059256 0.372849 -0.171823
C18   C     C_R   0.442598 0.929657 0.375821 0.314196
C19   C     C_R   0.481255 0.870049 0.500857 -0.192976
C20   C     C_R   0.511455 0.946229 0.620299 0.081518
C21   C     C_3   0.549936 0.955467 0.774374 -0.402473
C22   C     C_3   0.554394 0.094718 0.765125 -0.351461
H4    H     H_    0.490257 0.923985 0.840687 0.220850
H5    H     H_    0.628266 0.921388 0.799249 0.259606
H6    H     H_    0.497003 0.141239 0.823133 0.241044
H7    H     H_    0.634248 0.137060 0.780107 0.225254
C23   C     C_R   0.573801 0.567771 0.088520 0.203950
N1    N     N_R   0.500660 0.500930 0.148010 -0.262933
C24   C     C_R   0.441029 0.415142 0.058953 0.414114
C25   C     C_R   0.437643 0.420551 0.910446 -0.111063
H8    H     H_    0.386835 0.357076 0.842245 0.180057
N2    N     N_R   0.500660 0.500890 0.852110 -0.242400
C26   C     C_R   0.576946 0.561894 0.941543 0.157736
C27   C     C_3   0.607616 0.692902 0.937460 0.017805
C28   C     C_3   0.591876 0.704917 0.093077 0.011886
H9    H     H_    0.551093 0.740014 0.867168 0.114467
H10   H     H_    0.521236 0.753288 0.111150 0.146026
N3    N     N_R   0.800319 0.385569 0.300823 0.155553
O9    O     O_R   0.781583 0.447101 0.187724 -0.255592
O10   O     O_R   0.749899 0.281443 0.310524 -0.309376
N4    N     N_R   0.392910 0.308691 0.110772 0.126842
O11   O     O_R   0.316721 0.318800 0.185443 -0.363126
O12   O     O_R   0.405576 0.202201 0.051185 -0.373212
N5    N     N_R   0.715133 0.707394 0.905814 0.170869
O13   O     O_R   0.733334 0.748244 0.784978 -0.367028
O14   O     O_R   0.789855 0.657388 0.982855 -0.252729
N6    N     N_R   0.683036 0.754992 0.184634 0.201368
O15   O     O_R   0.707382 0.871699 0.184215 -0.271164
O16   O     O_R   0.735963 0.687624 0.273159 -0.276674
H11   H     H_    0.833163 0.540883 0.759110 0.245848
N7    N     N_R   0.978438 0.373912 0.182888 0.165310
O17   O     O_R   0.987068 0.429823 0.066954 -0.306584
O18   O     O_R   0.951040 0.257685 0.175657 -0.251092
H12   H     H_    0.423242 0.104204 0.279094 0.257026
N8    N     N_R   0.385631 0.862906 0.256962 0.123411
O19   O     O_R   0.321083 0.772876 0.276959 -0.343750
O20   O     O_R   0.380925 0.907688 0.132488 -0.333973

loop_
_geom_bond_atom_site_label_1
_geom_bond_atom_site_label_2
_geom_bond_distance
_ccdc_geom_bond_type
O4    Cu2   1.969486 S    
C22   H7    1.111747 S    
C13   C14   1.382145 A    
C16   C17   1.403191 A    
C27   N5    1.470365 S    
C21   H5    1.103168 S    
C9    H3    1.085025 S    
N1    C24   1.390143 A    
C3    C19   1.466575 S    
C18   C19   1.434409 A    
C8    H2    1.078795 S    
Cu2   O8    1.959671 S    
N7    O17   1.301710 A    
C10   C11   1.423545 A    
C28   H10   1.107139 S    
C7    C8    1.392175 A    
Cu1   Cu2   2.695360 S    
C27   H9    1.096205 S    
C5    C13   1.396193 A    
O1    Cu1   1.972812 S    
N2    C26   1.366464 A    
C14   H1    1.084290 S    
Cu1   O7    1.969489 S    
C23   C28   1.504812 S    
C25   N2    1.356828 A    
C1    C16   1.443624 S    
N5    O13   1.300120 A    
O4    C2    1.300546 A    
C17   H12   1.076199 S    
N6    O15   1.300996 A    
O3    Cu1   1.959671 S    
Cu1   N2    2.024293 S    
N6    O16   1.299351 A    
C23   N1    1.366133 A    
C5    C12   1.418624 A    
C4    C5    1.468166 S    
O8    C4    1.295328 A    
C15   C20   1.349138 A    
C28   N6    1.464067 S    
C21   H4    1.111753 S    
C6    C9    1.393487 A    
C25   H8    1.082376 S    
C17   C18   1.417377 A    
O7    C4    1.305389 A    
N4    O12   1.301186 A    
C13   H11   1.079196 S    
N5    O14   1.302421 A    
O3    C2    1.297774 A    
C24   C25   1.421811 A    
C23   C26   1.412562 A    
C2    C6    1.460949 S    
N3    O9    1.300914 A    
C27   C28   1.529950 S    
C10   C14   1.396673 A    
C19   C20   1.396864 A    
C22   H6    1.110249 S    
C20   C21   1.500427 S    
Cu2   N1    2.025912 S    
C6    C8    1.395223 A    
C21   C22   1.525952 S    
O2    Cu2   1.988749 S    
Cu1   O5    1.988749 S    
N8    O20   1.301881 A    
O5    C3    1.304303 A    
C26   C27   1.472782 S    
C15   C16   1.374640 A    
O2    C1    1.297971 A    
C7    N7    1.431321 S    
N3    O10   1.301426 A    
C11   C12   1.416791 A    
N4    O11   1.295193 A    
C18   N8    1.439638 S    
N8    O19   1.301479 A    
Cu2   O6    1.972810 S    
C24   N4    1.430914 S    
C9    C10   1.391498 A    
C15   C22   1.475915 S    
N7    O18   1.301379 A    
C12   N3    1.435317 S    
O1    C1    1.292593 A    
O6    C3    1.296953 A    
C7    C11   1.424337 A    
