data_mof_unit_16731.cif
_audit_creation_date              2012-12-11T14:48:37-0500
_audit_creation_method            fapswitch 2.2
_symmetry_space_group_name_H-M    P1
_symmetry_Int_Tables_number       1
_space_group_crystal_system       triclinic
_cell_length_a                    7.230762
_cell_length_b                    19.060526
_cell_length_c                    19.064078
_cell_angle_alpha                 90.000119
_cell_angle_beta                  87.488999
_cell_angle_gamma                 90.000755
_cell_volume                      2624.92897553

loop_
_atom_site_label
_atom_site_type_symbol
_atom_type_description
_atom_site_fract_x
_atom_site_fract_y
_atom_site_fract_z
_atom_type_partial_charge
O1    O     O_R   0.350610 0.187000 0.656530 -0.523947
O2    O     O_R   0.649390 0.813000 0.343470 -0.528148
O3    O     O_R   0.149390 0.687000 0.343470 -0.528152
O4    O     O_R   0.850610 0.313000 0.656530 -0.523951
O5    O     O_R   0.655920 0.179060 0.799470 -0.539164
O6    O     O_R   0.344080 0.820940 0.200530 -0.536479
O7    O     O_R   0.844080 0.679060 0.200530 -0.536480
O8    O     O_R   0.155920 0.320940 0.799470 -0.539165
O9    O     O_R   0.826150 0.314000 0.799910 -0.542197
O10   O     O_R   0.173850 0.686000 0.200090 -0.545266
O11   O     O_R   0.673850 0.814000 0.200090 -0.545271
O12   O     O_R   0.326150 0.186000 0.799910 -0.542202
C1    C     C_R   0.485447 0.161287 0.822666 0.707778
C2    C     C_R   0.514550 0.838718 0.177338 0.692476
C3    C     C_R   0.014547 0.661277 0.177341 0.692441
C4    C     C_R   0.985450 0.338718 0.822662 0.707731
O13   O     O_R   0.680230 0.178680 0.657050 -0.517147
O14   O     O_R   0.319770 0.821320 0.342950 -0.502516
O15   O     O_R   0.819770 0.678680 0.342950 -0.502521
O16   O     O_R   0.180230 0.321320 0.657050 -0.517146
C5    C     C_R   0.514304 0.162271 0.634124 0.870290
C6    C     C_R   0.485888 0.837828 0.366046 0.864321
C7    C     C_R   0.985887 0.662172 0.366046 0.864325
C8    C     C_R   0.014305 0.337731 0.634125 0.870294
O17   O     O_3   0.504860 0.294770 0.728200 -0.378650
O18   O     O_3   0.495140 0.705230 0.271800 -0.375176
O19   O     O_3   0.995140 0.794770 0.271800 -0.375169
O20   O     O_3   0.004860 0.205230 0.728200 -0.378646
V1    V     V_3+5 0.779710 0.242290 0.728230 1.592493
V2    V     V_3+5 0.220290 0.757710 0.271770 1.608585
V3    V     V_3+5 0.720290 0.742290 0.271770 1.608582
V4    V     V_3+5 0.279710 0.257710 0.728230 1.592495
C9    C     C_1   0.027857 0.608443 0.121651 -0.112500
C10   C     C_1   0.972131 0.391581 0.878323 -0.105037
C11   C     C_1   0.472107 0.108463 0.878363 -0.105052
C12   C     C_1   0.527881 0.891513 0.121610 -0.112508
C13   C     C_2   0.068460 0.510421 0.020568 -0.111049
C14   C     C_2   0.931532 0.489644 0.979363 -0.108832
C15   C     C_2   0.431336 0.010563 0.979555 -0.108658
C16   C     C_2   0.568655 0.989371 0.020376 -0.110832
C17   C     C_1   0.957809 0.435939 0.924563 0.056261
C18   C     C_1   0.042176 0.564109 0.075386 0.053836
C19   C     C_1   0.542256 0.935790 0.075292 0.053687
C20   C     C_1   0.457729 0.064162 0.924657 0.056111
H1    H     H_    0.795300 0.513222 0.986497 0.146321
H2    H     H_    0.204690 0.486840 0.013435 0.145707
H3    H     H_    0.705315 0.012517 0.012836 0.145565
H4    H     H_    0.294674 0.987420 0.987096 0.146156
C21   C     C_R   0.010612 0.389335 0.576245 -0.294571
C22   C     C_R   0.993601 0.610390 0.424058 -0.280303
C23   C     C_R   0.493605 0.889611 0.424058 -0.280299
C24   C     C_R   0.510609 0.110667 0.576243 -0.294574
C25   C     C_R   0.098320 0.581299 0.540455 0.458792
C26   C     C_R   0.961807 0.414479 0.453171 0.461318
C27   C     C_R   0.461760 0.085521 0.453172 0.461303
C28   C     C_R   0.598360 0.918709 0.540449 0.458830
C29   C     C_R   0.074228 0.630329 0.486649 0.296766
C30   C     C_R   0.976956 0.366174 0.508331 0.293497
C31   C     C_R   0.476925 0.133827 0.508332 0.293502
C32   C     C_R   0.574253 0.869677 0.486644 0.296773
C33   C     C_R   0.941497 0.539958 0.414010 0.368514
C34   C     C_R   0.039184 0.461068 0.589126 0.375471
C35   C     C_R   0.539210 0.038936 0.589122 0.375478
C36   C     C_R   0.441473 0.960040 0.414012 0.368529
C37   C     C_R   0.978643 0.488044 0.465813 -0.190448
C38   C     C_R   0.038954 0.510509 0.532768 -0.180875
C39   C     C_R   0.538972 0.989496 0.532763 -0.180877
C40   C     C_R   0.478623 0.011957 0.465813 -0.190442
Cl1   Cl    Cl    0.041627 0.486826 0.678545 -0.528664
Cl2   Cl    Cl    0.812567 0.521650 0.339116 -0.521653
Cl3   Cl    Cl    0.312524 0.978340 0.339125 -0.521653
Cl4   Cl    Cl    0.541645 0.013172 0.678540 -0.528622
Cl5   Cl    Cl    0.234436 0.608954 0.610443 -0.355894
Cl6   Cl    Cl    0.952678 0.378319 0.367786 -0.345107
Cl7   Cl    Cl    0.452562 0.121682 0.367788 -0.345086
Cl8   Cl    Cl    0.734491 0.891069 0.610424 -0.355931
Cl9   Cl    Cl    0.953000 0.274994 0.492436 -0.434765
Cl10  Cl    Cl    0.141540 0.718915 0.498811 -0.433908
Cl11  Cl    Cl    0.641576 0.781094 0.498805 -0.433923
Cl12  Cl    Cl    0.452964 0.225006 0.492439 -0.434774

loop_
_geom_bond_atom_site_label_1
_geom_bond_atom_site_label_2
_ccdc_geom_bond_type
C33   Cl2   S    
C16   H3    S    
C32   Cl11  S    
O1    C5    A    
C28   Cl8   S    
C27   C31   A    
O13   V1    S    
O3    C7    A    
O15   V3    S    
C27   C40   A    
C26   C37   A    
C9    C18   T    
C36   C40   A    
O20   V1    S    
O9    C4    A    
C1    C11   S    
O10   C3    A    
C2    C12   S    
O4    C8    A    
O11   C2    A    
C36   Cl3   S    
C13   C18   S    
C14   H1    S    
C30   Cl9   S    
C4    C10   S    
C26   Cl6   S    
C16   C19   S    
O16   C8    A    
O2    C6    A    
O14   V2    S    
O5    C1    A    
O4    V1    S    
O9    V1    S    
C27   Cl7   S    
O17   V4    S    
O7    C3    A    
O11   V3    S    
O18   V3    S    
O8    C4    A    
O12   V4    S    
O19   V2    S    
C10   C17   T    
O5    V1    S    
C35   C39   A    
O7    V3    S    
C34   C38   A    
C39   C40   A    
O8    V4    S    
C14   C17   S    
C15   C16   D    
C25   C29   A    
C7    C22   S    
O1    V4    S    
O13   C5    A    
C21   C30   A    
C28   C32   A    
C34   Cl1   S    
O2    V3    S    
O3    V2    S    
O15   C7    A    
C13   C14   D    
C11   C20   T    
C24   C31   A    
O6    C2    A    
O10   V2    S    
C26   C30   A    
C35   Cl4   S    
C25   C38   A    
O6    V2    S    
O16   V4    S    
C8    C21   S    
C21   C34   A    
O14   C6    A    
C22   C29   A    
C29   Cl10  S    
C25   Cl5   S    
C23   C36   A    
C24   C35   A    
C31   Cl12  S    
C15   C20   S    
C28   C39   A    
C33   C37   A    
O12   C1    A    
C37   C38   A    
C22   C33   A    
C15   H4    S    
C12   C19   T    
C23   C32   A    
C13   H2    S    
C3    C9    S    
C5    C24   S    
C6    C23   S    
