data_mof_unit_12660.cif
_audit_creation_date              2012-12-10T18:43:40-0500
_audit_creation_method            fapswitch 2.2
_symmetry_space_group_name_H-M    P1
_symmetry_Int_Tables_number       1
_space_group_crystal_system       triclinic
_cell_length_a                    10.851114
_cell_length_b                    10.653886
_cell_length_c                    9.879643
_cell_angle_alpha                 89.216141
_cell_angle_beta                  103.774641
_cell_angle_gamma                 90.743507
_cell_volume                      1109.14335752

loop_
_atom_site_label
_atom_site_type_symbol
_atom_type_description
_atom_site_fract_x
_atom_site_fract_y
_atom_site_fract_z
_atom_type_partial_charge
C1    C     C_R   0.502287 0.260343 0.501501 0.895989
C2    C     C_R   0.497704 0.739654 0.498500 0.889987
C3    C     C_R   0.259490 0.502501 0.441974 0.945028
C4    C     C_R   0.740610 0.502374 0.557997 0.941309
C5    C     C_R   0.575574 0.582045 0.089252 0.434153
C6    C     C_R   0.423969 0.418359 0.910574 0.434478
C7    C     C_R   0.575457 0.581531 0.945891 -0.200287
C8    C     C_R   0.424413 0.418568 0.054050 -0.200739
C9    C     C_2   0.123692 0.511966 0.409025 -0.361446
C10   C     C_2   0.876677 0.512165 0.590809 -0.362241
C11   C     C_2   0.067928 0.529750 0.513169 -0.121862
C12   C     C_2   0.932869 0.528312 0.486069 -0.113193
C13   C     C_R   0.415276 0.067704 0.396956 -0.195250
C14   C     C_R   0.584675 0.932273 0.603059 -0.195270
C15   C     C_R   0.410977 0.938478 0.392293 0.182906
C16   C     C_R   0.588932 0.061494 0.607769 0.181850
C17   C     C_R   0.497213 0.872132 0.496595 -0.055107
C18   C     C_R   0.502747 0.127852 0.503417 -0.057524
H1    H     H_    0.879462 0.534005 0.378034 0.223308
H2    H     H_    0.121649 0.538753 0.620758 0.207954
H3    H     H_    0.930592 0.505699 0.698575 0.163650
H4    H     H_    0.069533 0.503022 0.301713 0.161735
H5    H     H_    0.635660 0.646659 0.905605 0.182736
H6    H     H_    0.364004 0.353617 0.094262 0.182400
H7    H     H_    0.349574 0.122119 0.318700 0.155881
H8    H     H_    0.650381 0.877854 0.681311 0.155926
N1    N     N_R   0.499970 0.499970 0.857200 -0.134561
N2    N     N_R   0.500030 0.500030 0.142800 -0.132907
O1    O     O_R   0.499990 0.316750 0.614620 -0.563953
O2    O     O_R   0.500010 0.683250 0.385380 -0.564218
O3    O     O_R   0.499990 0.316780 0.385290 -0.630564
O4    O     O_R   0.500010 0.683220 0.614710 -0.633617
O5    O     O_R   0.317810 0.500000 0.571850 -0.570775
O6    O     O_R   0.682190 0.500000 0.428150 -0.574040
O7    O     O_R   0.317810 0.500030 0.342520 -0.627767
O8    O     O_R   0.682190 0.499970 0.657480 -0.626844
Zn1   Zn    Zn3+2 0.500000 0.499980 0.653120 0.996837
Zn2   Zn    Zn3+2 0.500000 0.500020 0.346880 0.996873
Cl1   Cl    Cl    0.674501 0.690843 0.196210 -0.619172
Cl2   Cl    Cl    0.323163 0.311357 0.802873 -0.604007
C19   C     C_3   0.312447 0.874205 0.279880 -0.824230
H9    H     H_    0.256300 0.806301 0.327668 0.224568
H10   H     H_    0.245374 0.942454 0.216569 0.235387
H11   H     H_    0.359185 0.824208 0.208161 0.270034
C20   C     C_3   0.687341 0.125742 0.720325 -0.823109
H12   H     H_    0.743514 0.193730 0.672678 0.225009
H13   H     H_    0.640482 0.175637 0.792010 0.269280
H14   H     H_    0.754405 0.057491 0.783648 0.235403

loop_
_geom_bond_atom_site_label_1
_geom_bond_atom_site_label_2
_ccdc_geom_bond_type
C16   C20   S    
C11   C12   S    
C4    O8    A    
C15   C17   A    
C3    C9    S    
C3    O7    A    
C5    N2    A    
C19   H10   S    
C19   H9    S    
C6    N1    A    
O3    Zn2   S    
N2    Zn2   S    
C2    O2    A    
O7    Zn2   S    
C5    Cl1   S    
C10   H3    S    
C16   C18   A    
O6    Zn2   S    
C20   H12   S    
C14   H8    S    
C2    C17   S    
C9    C11   D    
C14   C17   A    
C13   H7    S    
C1    C18   S    
C10   C12   D    
C13   C18   A    
N1    Zn1   S    
C7    H5    S    
C12   H1    S    
C1    O1    A    
O8    Zn1   S    
C8    H6    S    
C4    O6    A    
C20   H13   S    
C13   C15   A    
C11   H2    S    
C19   H11   S    
C14   C16   A    
C9    H4    S    
C3    O5    A    
C15   C19   S    
C4    C10   S    
C1    O3    A    
C6    Cl2   S    
C7    N1    A    
O2    Zn2   S    
C8    N2    A    
C2    O4    A    
C20   H14   S    
O1    Zn1   S    
C5    C7    A    
C6    C8    A    
O4    Zn1   S    
O5    Zn1   S    
