data_mof_unit_43037.cif
_audit_creation_date              2012-12-10T17:29:17-0500
_audit_creation_method            fapswitch 2.2
_symmetry_space_group_name_H-M    P1
_symmetry_Int_Tables_number       1
_space_group_crystal_system       triclinic
_cell_length_a                    11.979089
_cell_length_b                    12.846002
_cell_length_c                    13.250791
_cell_angle_alpha                 87.226096
_cell_angle_beta                  113.443368
_cell_angle_gamma                 94.467442
_cell_volume                      1864.73710646

loop_
_atom_site_label
_atom_site_type_symbol
_atom_type_description
_atom_site_fract_x
_atom_site_fract_y
_atom_site_fract_z
_atom_type_partial_charge
C1    C     C_R   0.475727 0.299451 0.496770 0.907667
C2    C     C_R   0.544538 0.486445 0.980114 -0.096560
C3    C     C_R   0.531493 0.528389 0.876283 0.025224
C4    C     C_R   0.458916 0.512384 0.022145 0.063152
C5    C     C_R   0.349334 0.557650 0.953733 0.101986
C6    C     C_R   0.341577 0.603014 0.853732 -0.175225
C7    C     C_R   0.437175 0.596440 0.820745 -0.158600
C8    C     C_R   0.484077 0.501786 0.132699 -0.296688
C9    C     C_R   0.274416 0.529063 0.099263 0.428600
C10   C     C_R   0.608087 0.496741 0.827267 -0.172901
C11   C     C_R   0.538044 0.813078 0.495674 -0.183907
C12   C     C_R   0.567194 0.501212 0.708092 0.911877
C13   C     C_R   0.458740 0.188042 0.492641 -0.133950
C14   C     C_R   0.369929 0.026066 0.534508 0.495065
C15   C     C_R   0.373459 0.134387 0.526686 -0.307140
C16   C     C_R   0.536332 0.135244 0.461102 -0.260288
C17   C     C_R   0.537467 0.028155 0.471750 -0.039006
C18   C     C_R   0.455651 0.973317 0.511388 0.005812
C19   C     C_R   0.460026 0.866762 0.526263 -0.282654
C20   C     C_R   0.618731 0.867000 0.454028 -0.013444
C21   C     C_R   0.620858 0.975542 0.445588 0.491462
C22   C     C_R   0.008488 0.598136 0.395740 0.362082
C23   C     C_R   0.523312 0.700886 0.499796 0.904148
C24   C     C_R   0.129693 0.589747 0.407533 -0.104546
C25   C     C_R   0.158693 0.457680 0.545198 -0.070659
C26   C     C_R   0.038072 0.463835 0.538338 0.009438
C27   C     C_R   0.962224 0.535244 0.462386 -0.055524
C28   C     C_R   0.841673 0.541775 0.454863 -0.025067
C29   C     C_R   0.870416 0.411571 0.594080 -0.028446
C30   C     C_R   0.991476 0.401374 0.605442 0.035320
C31   C     C_R   0.433360 0.503421 0.291608 0.916162
C32   C     C_R   0.253920 0.561039 0.990421 -0.016259
C33   C     C_R   0.394265 0.510251 0.172658 -0.230351
C34   C     C_R   0.707938 0.438168 0.887266 -0.422338
C35   C     C_R   0.719922 0.393251 0.988831 0.448425
C36   C     C_R   0.636266 0.413838 0.033710 0.366306
H1    H     H_    0.312786 0.176103 0.550519 0.167614
H2    H     H_    0.599453 0.178581 0.432107 0.207757
H3    H     H_    0.781868 0.595800 0.397081 0.163357
H4    H     H_    0.833481 0.364505 0.644922 0.120054
H5    H     H_    0.166033 0.638938 0.357678 0.173749
H6    H     H_    0.264659 0.647195 0.803163 0.170132
H7    H     H_    0.218957 0.403619 0.602443 0.164860
H8    H     H_    0.577169 0.492816 0.189112 0.241742
H9    H     H_    0.769158 0.418089 0.850268 0.177587
H10   H     H_    0.433126 0.641266 0.748242 0.163209
H11   H     H_    0.399711 0.824541 0.559374 0.214178
N1    N     N_R   0.798200 0.480260 0.519790 -0.112299
N2    N     N_R   0.201820 0.519740 0.480210 -0.134356
O1    O     O_R   0.579910 0.341070 0.505280 -0.625088
O2    O     O_R   0.388440 0.353740 0.492580 -0.628700
O3    O     O_R   0.643280 0.490550 0.663120 -0.616800
O4    O     O_R   0.451810 0.503220 0.650420 -0.619368
O5    O     O_R   0.611560 0.646260 0.507420 -0.633803
O6    O     O_R   0.420090 0.658930 0.494720 -0.624333
O7    O     O_R   0.548190 0.496780 0.349580 -0.632983
O8    O     O_R   0.356720 0.509450 0.336880 -0.574345
Zn1   Zn    Zn3+2 0.627850 0.491540 0.508480 0.928602
Zn2   Zn    Zn3+2 0.372150 0.508460 0.491520 0.935336
O9    O     O_3   0.179905 0.522253 0.134664 -0.615994
C37   C     C_3   0.134231 0.416579 0.129108 0.093715
H12   H     H_    0.206364 0.359632 0.149128 0.111769
H13   H     H_    0.064394 0.400670 0.045056 0.151087
C38   C     C_3   0.075135 0.396129 0.211257 -0.719388
H14   H     H_    0.000110 0.448487 0.193484 0.246650
H15   H     H_    0.037751 0.314006 0.206329 0.226349
H16   H     H_    0.143786 0.408754 0.296004 0.254447
N3    N     N_3   0.695387 0.814365 0.415679 -0.414158
H17   H     H_    0.759505 0.775502 0.482016 0.202592
H18   H     H_    0.641612 0.760754 0.355969 0.197107
O10   O     O_3   0.288726 0.972755 0.572152 -0.624884
C39   C     C_3   0.177167 0.953026 0.481398 0.069647
H19   H     H_    0.190424 0.911129 0.415557 0.150406
H20   H     H_    0.133815 0.027490 0.446792 0.142855
C40   C     C_3   0.091109 0.884309 0.519030 -0.780067
H21   H     H_    0.076472 0.923129 0.585468 0.241742
H22   H     H_    0.001879 0.870532 0.448883 0.244371
H23   H     H_    0.130388 0.807897 0.550417 0.254336
O11   O     O_3   0.697088 0.029322 0.402432 -0.612520
C41   C     C_3   0.811657 0.051242 0.488796 0.088263
H24   H     H_    0.855991 0.977727 0.525637 0.153061
H25   H     H_    0.802731 0.096951 0.554333 0.125832
C42   C     C_3   0.893802 0.115753 0.443319 -0.830222
H26   H     H_    0.856092 0.192843 0.412624 0.259915
H27   H     H_    0.986315 0.128404 0.509132 0.200556
H28   H     H_    0.900974 0.074119 0.374777 0.263988
O12   O     O_3   0.938308 0.672172 0.324301 -0.626021
C43   C     C_3   0.883034 0.629993 0.217961 0.066834
H29   H     H_    0.841083 0.549439 0.218998 0.156609
H30   H     H_    0.951499 0.628890 0.180855 0.171620
C44   C     C_3   0.781945 0.698185 0.145642 -0.800467
H31   H     H_    0.819608 0.779372 0.141924 0.260883
H32   H     H_    0.739687 0.666994 0.061080 0.213826
H33   H     H_    0.710782 0.698630 0.179530 0.250641
N4    N     N_3   0.066899 0.329520 0.685488 -0.471280
H34   H     H_    0.021153 0.294900 0.732528 0.165980
H35   H     H_    0.081456 0.269346 0.642670 0.176021
N5    N     N_3   0.137736 0.596073 0.917736 -0.460319
H36   H     H_    0.071569 0.535125 0.908622 0.196743
H37   H     H_    0.117736 0.658127 0.954664 0.210759
O13   O     O_3   0.641662 0.356837 0.126629 -0.603721
C45   C     C_3   0.559189 0.268063 0.094211 0.101782
H38   H     H_    0.590913 0.212529 0.050902 0.154159
H39   H     H_    0.465441 0.289447 0.039556 0.130040
C46   C     C_3   0.552725 0.213388 0.196184 -0.771603
H40   H     H_    0.518674 0.266608 0.239677 0.240021
H41   H     H_    0.489917 0.142220 0.172589 0.209974
H42   H     H_    0.644759 0.190557 0.252278 0.291376
O14   O     O_3   0.809339 0.324541 0.044577 -0.595849
C47   C     C_3   0.801866 0.239849 0.977166 0.086762
H43   H     H_    0.855143 0.260887 0.926160 0.132126
H44   H     H_    0.705863 0.215964 0.922240 0.125296
C48   C     C_3   0.855985 0.145789 0.049546 -0.833959
H45   H     H_    0.808521 0.126038 0.105575 0.267812
H46   H     H_    0.845060 0.077579 0.997295 0.207279
H47   H     H_    0.954608 0.162681 0.099111 0.239943

loop_
_geom_bond_atom_site_label_1
_geom_bond_atom_site_label_2
_ccdc_geom_bond_type
O12   C43   S    
O13   C45   S    
O6    Zn2   S    
C14   O10   S    
C14   C18   A    
C35   C36   A    
C4    C8    A    
C25   H7    S    
O4    Zn2   S    
C46   H41   S    
C11   C19   A    
C26   C27   A    
C30   N4    S    
C18   C19   A    
C3    C7    A    
C41   C42   S    
C5    C6    A    
C45   H39   S    
C19   H11   S    
O8    Zn2   S    
C45   C46   S    
C34   C35   A    
C37   H13   S    
C47   H43   S    
C15   H1    S    
C9    C32   A    
N4    H34   S    
O7    Zn1   S    
C16   C17   A    
C31   C33   S    
C31   O7    A    
C1    O1    A    
C12   O4    A    
C35   O14   S    
C39   H19   S    
C5    C32   A    
C9    C33   A    
C24   H5    S    
C37   H12   S    
C39   C40   S    
C10   C12   S    
C12   O3    A    
C47   H44   S    
C46   H42   S    
C11   C20   A    
C29   N1    A    
O1    Zn1   S    
C38   H16   S    
C39   H20   S    
C44   H31   S    
N3    H17   S    
C28   H3    S    
C25   C26   A    
C17   C21   A    
C36   O13   S    
C38   H15   S    
C37   C38   S    
C2    C4    A    
C40   H21   S    
C7    H10   S    
C29   C30   A    
C44   H32   S    
C1    O2    A    
C42   H26   S    
C43   C44   S    
C21   O11   S    
C17   C18   A    
C10   C34   A    
C34   H9    S    
C22   O12   S    
C20   C21   A    
N1    Zn1   S    
C40   H22   S    
C47   C48   S    
O3    Zn1   S    
C41   H25   S    
C42   H27   S    
C43   H30   S    
C26   C30   A    
N5    H37   S    
C22   C27   A    
C13   C15   A    
C22   C24   A    
C1    C13   S    
C23   O5    A    
C48   H45   S    
O5    Zn1   S    
C2    C36   A    
C24   N2    A    
C28   N1    A    
C20   N3    S    
C8    H8    S    
C41   H24   S    
N4    H35   S    
C23   O6    A    
C6    C7    A    
C46   H40   S    
N2    Zn2   S    
C9    O9    S    
C38   H14   S    
C48   H47   S    
C2    C3    A    
O10   C39   S    
C3    C10   A    
O14   C47   S    
C44   H33   S    
C31   O8    A    
C29   H4    S    
C11   C23   S    
C32   N5    S    
C8    C33   A    
C45   H38   S    
C40   H23   S    
C25   N2    A    
O11   C41   S    
C4    C5    A    
C42   H28   S    
O2    Zn2   S    
C43   H29   S    
N3    H18   S    
N5    H36   S    
C6    H6    S    
C13   C16   A    
C27   C28   A    
C14   C15   A    
O9    C37   S    
C16   H2    S    
C48   H46   S    
