data_mof_unit_36835.cif
_audit_creation_date              2012-12-10T20:31:54-0500
_audit_creation_method            fapswitch 2.2
_symmetry_space_group_name_H-M    P1
_symmetry_Int_Tables_number       1
_space_group_crystal_system       triclinic
_cell_length_a                    9.865732
_cell_length_b                    10.676935
_cell_length_c                    15.338428
_cell_angle_alpha                 90.361132
_cell_angle_beta                  68.338464
_cell_angle_gamma                 89.62123
_cell_volume                      1501.48725379

loop_
_atom_site_label
_atom_site_type_symbol
_atom_type_description
_atom_site_fract_x
_atom_site_fract_y
_atom_site_fract_z
_atom_type_partial_charge
C1    C     C_R   0.503062 0.740082 0.494450 0.916084
C2    C     C_R   0.437137 0.411421 0.902972 0.099570
C3    C     C_R   0.298858 0.359855 0.952928 0.172403
C4    C     C_R   0.548101 0.407807 0.940532 -0.069486
C5    C     C_R   0.507480 0.385890 0.037514 0.035429
C6    C     C_R   0.369328 0.332299 0.086722 -0.207388
C7    C     C_R   0.269045 0.314650 0.043191 -0.261167
C8    C     C_R   0.697879 0.427099 0.885221 0.486156
C9    C     C_R   0.794439 0.457943 0.928628 -0.299508
C10   C     C_R   0.747306 0.463037 0.026014 0.023028
C11   C     C_R   0.604868 0.423227 0.081448 0.098127
C12   C     C_R   0.409217 0.496144 0.676403 0.857694
C13   C     C_R   0.840118 0.511329 0.068133 -0.291318
C14   C     C_R   0.792659 0.524044 0.166124 0.534711
C15   C     C_R   0.559529 0.434568 0.178888 -0.326141
C16   C     C_R   0.388031 0.937628 0.482092 0.083975
C17   C     C_R   0.513691 0.871372 0.475281 -0.231657
C18   C     C_R   0.649082 0.934122 0.448298 0.538389
C19   C     C_R   0.646078 0.065720 0.449671 -0.357701
C20   C     C_R   0.511658 0.128915 0.478856 -0.176081
C21   C     C_R   0.387166 0.064917 0.484304 0.144363
C22   C     C_3   0.235300 0.073565 0.554928 -0.467692
C23   C     C_R   0.502492 0.260010 0.496232 0.905353
C24   C     C_3   0.235144 0.931783 0.552004 -0.485475
C25   C     C_R   0.882908 0.527689 0.580025 0.300609
C26   C     C_R   0.971708 0.458768 0.424103 -0.145739
C27   C     C_R   0.115797 0.459588 0.423770 -0.150272
C28   C     C_R   0.025039 0.525545 0.580507 0.227927
C29   C     C_3   0.998949 0.642391 0.637778 -0.520216
C30   C     C_3   0.846807 0.647164 0.635007 -0.492348
C31   C     C_R   0.591195 0.499344 0.323489 0.912146
C32   C     C_R   0.357090 0.465298 0.776173 -0.085954
C33   C     C_R   0.649829 0.486973 0.221083 -0.168940
C34   C     C_R   0.192567 0.356835 0.912022 -0.230534
C35   C     C_R   0.223321 0.406368 0.822464 -0.215948
C36   C     C_R   0.457618 0.473951 0.819834 -0.201603
H1    H     H_    0.165149 0.271771 0.081982 0.142726
H2    H     H_    0.946222 0.545650 0.024160 0.155511
H3    H     H_    0.745731 0.118441 0.432146 0.173832
H4    H     H_    0.230136 0.112772 0.623464 0.199111
H5    H     H_    0.158702 0.117043 0.525660 0.198857
H6    H     H_    0.227726 0.888209 0.619276 0.199406
H7    H     H_    0.159344 0.895070 0.519709 0.195348
H8    H     H_    0.952590 0.426146 0.362898 0.153785
H9    H     H_    0.205161 0.428642 0.361595 0.146653
H10   H     H_    0.450654 0.408877 0.223475 0.164407
H11   H     H_    0.069317 0.719494 0.599567 0.205863
H12   H     H_    0.760276 0.636638 0.705259 0.222275
H13   H     H_    0.829346 0.726522 0.593789 0.207369
H14   H     H_    0.905654 0.481330 0.885592 0.163315
H15   H     H_    0.087381 0.314557 0.948445 0.147315
H16   H     H_    0.144953 0.396119 0.788771 0.159990
H17   H     H_    0.553181 0.529949 0.787439 0.188376
H18   H     H_    0.337546 0.300604 0.158107 0.138258
N1    N     N_R   0.856900 0.500860 0.500610 -0.110004
N2    N     N_R   0.142540 0.500820 0.500610 -0.108940
O1    O     O_R   0.385310 0.683210 0.499990 -0.618161
O2    O     O_R   0.614650 0.683240 0.500000 -0.559204
O3    O     O_R   0.319830 0.499970 0.632240 -0.614893
O4    O     O_R   0.549170 0.500000 0.632250 -0.607802
O5    O     O_R   0.385350 0.316760 0.500000 -0.616820
O6    O     O_R   0.614690 0.316790 0.500010 -0.627885
O7    O     O_R   0.450830 0.500000 0.367750 -0.632250
O8    O     O_R   0.680170 0.500030 0.367760 -0.567593
Zn1   Zn    Zn3+2 0.346870 0.499980 0.499990 0.935636
Zn2   Zn    Zn3+2 0.653130 0.500020 0.500010 0.985281
O9    O     O_3   0.778725 0.864635 0.417797 -0.559374
C37   C     C_3   0.885264 0.916555 0.448138 -0.308717
H19   H     H_    0.966660 0.842416 0.444269 0.190581
H20   H     H_    0.838182 0.950270 0.522284 0.138333
H21   H     H_    0.944664 0.992551 0.400506 0.162789
H22   H     H_    0.999532 0.624941 0.709029 0.215566
O10   O     O_3   0.875038 0.587744 0.208291 -0.579140
C38   C     C_3   0.016133 0.534738 0.181438 -0.285535
H23   H     H_    0.012507 0.430916 0.187648 0.131688
H24   H     H_    0.086401 0.563460 0.109596 0.170174
H25   H     H_    0.068010 0.571138 0.229353 0.196173
O11   O     O_3   0.752996 0.415488 0.788582 -0.639679
C39   C     C_3   0.773181 0.287207 0.764624 -0.321600
H26   H     H_    0.667642 0.236606 0.789436 0.174041
H27   H     H_    0.850992 0.242689 0.792598 0.159927
H28   H     H_    0.820732 0.278146 0.687061 0.184217

loop_
_geom_bond_atom_site_label_1
_geom_bond_atom_site_label_2
_ccdc_geom_bond_type
O7    Zn1   S    
C16   C21   A    
C24   H6    S    
O10   C38   S    
C19   C20   A    
C4    C8    A    
C26   N1    A    
C14   C33   A    
C28   N2    A    
C26   H8    S    
C25   C28   A    
C34   H15   S    
C38   H24   S    
C29   H11   S    
C32   C36   A    
C30   H12   S    
C28   C29   S    
C5    C11   A    
C3    C7    A    
C5    C6    A    
C22   H5    S    
N2    Zn1   S    
C18   C19   A    
C34   C35   A    
C36   H17   S    
C37   H19   S    
C12   O3    A    
C11   C15   A    
O2    Zn2   S    
C23   O6    A    
C8    C9    A    
C38   H25   S    
C31   C33   S    
C9    C10   A    
C29   H22   S    
C27   H9    S    
O4    Zn2   S    
C16   C24   S    
C21   C22   S    
C12   C32   S    
C8    O11   S    
C6    H18   S    
C38   H23   S    
O6    Zn2   S    
O9    C37   S    
C14   O10   S    
C31   O7    A    
C39   H27   S    
C27   N2    A    
C16   C17   A    
C3    C34   A    
C18   O9    S    
O8    Zn2   S    
C2    C4    A    
C32   C35   A    
C29   C30   S    
C1    O1    A    
C20   C23   S    
C22   H4    S    
C17   C18   A    
C7    H1    S    
C13   H2    S    
C19   H3    S    
C30   H13   S    
C26   C27   A    
C22   C24   S    
N1    Zn2   S    
C2    C36   A    
C25   C30   S    
O11   C39   S    
C31   O8    A    
C9    H14   S    
C25   N1    A    
O1    Zn1   S    
C4    C5    A    
C10   C13   A    
C39   H28   S    
C6    C7    A    
C1    C17   S    
C2    C3    A    
C1    O2    A    
O3    Zn1   S    
C37   H21   S    
C10   C11   A    
C39   H26   S    
C12   O4    A    
O5    Zn1   S    
C23   O5    A    
C20   C21   A    
C37   H20   S    
C35   H16   S    
C24   H7    S    
C15   H10   S    
C13   C14   A    
C15   C33   A    
