data_mof_unit_47671.cif
_audit_creation_date              2013-03-05T15:49:57-0500
_audit_creation_method            fapswitch 2.2
_symmetry_space_group_name_H-M    P1
_symmetry_Int_Tables_number       1
_space_group_crystal_system       triclinic
_cell_length_a                    6.943192
_cell_length_b                    19.944908
_cell_length_c                    23.74117
_cell_angle_alpha                 93.535062
_cell_angle_beta                  91.096704
_cell_angle_gamma                 88.79532
_cell_volume                      3280.20316679

loop_
_atom_site_label
_atom_site_type_symbol
_atom_site_description
_atom_site_fract_x
_atom_site_fract_y
_atom_site_fract_z
_atom_type_partial_charge
O1    O     O_R   0.620100 0.812200 0.810870 -0.597420
O2    O     O_R   0.379900 0.187800 0.189130 -0.597420
O3    O     O_R   0.296960 0.671650 0.794750 -0.594505
O4    O     O_R   0.703040 0.328350 0.205250 -0.594495
O5    O     O_R   0.120160 0.687800 0.689130 -0.590491
O6    O     O_R   0.879840 0.312200 0.310870 -0.590544
C1    C     C_R   0.468171 0.646957 0.804438 0.923481
C2    C     C_R   0.531828 0.353042 0.195561 0.923473
O7    O     O_R   0.290810 0.810670 0.817290 -0.601670
O8    O     O_R   0.709190 0.189330 0.182710 -0.601669
O9    O     O_R   0.113980 0.827820 0.711840 -0.586408
O10   O     O_R   0.886020 0.172180 0.288160 -0.586410
C3    C     C_R   0.459462 0.831900 0.834241 0.953503
C4    C     C_R   0.540537 0.168100 0.165759 0.953507
O11   O     O_R   0.626290 0.672180 0.788160 -0.590614
O12   O     O_R   0.373710 0.327820 0.211840 -0.590616
O13   O     O_3   0.451520 0.755460 0.715370 -0.263850
O14   O     O_3   0.548480 0.244540 0.284630 -0.263864
V1    V     V_3+5 0.179200 0.748980 0.756420 1.164178
V2    V     V_3+5 0.820800 0.251020 0.243580 1.164160
O15   O     O_R   0.783880 0.828350 0.705250 -0.585443
O16   O     O_R   0.216120 0.171650 0.294750 -0.585415
C5    C     C_R   0.950528 0.852573 0.694761 0.954112
C6    C     C_R   0.049472 0.147427 0.305239 0.954156
O17   O     O_R   0.790030 0.689320 0.682700 -0.600428
O18   O     O_R   0.209970 0.310680 0.317300 -0.600468
C7    C     C_R   0.959018 0.667987 0.665893 0.947298
C8    C     C_R   0.040980 0.332011 0.334110 0.947402
V3    V     V_3+5 0.678400 0.751010 0.743570 1.170975
V4    V     V_3+5 0.321600 0.248990 0.256430 1.170972
O19   O     O_3   0.955950 0.744540 0.784620 -0.278543
O20   O     O_3   0.044050 0.255460 0.215380 -0.278537
C9    C     C_R   0.875908 0.428030 0.387327 -0.139478
C10   C     C_R   0.123929 0.571877 0.612745 -0.138713
C11   C     C_R   0.029970 0.381626 0.383205 -0.189744
C12   C     C_R   0.970003 0.618343 0.616819 -0.189769
C13   C     C_R   0.171692 0.382615 0.425871 -0.150847
C14   C     C_R   0.828341 0.617368 0.574138 -0.150675
C15   C     C_R   0.159453 0.428470 0.473398 -0.022974
C16   C     C_R   0.840453 0.571433 0.526666 -0.022769
C17   C     C_R   0.005553 0.476338 0.476638 -0.005622
C18   C     C_R   0.994273 0.523533 0.523450 -0.005826
C19   C     C_R   0.862401 0.476545 0.433100 0.160129
C20   C     C_R   0.137369 0.523314 0.567000 0.159946
C21   C     C_R   0.299131 0.427094 0.517419 0.313270
C22   C     C_R   0.700745 0.572786 0.482664 0.313598
C23   C     C_R   0.290414 0.474815 0.564013 0.109788
C24   C     C_R   0.709229 0.524992 0.436129 0.109668
H1    H     H_    0.768611 0.426327 0.353678 0.131861
H2    H     H_    0.231224 0.573595 0.646394 0.131743
H3    H     H_    0.290301 0.346616 0.421961 0.174937
H4    H     H_    0.709880 0.653440 0.577983 0.174717
C25   C     C_R   0.952782 0.915196 0.664503 -0.139600
C26   C     C_R   0.047218 0.084805 0.335497 -0.139623
C27   C     C_R   0.924501 0.036402 0.663343 -0.210522
C28   C     C_R   0.075500 0.963599 0.336657 -0.210462
C29   C     C_R   0.925670 0.978388 0.693595 0.306906
C30   C     C_R   0.074331 0.021612 0.306405 0.306876
C31   C     C_R   0.978973 0.911498 0.605654 -0.291326
C32   C     C_R   0.021027 0.088502 0.394346 -0.291238
C33   C     C_R   0.977518 0.970234 0.574326 0.121217
C34   C     C_R   0.022482 0.029767 0.425674 0.121195
C35   C     C_R   0.949509 0.032954 0.604708 0.116451
C36   C     C_R   0.050492 0.967046 0.395293 0.116404
C37   C     C_R   0.002054 0.969124 0.514168 0.058663
C38   C     C_R   0.997946 0.030877 0.485832 0.058673
C39   C     C_R   0.969570 0.091580 0.518628 -0.165479
C40   C     C_R   0.030431 0.908420 0.481372 -0.165533
C41   C     C_R   0.946103 0.092370 0.576608 -0.187486
C42   C     C_R   0.053898 0.907630 0.423393 -0.187369
H5    H     H_    0.924664 0.140413 0.599815 0.148682
H6    H     H_    0.075337 0.859587 0.400185 0.148742
H7    H     H_    0.001361 0.138114 0.414253 0.127827
H8    H     H_    0.998639 0.861886 0.585747 0.127788
H9    H     H_    0.903486 0.084888 0.685944 0.137485
H10   H     H_    0.096516 0.915112 0.314056 0.137514
H11   H     H_    0.964503 0.139913 0.500792 0.150501
H12   H     H_    0.035498 0.860087 0.499208 0.150480
C43   C     C_R   0.487093 0.585569 0.835584 -0.099448
C44   C     C_R   0.512906 0.414429 0.164414 -0.099450
C45   C     C_R   0.585682 0.468784 0.836765 -0.170123
C46   C     C_R   0.414319 0.531215 0.163233 -0.170085
C47   C     C_R   0.551226 0.526102 0.807300 -0.167098
C48   C     C_R   0.448775 0.473897 0.192698 -0.167048
C49   C     C_R   0.458133 0.587568 0.894074 -0.246101
C50   C     C_R   0.541862 0.412431 0.105925 -0.246105
C51   C     C_R   0.496815 0.530085 0.925547 0.109541
C52   C     C_R   0.503181 0.469913 0.074452 0.109543
C53   C     C_R   0.560824 0.470336 0.895366 0.181730
C54   C     C_R   0.439175 0.529663 0.104632 0.181701
C55   C     C_R   0.477515 0.529967 0.985689 0.061441
C56   C     C_R   0.522482 0.470031 0.014309 0.061447
C57   C     C_R   0.584381 0.412202 0.981809 -0.197609
C58   C     C_R   0.415617 0.587796 0.018189 -0.197610
C59   C     C_R   0.602522 0.412530 0.923734 -0.235593
C60   C     C_R   0.397478 0.587468 0.076264 -0.235566
H13   H     H_    0.651414 0.366862 0.900731 0.135196
H14   H     H_    0.348589 0.633136 0.099267 0.135212
H15   H     H_    0.588616 0.364852 0.086382 0.103049
H16   H     H_    0.411375 0.635145 0.913616 0.103049
H17   H     H_    0.424007 0.475754 0.237709 0.113978
H18   H     H_    0.575996 0.524245 0.762289 0.113993
H19   H     H_    0.635329 0.423258 0.813741 0.122758
H20   H     H_    0.364674 0.576741 0.186257 0.122794
H21   H     H_    0.621044 0.365381 0.999946 0.131616
H22   H     H_    0.378957 0.634617 0.000052 0.131619
C61   C     C_R   0.684907 0.074029 0.103983 -0.252499
C62   C     C_R   0.315093 0.925971 0.896017 -0.252505
C63   C     C_R   0.529994 0.118927 0.116246 -0.143470
C64   C     C_R   0.470006 0.881073 0.883754 -0.143468
C65   C     C_R   0.363168 0.115856 0.081540 -0.254994
C66   C     C_R   0.636832 0.884144 0.918460 -0.254989
C67   C     C_R   0.351210 0.069257 0.034796 0.152019
C68   C     C_R   0.648790 0.930743 0.965204 0.152014
C69   C     C_R   0.506089 0.023851 0.023257 0.028111
C70   C     C_R   0.493911 0.976149 0.976743 0.028111
C71   C     C_R   0.673005 0.026003 0.058196 0.148923
C72   C     C_R   0.326994 0.973997 0.941804 0.148927
C73   C     C_R   0.187090 0.067261 0.999305 -0.219266
C74   C     C_R   0.812909 0.932739 0.000695 -0.219258
C75   C     C_R   0.175268 0.020165 0.953184 -0.207815
C76   C     C_R   0.824731 0.979834 0.046816 -0.207804
H23   H     H_    0.813268 0.075595 0.130746 0.140103
H24   H     H_    0.186732 0.924405 0.869254 0.140103
H25   H     H_    0.243352 0.150360 0.090513 0.139705
H26   H     H_    0.756648 0.849640 0.909487 0.139705
H27   H     H_    0.067073 0.101899 0.007416 0.141808
H28   H     H_    0.932927 0.898101 0.992584 0.141811
H29   H     H_    0.046574 0.019555 0.926614 0.146236
H30   H     H_    0.953425 0.980445 0.073386 0.146238
N1    N     N_R   0.445971 0.375346 0.515773 0.227511
O21   O     O_R   0.401335 0.313570 0.523377 -0.402023
O22   O     O_R   0.623107 0.389517 0.505264 -0.424703
N2    N     N_R   0.554305 0.624658 0.484214 0.227406
O23   O     O_R   0.599106 0.686222 0.475842 -0.401595
O24   O     O_R   0.377571 0.610873 0.495558 -0.424808
C77   C     C_3   0.441346 0.473214 0.611067 -0.920829
H31   H     H_    0.549195 0.431847 0.605276 0.288441
H32   H     H_    0.521082 0.521028 0.613934 0.243194
H33   H     H_    0.370538 0.466387 0.651813 0.227355
C78   C     C_3   0.557772 0.526435 0.389215 -0.921652
H34   H     H_    0.449265 0.567562 0.395217 0.288294
H35   H     H_    0.627983 0.533498 0.348422 0.227864
H36   H     H_    0.478772 0.478473 0.386338 0.242984
C79   C     C_3   0.101822 0.013439 0.243396 -1.029113
H37   H     H_    0.096337 0.061697 0.222575 0.241850
H38   H     H_    0.243918 0.988845 0.234536 0.257123
H39   H     H_    0.986840 0.981289 0.223907 0.249944
C80   C     C_3   0.898179 0.986561 0.756604 -1.029148
H40   H     H_    0.903664 0.938303 0.777425 0.241859
H41   H     H_    0.013162 0.018711 0.776093 0.249938
H42   H     H_    0.756084 0.011156 0.765465 0.257117

loop_
_geom_bond_atom_site_label_1
_geom_bond_atom_site_label_2
_geom_bond_distance
_ccdc_geom_bond_type
C4    C63   1.485469 S    
C43   C47   1.395337 A    
C28   H10   1.085118 S    
C47   H18   1.083868 S    
C51   C55   1.436829 A    
C61   C63   1.408154 A    
C17   C18   1.413702 A    
C39   H11   1.076188 S    
C61   H23   1.084451 S    
O4    C2    1.299025 A    
V1    O19   1.706337 S    
C78   H35   1.110488 S    
C66   C68   1.405273 A    
C79   H37   1.108432 S    
C25   C31   1.409601 A    
C30   C79   1.510072 S    
C15   C17   1.417897 A    
C26   C32   1.409601 A    
C16   C22   1.412995 A    
C77   H32   1.110539 S    
O9    V1    1.988668 S    
C27   C35   1.403462 A    
C11   C13   1.398181 A    
O3    C1    1.299025 A    
C80   H41   1.110585 S    
C26   C30   1.410189 A    
C74   H28   1.083643 S    
C13   H3    1.082676 S    
C50   C52   1.424739 A    
C14   H4    1.082755 S    
C6    C26   1.479249 S    
C69   C70   1.414945 A    
C32   H7    1.077143 S    
O13   V3    1.702546 S    
C32   C34   1.425582 A    
C41   H5    1.084413 S    
O7    C3    1.301630 A    
C44   C50   1.404916 A    
C57   H21   1.075947 S    
C67   C73   1.403938 A    
O7    V1    1.995178 S    
O6    C8    1.296299 A    
C52   C56   1.436830 A    
C8    C11   1.483787 S    
O8    V2    1.995179 S    
C69   C71   1.412060 A    
C60   H14   1.084368 S    
C65   H25   1.084288 S    
C34   C36   1.416629 A    
C28   C36   1.403462 A    
O3    V1    1.991736 S    
O14   V4    1.702546 S    
C36   C42   1.394866 A    
C28   C30   1.398777 A    
V4    O20   2.147849 S    
C19   C24   1.421626 A    
C66   H26   1.084289 S    
C20   C23   1.421651 A    
C44   C48   1.395336 A    
C15   C21   1.413195 A    
C27   H9    1.085116 S    
C21   C23   1.415470 A    
C38   C39   1.410854 A    
C2    O12   1.292721 A    
O5    C7    1.296298 A    
O17   V3    1.996626 S    
C48   H17   1.083866 S    
C17   C19   1.420340 A    
C23   C77   1.518350 S    
C18   C20   1.420277 A    
C62   H24   1.084451 S    
V2    O20   1.706338 S    
O1    V3    1.992418 S    
C79   H38   1.110459 S    
C74   C76   1.400352 A    
O11   V3    1.991837 S    
C73   C75   1.400352 A    
O15   C5    1.297538 A    
C40   H12   1.076188 S    
C77   H33   1.110528 S    
C22   C24   1.415258 A    
C31   C33   1.425581 A    
C10   H2    1.081314 S    
C34   C38   1.440342 A    
C49   C51   1.424740 A    
C9    C19   1.412964 A    
C35   C41   1.394866 A    
C10   C20   1.413048 A    
O8    C4    1.301630 A    
C78   H36   1.110493 S    
C55   C56   1.436835 A    
C25   C29   1.410191 A    
O13   V1    2.153568 S    
N2    O24   1.299954 A    
C1    O11   1.292722 A    
O15   V3    1.997379 S    
C29   C80   1.510072 S    
C39   C41   1.388299 A    
C72   C75   1.403616 A    
C53   C59   1.393158 A    
C71   C76   1.403616 A    
C3    C64   1.485467 S    
C62   C72   1.406223 A    
C22   N2    1.434577 S    
C37   C40   1.410855 A    
O10   V2    1.988670 S    
C33   C35   1.416632 A    
C65   C67   1.405273 A    
C58   C60   1.387336 A    
C50   H15   1.076867 S    
C31   H8    1.077143 S    
C40   C42   1.388297 A    
C52   C54   1.419750 A    
C21   N1    1.434751 S    
C46   C48   1.390766 A    
C27   C29   1.398778 A    
O16   C6    1.297539 A    
C80   H42   1.110459 S    
O1    C3    1.297914 A    
O12   V4    1.991837 S    
N1    O21   1.300918 A    
C43   C49   1.404916 A    
C79   H39   1.110585 S    
C12   C14   1.398150 A    
C1    C43   1.471157 S    
C45   H19   1.083944 S    
C58   H22   1.075945 S    
O16   V4    1.997377 S    
C75   H29   1.083708 S    
C16   C18   1.417893 A    
N1    O22   1.299926 A    
C45   C47   1.390769 A    
C68   C70   1.411142 A    
C59   H13   1.084372 S    
C54   C60   1.393156 A    
N2    O23   1.300964 A    
O5    V1    1.991162 S    
C7    C12   1.483751 S    
O17   C7    1.301124 A    
C76   H30   1.083708 S    
O6    V2    1.991161 S    
C77   H31   1.106506 S    
O10   C6    1.296002 A    
O18   C8    1.301140 A    
C46   C54   1.403568 A    
O2    V4    1.992417 S    
C63   C65   1.408739 A    
C45   C53   1.403568 A    
C13   C15   1.410674 A    
C49   H16   1.076871 S    
C80   H40   1.108432 S    
C55   C58   1.411562 A    
C14   C16   1.410583 A    
C57   C59   1.387338 A    
C62   C64   1.408155 A    
C5    C25   1.479250 S    
O9    C5    1.296002 A    
C56   C57   1.411561 A    
C9    C11   1.400570 A    
C10   C12   1.400608 A    
C70   C72   1.412062 A    
C24   C78   1.518252 S    
O14   V2    2.153569 S    
O2    C4    1.297915 A    
C64   C66   1.408740 A    
O4    V2    1.991734 S    
C33   C37   1.440340 A    
V3    O19   2.147850 S    
C37   C38   1.438862 A    
C2    C44   1.471160 S    
C51   C53   1.419751 A    
C46   H20   1.083942 S    
C42   H6    1.084414 S    
C78   H34   1.106554 S    
C9    H1    1.081317 S    
C61   C71   1.406226 A    
C68   C74   1.403938 A    
C67   C69   1.411143 A    
O18   V4    1.996626 S    
C73   H27   1.083644 S    
