data_mof_unit_65228.cif
_audit_creation_date              2012-10-26T20:17:57-0400
_audit_creation_method            fapswitch 2.2
_symmetry_space_group_name_H-M    P1
_symmetry_Int_Tables_number       1
_space_group_crystal_system       triclinic
_cell_length_a                    13.86302
_cell_length_b                    11.047051
_cell_length_c                    9.827959
_cell_angle_alpha                 111.162589
_cell_angle_beta                  92.921926
_cell_angle_gamma                 91.90987
_cell_volume                      1399.6139641

loop_
_atom_site_label
_atom_site_type_symbol
_atom_type_description
_atom_site_fract_x
_atom_site_fract_y
_atom_site_fract_z
_atom_type_partial_charge
C1    C     C_R   0.493161 0.254289 0.441546 0.559138
C2    C     C_2   0.492007 0.488779 0.919849 -0.020962
C3    C     C_1   0.131794 0.507510 0.550889 -0.048100
C4    C     C_1   0.868206 0.492490 0.449111 -0.048100
C5    C     C_2   0.489447 0.115047 0.408661 -0.127049
C6    C     C_2   0.510553 0.884953 0.591339 -0.127049
C7    C     C_2   0.501742 0.069525 0.516343 -0.159666
C8    C     C_2   0.498258 0.930475 0.483657 -0.159666
C9    C     C_R   0.506838 0.745711 0.558454 0.559138
C10   C     C_R   0.319580 0.503582 0.524347 0.550966
C11   C     C_R   0.680420 0.496418 0.475653 0.550966
C12   C     C_1   0.782212 0.494027 0.459535 -0.016293
C13   C     C_1   0.217788 0.505973 0.540465 -0.016293
C14   C     C_2   0.971186 0.491200 0.440323 -0.118973
C15   C     C_2   0.028814 0.508800 0.559677 -0.118973
C16   C     C_2   0.507993 0.511221 0.080151 -0.020962
Cu1   Cu    Cu3+1 0.516510 0.521490 0.642840 0.943484
Cu2   Cu    Cu3+1 0.483490 0.478510 0.357160 0.943484
H1    H     H_    0.485491 0.864969 0.370389 0.156968
H2    H     H_    0.001013 0.475764 0.335593 0.136965
H3    H     H_    0.514508 0.135031 0.629611 0.156968
H4    H     H_    0.523352 0.950755 0.704403 0.104672
H5    H     H_    0.476648 0.049245 0.295597 0.104672
H6    H     H_    0.437313 0.415658 0.854086 0.146750
H7    H     H_    0.562686 0.584343 0.145915 0.146750
H8    H     H_    0.592262 0.623338 0.922786 0.203945
H9    H     H_    0.407738 0.376662 0.077214 0.203945
H10   H     H_    0.998987 0.524236 0.664407 0.136965
N1    N     N_2   0.458660 0.446210 0.142550 -0.350346
N2    N     N_2   0.541340 0.553790 0.857450 -0.350346
O1    O     O_R   0.508810 0.332170 0.576290 -0.497300
O2    O     O_R   0.491190 0.667830 0.423710 -0.497300
O3    O     O_R   0.480920 0.295870 0.335040 -0.489145
O4    O     O_R   0.519080 0.704130 0.664960 -0.489145
O5    O     O_R   0.378070 0.520740 0.637680 -0.491108
O6    O     O_R   0.621930 0.479260 0.362320 -0.491108
O7    O     O_R   0.350180 0.484440 0.396440 -0.483945
O8    O     O_R   0.649820 0.515560 0.603560 -0.483945

loop_
_geom_bond_atom_site_label_1
_geom_bond_atom_site_label_2
_ccdc_geom_bond_type
C11   O8    A    
C11   C12   S    
C10   O5    A    
C4    C12   T    
C2    C16   S    
C3    C13   T    
C2    N2    D    
C6    C9    S    
Cu1   Cu2   S    
C1    O3    A    
C7    C8    S    
Cu2   N1    S    
C2    H6    S    
Cu1   N2    S    
C15   H10   S    
C10   O7    A    
C1    C5    S    
C11   O6    A    
Cu2   O7    S    
H8    N2    S    
Cu1   O8    S    
C4    C14   S    
C9    O4    A    
Cu1   O1    S    
Cu2   O3    S    
C8    H1    S    
Cu2   O2    S    
Cu1   O4    S    
C6    H4    S    
C14   H2    S    
C1    O1    A    
C3    C15   S    
H9    N1    S    
C16   H7    S    
C5    C7    D    
C14   C15   D    
C6    C8    D    
Cu1   O5    S    
C9    O2    A    
C16   N1    D    
C7    H3    S    
Cu2   O6    S    
C10   C13   S    
C5    H5    S    
