data_mof_unit_57116.cif
_audit_creation_date              2012-12-11T14:13:31-0500
_audit_creation_method            fapswitch 2.2
_symmetry_space_group_name_H-M    P1
_symmetry_Int_Tables_number       1
_space_group_crystal_system       triclinic
_cell_length_a                    11.705558
_cell_length_b                    18.576375
_cell_length_c                    9.914417
_cell_angle_alpha                 90.0
_cell_angle_beta                  109.566376
_cell_angle_gamma                 89.999978
_cell_volume                      2031.36671057

loop_
_atom_site_label
_atom_site_type_symbol
_atom_type_description
_atom_site_fract_x
_atom_site_fract_y
_atom_site_fract_z
_atom_type_partial_charge
C1    C     C_R   0.124175 0.637322 0.155754 0.570318
C2    C     C_2   0.586616 0.078232 0.082251 -0.111606
C3    C     C_2   0.592421 0.425124 0.072371 -0.093469
C4    C     C_2   0.413384 0.578232 0.917748 -0.111607
C5    C     C_2   0.472011 0.969002 0.030726 -0.145200
C6    C     C_2   0.493464 0.041922 0.994846 -0.150522
C7    C     C_2   0.527989 0.469003 0.969274 -0.145200
C8    C     C_2   0.506537 0.541922 0.005153 -0.150522
C9    C     C_2   0.079661 0.936687 0.137845 -0.079705
C10   C     C_2   0.917427 0.062991 0.861573 -0.080574
C11   C     C_2   0.920340 0.436687 0.862155 -0.079705
C12   C     C_R   0.876971 0.362751 0.844565 0.568699
C13   C     C_2   0.082574 0.562991 0.138428 -0.080574
C14   C     C_2   0.014439 0.961886 0.009101 -0.119997
C15   C     C_2   0.981039 0.037338 0.990538 -0.121358
C16   C     C_2   0.985562 0.461886 0.990899 -0.119997
C17   C     C_2   0.018962 0.537338 0.009462 -0.121359
C18   C     C_R   0.468730 0.647004 0.443238 0.523539
C19   C     C_R   0.531429 0.353150 0.557142 0.519795
C20   C     C_R   0.531270 0.147004 0.556762 0.523539
C21   C     C_R   0.468571 0.853150 0.442858 0.519795
C22   C     C_R   0.376748 0.645571 0.963841 0.545533
C23   C     C_R   0.875825 0.137322 0.844246 0.570318
C24   C     C_R   0.624031 0.354855 0.034933 0.543323
C25   C     C_R   0.623252 0.145571 0.036159 0.545533
C26   C     C_R   0.375969 0.854855 0.965067 0.543323
C27   C     C_R   0.506267 0.424972 0.489784 -0.019564
C28   C     C_R   0.494370 0.575507 0.512031 -0.017426
C29   C     C_R   0.493733 0.924971 0.510216 -0.019564
C30   C     C_R   0.505630 0.075507 0.487969 -0.017426
C31   C     C_R   0.293065 0.416276 0.473236 -0.097723
C32   C     C_R   0.707088 0.584425 0.527544 -0.097101
C33   C     C_R   0.706935 0.916276 0.526766 -0.097723
C34   C     C_R   0.123030 0.862751 0.155435 0.568699
C35   C     C_R   0.292912 0.084425 0.472454 -0.097102
C36   C     C_R   0.210017 0.439940 0.535188 0.138366
C37   C     C_R   0.787690 0.561418 0.461565 0.138001
C38   C     C_R   0.789983 0.939939 0.464813 0.138366
C39   C     C_R   0.212310 0.061419 0.538432 0.138001
C40   C     C_R   0.209974 0.512451 0.572356 0.104647
C41   C     C_R   0.787891 0.488935 0.424276 0.106735
C42   C     C_R   0.790026 0.012450 0.427644 0.104647
C43   C     C_R   0.212108 0.988936 0.575723 0.106736
C44   C     C_R   0.296972 0.559240 0.552296 -0.115399
C45   C     C_R   0.396762 0.458031 0.485943 -0.024556
C46   C     C_R   0.703255 0.441563 0.448267 -0.114406
C47   C     C_R   0.703028 0.059239 0.447704 -0.115399
C48   C     C_R   0.296744 0.941564 0.551732 -0.114406
C49   C     C_R   0.395067 0.532093 0.514184 -0.031330
C50   C     C_R   0.605675 0.468418 0.487856 -0.030414
C51   C     C_R   0.604934 0.032093 0.485816 -0.031330
C52   C     C_R   0.394325 0.968418 0.512143 -0.030414
C53   C     C_R   0.603916 0.542485 0.516186 -0.023188
C54   C     C_R   0.603238 0.958031 0.514058 -0.024556
C55   C     C_R   0.396084 0.042485 0.483813 -0.023188
C56   C     C_2   0.407579 0.925124 0.927629 -0.093469
Cr1   Cr    Cr6+3 0.187610 0.750000 0.979860 1.078556
Cr2   Cr    Cr6+3 0.812390 0.250000 0.020140 1.078556
Cr3   Cr    Cr6+3 0.245810 0.750000 0.341640 1.061100
Cr4   Cr    Cr6+3 0.754190 0.250000 0.658360 1.061100
Cr5   Cr    Cr6+3 0.485760 0.750000 0.219910 1.053652
Cr6   Cr    Cr6+3 0.514240 0.250000 0.780090 1.053652
H1    H     H_    0.287160 0.360860 0.437502 0.153770
H2    H     H_    0.509142 0.951247 0.141631 0.169764
H3    H     H_    0.561129 0.563428 0.108885 0.182810
H4    H     H_    0.490859 0.451248 0.858368 0.169764
H5    H     H_    0.643801 0.052922 0.177779 0.133806
H6    H     H_    0.370105 0.944292 0.820102 0.120054
H7    H     H_    0.356198 0.552922 0.822222 0.133807
H8    H     H_    0.629895 0.444292 0.179897 0.120054
H9    H     H_    0.009996 0.072375 0.083506 0.186376
H10   H     H_    0.985227 0.926691 0.916345 0.185657
H11   H     H_    0.990006 0.572374 0.916494 0.186377
H12   H     H_    0.712978 0.639826 0.563397 0.153264
H13   H     H_    0.014774 0.426691 0.083656 0.185657
H14   H     H_    0.892532 0.028407 0.767798 0.133730
H15   H     H_    0.105047 0.971492 0.231314 0.133503
H16   H     H_    0.107468 0.528407 0.232202 0.133731
H17   H     H_    0.894954 0.471492 0.768687 0.133503
H18   H     H_    0.712840 0.860859 0.562499 0.153769
H19   H     H_    0.287023 0.139826 0.436601 0.153263
H20   H     H_    0.296950 0.614071 0.588684 0.166163
H21   H     H_    0.703641 0.386663 0.412406 0.165638
H22   H     H_    0.703051 0.114071 0.411317 0.166163
H23   H     H_    0.296358 0.886664 0.587594 0.165638
H24   H     H_    0.438873 0.063427 0.891114 0.182810
I1    I     I_    0.116753 0.358874 0.607910 -0.222581
I2    I     I_    0.875790 0.643222 0.383211 -0.225240
I3    I     I_    0.883247 0.858873 0.392093 -0.222580
I4    I     I_    0.124208 0.143223 0.616782 -0.225239
I5    I     I_    0.096509 0.550414 0.682999 -0.350150
I6    I     I_    0.897638 0.452263 0.307964 -0.349803
I7    I     I_    0.903490 0.050412 0.316999 -0.350150
I8    I     I_    0.102362 0.952264 0.692036 -0.349805
O1    O     O_R   0.267710 0.668200 0.902110 -0.490646
O2    O     O_R   0.883280 0.330790 0.732340 -0.457032
O3    O     O_R   0.883280 0.169210 0.732340 -0.456214
O4    O     O_R   0.116720 0.830790 0.267660 -0.457032
O5    O     O_R   0.366710 0.675440 0.427590 -0.527409
O6    O     O_R   0.633290 0.324560 0.572410 -0.527185
O7    O     O_R   0.633290 0.175440 0.572410 -0.527409
O8    O     O_R   0.366710 0.824560 0.427590 -0.527185
O9    O     O_R   0.534870 0.669390 0.371760 -0.503537
O10   O     O_R   0.465130 0.330610 0.628240 -0.504915
O11   O     O_R   0.465130 0.169390 0.628240 -0.503536
O12   O     O_R   0.732290 0.331800 0.097890 -0.489159
O13   O     O_R   0.534870 0.830610 0.371760 -0.504915
O14   O     O_R   0.453080 0.674480 0.075160 -0.496256
O15   O     O_R   0.546920 0.325520 0.924840 -0.494111
O16   O     O_R   0.546920 0.174480 0.924840 -0.496257
O17   O     O_R   0.453080 0.825520 0.075160 -0.494111
O18   O     O_3   0.306390 0.750000 0.180470 -0.305369
O19   O     O_3   0.693610 0.250000 0.819530 -0.305369
O20   O     O_R   0.732290 0.168200 0.097890 -0.490646
O21   O     O_R   0.267710 0.831800 0.902110 -0.489159
O22   O     O_R   0.099480 0.674460 0.038850 -0.482016
O23   O     O_R   0.900520 0.325540 0.961150 -0.481641
O24   O     O_R   0.900520 0.174460 0.961150 -0.482016
O25   O     O_R   0.099480 0.825540 0.038850 -0.481641
O26   O     O_R   0.116720 0.669210 0.267660 -0.456214

loop_
_geom_bond_atom_site_label_1
_geom_bond_atom_site_label_2
_ccdc_geom_bond_type
C44   C49   A    
C30   C51   A    
Cr3   O26   S    
C42   I7    S    
Cr3   O5    S    
C22   O1    A    
C5    C56   D    
C4    C8    D    
C23   O24   A    
C35   H19   S    
C7    C8    S    
Cr1   O21   S    
Cr6   O11   S    
C20   C30   S    
C38   I3    S    
Cr5   O9    S    
C38   C42   A    
C48   C52   A    
C3    C7    D    
C10   C15   D    
C31   C36   A    
C32   H12   S    
C5    C6    S    
Cr1   O18   S    
C29   C54   A    
C16   H13   S    
Cr2   O24   S    
C43   I8    S    
C11   C16   D    
Cr5   O14   S    
C26   O21   A    
C37   I2    S    
C10   H14   S    
C16   C17   S    
Cr2   O19   S    
C41   C46   A    
C1    O22   A    
C19   C27   S    
C43   C48   A    
C39   I4    S    
C27   C50   A    
Cr1   O25   S    
C27   C45   A    
C8    H3    S    
C17   H11   S    
Cr4   O19   S    
C2    C6    D    
C4    H7    S    
Cr1   O22   S    
Cr6   O10   S    
C36   I1    S    
C50   C53   A    
C35   C55   A    
C31   H1    S    
C36   C40   A    
C3    H8    S    
C18   C28   S    
Cr6   O19   S    
C2    H5    S    
C47   C51   A    
C20   O7    A    
C32   C37   A    
C21   C29   S    
Cr2   O23   S    
C46   H21   S    
C5    H2    S    
Cr2   O12   S    
C1    O26   A    
C35   C39   A    
C9    C14   D    
C4    C22   S    
C19   O10   A    
Cr6   O16   S    
C45   C49   A    
C28   C53   A    
Cr3   O18   S    
C9    H15   S    
C47   H22   S    
C21   O13   A    
C11   H17   S    
C25   O16   A    
C21   O8    A    
Cr4   O2    S    
C23   O3    A    
Cr4   O3    S    
Cr1   O1    S    
C9    C34   S    
C24   O12   A    
C18   O5    A    
Cr4   O7    S    
Cr5   O17   S    
C32   C53   A    
C20   O11   A    
C34   O25   A    
C13   H16   S    
C48   H23   S    
Cr3   O8    S    
C14   H10   S    
C24   O15   A    
C3    C24   S    
Cr4   O6    S    
C26   C56   S    
C39   C43   A    
C19   O6    A    
C52   C55   A    
C33   H18   S    
C10   C23   S    
C15   H9    S    
C30   C55   A    
C46   C50   A    
C44   H20   S    
C33   C38   A    
C6    H24   S    
C13   C17   D    
C51   C54   A    
C56   H6    S    
C25   O20   A    
C7    H4    S    
C18   O9    A    
Cr6   O15   S    
C33   C54   A    
C22   O14   A    
C34   O4    A    
C28   C49   A    
C2    C25   S    
C42   C47   A    
C40   I5    S    
C37   C41   A    
Cr5   O13   S    
C12   O23   A    
C40   C44   A    
C41   I6    S    
C1    C13   S    
C31   C45   A    
Cr2   O20   S    
Cr3   O4    S    
C14   C15   S    
C12   O2    A    
Cr5   O18   S    
C26   O17   A    
C11   C12   S    
C29   C52   A    
