data_mof_unit_5711.cif
_audit_creation_date              2012-12-10T20:07:05-0500
_audit_creation_method            fapswitch 2.2
_symmetry_space_group_name_H-M    P1
_symmetry_Int_Tables_number       1
_space_group_crystal_system       triclinic
_cell_length_a                    18.611583
_cell_length_b                    18.38392
_cell_length_c                    10.648973
_cell_angle_alpha                 89.396899
_cell_angle_beta                  91.310647
_cell_angle_gamma                 89.733085
_cell_volume                      3642.38835222

loop_
_atom_site_label
_atom_site_type_symbol
_atom_type_description
_atom_site_fract_x
_atom_site_fract_y
_atom_site_fract_z
_atom_type_partial_charge
C1    C     C_R   0.363459 0.500160 0.504279 0.894501
C2    C     C_R   0.927769 0.509053 0.307224 -0.253145
C3    C     C_R   0.551342 0.724723 0.569253 0.580460
C4    C     C_R   0.453245 0.275776 0.420635 0.560803
C5    C     C_R   0.448015 0.725375 0.431139 0.553988
C6    C     C_R   0.544449 0.274424 0.583253 0.597126
C7    C     C_R   0.553683 0.801520 0.564609 -0.437454
C8    C     C_R   0.451712 0.198608 0.422787 -0.404177
C9    C     C_R   0.446657 0.802458 0.432467 -0.471124
C10   C     C_R   0.546188 0.197260 0.581307 -0.400062
C11   C     C_R   0.500342 0.840951 0.497975 0.025817
C12   C     C_R   0.636073 0.499954 0.489486 0.862454
C13   C     C_R   0.499230 0.158747 0.501570 0.026386
C14   C     C_R   0.482954 0.962493 0.389580 -0.187868
C15   C     C_R   0.515165 0.036429 0.611381 -0.197125
C16   C     C_R   0.515758 0.960206 0.610270 -0.197183
C17   C     C_R   0.483313 0.038644 0.390085 -0.203627
C18   C     C_R   0.499322 0.077039 0.501061 0.182551
C19   C     C_R   0.499809 0.922208 0.499218 0.192394
C20   C     C_R   0.507135 0.500546 0.258561 0.854015
C21   C     C_R   0.486147 0.499559 0.737495 0.881671
C22   C     C_R   0.516691 0.637960 0.100252 -0.213591
C23   C     C_R   0.711541 0.500769 0.443413 -0.234799
C24   C     C_R   0.454405 0.365230 0.887945 -0.347970
C25   C     C_R   0.436372 0.627872 0.879850 -0.284318
C26   C     C_R   0.534983 0.368166 0.109883 -0.354729
C27   C     C_R   0.496347 0.701861 0.035423 0.393465
C28   C     C_R   0.472599 0.298700 0.948853 0.443419
C29   C     C_R   0.448767 0.696473 0.931672 0.399492
C30   C     C_R   0.518071 0.300152 0.055733 0.455255
C31   C     C_R   0.467454 0.564712 0.934235 -0.011532
C32   C     C_R   0.507730 0.434122 0.057905 0.022077
C33   C     C_R   0.497914 0.568120 0.054763 0.002324
C34   C     C_R   0.283625 0.501123 0.493166 -0.174222
C35   C     C_R   0.476364 0.432461 0.938120 0.023519
C36   C     C_R   0.468527 0.498291 0.870630 -0.139756
C37   C     C_R   0.511462 0.501674 0.121499 -0.122997
C38   C     C_R   0.762403 0.444534 0.474461 -0.054994
C39   C     C_R   0.246024 0.567978 0.482263 -0.057471
C40   C     C_R   0.244856 0.436318 0.470602 -0.067433
C41   C     C_R   0.733120 0.555865 0.356227 -0.035832
C42   C     C_R   0.832744 0.449010 0.431133 -0.161346
C43   C     C_R   0.180195 0.570339 0.417232 -0.265275
C44   C     C_R   0.179214 0.440421 0.403297 -0.190761
C45   C     C_R   0.964317 0.575650 0.314087 0.359623
C46   C     C_R   0.801974 0.554826 0.307399 -0.162767
C47   C     C_R   0.852686 0.503808 0.347928 0.157220
C48   C     C_R   0.148753 0.507660 0.364845 0.148234
C49   C     C_3   0.602291 0.236359 0.183898 0.094821
C50   C     C_3   0.631603 0.159829 0.205481 -0.785762
C51   C     C_3   0.420621 0.781455 0.778662 0.127153
C52   C     C_3   0.366884 0.841344 0.743803 -0.810160
C53   C     C_3   0.392117 0.230985 0.823544 0.103193
C54   C     C_3   0.365787 0.153452 0.807025 -0.809734
C55   C     C_3   0.502539 0.822566 0.098067 0.084378
C56   C     C_R   0.040302 0.447499 0.257931 0.330337
C57   C     C_3   0.538177 0.892011 0.052442 -0.815137
C58   C     C_2   0.746194 0.377437 0.544929 0.925844
C59   C     C_2   0.270038 0.635193 0.546659 0.987323
C60   C     C_2   0.267197 0.365101 0.527084 0.964106
C61   C     C_2   0.685875 0.613605 0.303361 0.892001
C62   C     C_3   0.935666 0.652841 0.470347 0.134177
C63   C     C_3   0.886834 0.715949 0.503753 -0.785254
C64   C     C_3   0.059581 0.322329 0.229037 0.161832
C65   C     C_3   0.122218 0.270941 0.206092 -0.867750
C66   C     C_3   0.103389 0.645237 0.152554 0.133077
C67   C     C_R   0.037279 0.577680 0.289179 0.298878
C68   C     C_3   0.131805 0.721195 0.126548 -0.808501
C69   C     C_3   0.895027 0.399669 0.103819 0.122260
C70   C     C_3   0.847604 0.335802 0.067170 -0.834292
C71   C     C_3   0.625452 0.713271 0.748833 0.059671
C72   C     C_3   0.656362 0.653340 0.833867 -0.700352
C73   C     C_3   0.367018 0.282290 0.253806 0.066850
C74   C     C_3   0.326948 0.337470 0.170574 -0.766711
C75   C     C_3   0.359308 0.718448 0.269940 0.090805
C76   C     C_3   0.321565 0.661918 0.189006 -0.768277
C77   C     C_3   0.624007 0.278351 0.759805 0.100054
C78   C     C_R   0.963823 0.447467 0.261086 0.282626
C79   C     C_3   0.657622 0.332390 0.850920 -0.811042
C80   C     C_R   0.076847 0.511500 0.295913 -0.209963
H1    H     H_    0.550751 0.644283 0.182012 0.217757
H2    H     H_    0.413421 0.169020 0.365722 0.143013
H3    H     H_    0.403982 0.832816 0.385128 0.147772
H4    H     H_    0.583958 0.166785 0.639761 0.141988
H5    H     H_    0.470381 0.935080 0.302623 0.128080
H6    H     H_    0.526124 0.063321 0.699601 0.144932
H7    H     H_    0.527448 0.930931 0.697167 0.130359
H8    H     H_    0.471965 0.067234 0.302483 0.148210
H9    H     H_    0.589353 0.259170 0.277051 0.163493
H10   H     H_    0.645001 0.269081 0.138732 0.132571
H11   H     H_    0.645221 0.135048 0.114320 0.249934
H12   H     H_    0.422356 0.365441 0.802183 0.197145
H13   H     H_    0.680800 0.161751 0.266333 0.215324
H14   H     H_    0.590958 0.125666 0.252344 0.257607
H15   H     H_    0.416442 0.738421 0.706333 0.158143
H16   H     H_    0.475154 0.805609 0.780075 0.136551
H17   H     H_    0.371903 0.886685 0.811531 0.249916
H18   H     H_    0.376966 0.862691 0.648134 0.219003
H19   H     H_    0.311342 0.819622 0.745814 0.260019
H20   H     H_    0.405262 0.252734 0.729004 0.167112
H21   H     H_    0.347842 0.263234 0.864960 0.155805
H22   H     H_    0.351946 0.129563 0.899551 0.253260
H23   H     H_    0.401629 0.623346 0.798235 0.227044
H24   H     H_    0.317277 0.153244 0.744336 0.209535
H25   H     H_    0.408226 0.119772 0.764347 0.257434
H26   H     H_    0.506849 0.820390 0.201997 0.149762
H27   H     H_    0.444969 0.825787 0.069329 0.177120
H28   H     H_    0.536965 0.894073 0.948121 0.245731
H29   H     H_    0.509148 0.940304 0.087564 0.204968
H30   H     H_    0.594894 0.893743 0.087004 0.263900
H31   H     H_    0.781680 0.304587 0.675712 0.332957
H32   H     H_    0.268623 0.744894 0.551748 0.335049
H33   H     H_    0.261445 0.255638 0.521427 0.332253
H34   H     H_    0.570692 0.370238 0.190889 0.169656
H35   H     H_    0.632624 0.707657 0.330615 0.329452
H36   H     H_    0.992134 0.667544 0.495412 0.166356
H37   H     H_    0.919575 0.604615 0.527441 0.125487
H38   H     H_    0.829994 0.702177 0.480841 0.270464
H39   H     H_    0.892157 0.727199 0.605783 0.200860
H40   H     H_    0.901896 0.765479 0.450050 0.263030
H41   H     H_    0.015031 0.304584 0.165746 0.199803
H42   H     H_    0.043988 0.316775 0.329153 0.148150
H43   H     H_    0.169982 0.286644 0.263355 0.292432
H44   H     H_    0.107053 0.214423 0.231548 0.217683
H45   H     H_    0.872162 0.408105 0.459881 0.183209
H46   H     H_    0.136435 0.272805 0.105367 0.258877
H47   H     H_    0.065569 0.630410 0.074369 0.141894
H48   H     H_    0.149861 0.606913 0.154642 0.152019
H49   H     H_    0.169948 0.737370 0.202905 0.265769
H50   H     H_    0.160192 0.722026 0.035952 0.208963
H51   H     H_    0.086595 0.760828 0.121078 0.265117
H52   H     H_    0.938680 0.404551 0.034398 0.153698
H53   H     H_    0.861161 0.449813 0.099372 0.153319
H54   H     H_    0.802707 0.330593 0.133619 0.258151
H55   H     H_    0.824919 0.344657 0.970820 0.224387
H56   H     H_    0.152798 0.621737 0.415570 0.235499
H57   H     H_    0.879631 0.284664 0.069184 0.249963
H58   H     H_    0.580481 0.739241 0.798870 0.140572
H59   H     H_    0.668434 0.753777 0.732122 0.151481
H60   H     H_    0.702762 0.626925 0.788627 0.240306
H61   H     H_    0.674647 0.676700 0.924810 0.246375
H62   H     H_    0.614716 0.611743 0.852147 0.256050
H63   H     H_    0.326414 0.247087 0.298890 0.168555
H64   H     H_    0.402044 0.249164 0.193262 0.173103
H65   H     H_    0.365516 0.375057 0.126064 0.254287
H66   H     H_    0.295919 0.308879 0.095884 0.204148
H67   H     H_    0.149929 0.390830 0.389780 0.199415
H68   H     H_    0.289232 0.369687 0.227341 0.269932
H69   H     H_    0.396637 0.748377 0.209522 0.108231
H70   H     H_    0.318121 0.756303 0.306067 0.174896
H71   H     H_    0.279475 0.634122 0.243355 0.256070
H72   H     H_    0.296117 0.688699 0.105201 0.222214
H73   H     H_    0.360775 0.620722 0.157326 0.256290
H74   H     H_    0.667882 0.245621 0.718935 0.145779
H75   H     H_    0.587680 0.242474 0.813668 0.171573
H76   H     H_    0.615417 0.366249 0.892903 0.255782
H77   H     H_    0.688077 0.302874 0.926548 0.198847
H78   H     H_    0.816564 0.595219 0.237621 0.193262
H79   H     H_    0.694350 0.369636 0.801721 0.277504
H80   H     H_    0.596450 0.830613 0.612345 0.157737
N1    N     N_R   0.500000 0.689440 0.500000 -0.156812
N2    N     N_R   0.500000 0.310560 0.500000 -0.163650
O1    O     O_R   0.398180 0.560840 0.499970 -0.560918
O2    O     O_3   0.404563 0.754605 0.898775 -0.632559
O3    O     O_3   0.454195 0.230301 0.902409 -0.599939
O4    O     O_3   0.539745 0.762471 0.049678 -0.619329
O5    O     O_2   0.699084 0.336753 0.506702 -0.610202
O6    O     O_R   0.792478 0.355342 0.643536 -0.840395
O7    O     O_2   0.304737 0.630947 0.645061 -0.672026
O8    O     O_R   0.249176 0.703463 0.499106 -0.826546
O9    O     O_2   0.303217 0.363023 0.624595 -0.672029
O10   O     O_R   0.243361 0.300258 0.473413 -0.853118
O11   O     O_2   0.676175 0.617194 0.189537 -0.674724
O12   O     O_R   0.601820 0.439160 0.500030 -0.552527
O13   O     O_R   0.660721 0.669007 0.379727 -0.752634
O14   O     O_3   0.928486 0.639565 0.340332 -0.576933
O15   O     O_3   0.080246 0.394118 0.198044 -0.609304
O16   O     O_3   0.068018 0.645119 0.268514 -0.589495
O17   O     O_3   0.924354 0.387218 0.225759 -0.625709
O18   O     O_3   0.602568 0.682515 0.633780 -0.542900
O19   O     O_3   0.407992 0.319733 0.345493 -0.567447
O20   O     O_3   0.396370 0.682898 0.370153 -0.570427
O21   O     O_3   0.585978 0.317181 0.664298 -0.545300
O22   O     O_R   0.601820 0.560840 0.500030 -0.529649
O23   O     O_R   0.398180 0.439160 0.499970 -0.563153
O24   O     O_R   0.499990 0.560810 0.316770 -0.611102
O25   O     O_R   0.500010 0.439190 0.683230 -0.575502
O26   O     O_R   0.500010 0.560810 0.683230 -0.601501
O27   O     O_R   0.499990 0.439190 0.316770 -0.584855
O28   O     O_3   0.539540 0.232991 0.107011 -0.594789
Zn1   Zn    Zn3+2 0.500000 0.581210 0.500000 1.041894
Zn2   Zn    Zn3+2 0.500000 0.418790 0.500000 1.051495

loop_
_geom_bond_atom_site_label_1
_geom_bond_atom_site_label_2
_ccdc_geom_bond_type
C25   C31   A    
C15   C18   A    
C66   C68   S    
C26   C32   A    
C8    C13   A    
C64   O15   S    
C27   C29   A    
C17   H8    S    
C3    O18   S    
C73   C74   S    
C52   H17   S    
C74   H65   S    
C35   C36   A    
C61   O13   S    
C41   C61   S    
C49   H10   S    
C4    C8    A    
N2    Zn2   S    
C21   C36   S    
C53   C54   S    
C7    C11   A    
C66   O16   S    
C12   C23   S    
C11   C19   S    
C13   C18   S    
C21   O26   A    
O26   Zn1   S    
C8    H2    S    
C54   H24   S    
C38   C42   A    
C3    C7    A    
C16   C19   A    
C79   H79   S    
C76   H72   S    
C75   H70   S    
C15   C16   A    
C46   H78   S    
C76   H73   S    
C44   H67   S    
C56   C78   A    
C66   H47   S    
C65   H44   S    
C10   H4    S    
O24   Zn1   S    
C62   H37   S    
H35   O13   S    
C42   H45   S    
C79   H76   S    
C38   C58   S    
H32   O8    S    
C6    N2    A    
C53   H21   S    
C45   C67   A    
C16   H7    S    
C41   C46   A    
C31   C33   A    
C20   C37   S    
C4    O19   S    
H33   O10   S    
C59   O8    S    
C58   O6    S    
C43   C48   A    
N1    Zn1   S    
C51   H16   S    
C30   O28   S    
C62   O14   S    
C53   H20   S    
C29   O2    S    
C69   C70   S    
C24   H12   S    
C54   H22   S    
C1    C34   S    
C21   O25   A    
C71   H58   S    
C56   O15   S    
C77   C79   S    
C2    C45   A    
C25   C29   A    
C72   H61   S    
C57   H29   S    
C24   C35   A    
C55   H26   S    
C78   O17   S    
C60   O10   S    
C32   C35   A    
C73   O19   S    
C61   O11   D    
C45   O14   S    
C20   O27   A    
C63   H38   S    
C50   H14   S    
C71   H59   S    
C49   O28   S    
C76   H71   S    
C10   C13   A    
C33   C37   A    
C34   C39   A    
C55   H27   S    
C5    N1    A    
C71   O18   S    
O27   Zn2   S    
C72   H62   S    
C75   C76   S    
C22   H1    S    
C5    C9    A    
C62   C63   S    
C2    C78   A    
C77   H74   S    
C63   H39   S    
C57   H30   S    
C40   C44   A    
C39   C59   S    
C17   C18   A    
O22   Zn1   S    
C51   O2    S    
C32   C37   A    
C68   H50   S    
C58   O5    D    
C9    C11   A    
O25   Zn2   S    
C28   O3    S    
C9    H3    S    
C15   H6    S    
C53   O3    S    
C26   C30   A    
C22   C27   A    
C55   C57   S    
C70   H55   S    
C4    N2    A    
C5    O20   S    
O23   Zn2   S    
C12   O12   A    
C73   H63   S    
C74   H68   S    
C26   H34   S    
C22   C33   A    
C46   C47   A    
C69   H53   S    
C54   H25   S    
C60   O9    D    
C14   C19   A    
C74   H66   S    
C25   H23   S    
C67   C80   A    
C24   C28   A    
C14   H5    S    
C49   H9    S    
C67   O16   S    
C56   C80   A    
C79   H77   S    
C39   C43   A    
C50   H13   S    
C7    H80   S    
C68   H51   S    
C1    O23   A    
C2    C47   S    
C23   C38   A    
C52   H19   S    
C43   H56   S    
C23   C41   A    
C6    O21   S    
C65   H46   S    
C48   C80   S    
C28   C30   A    
C51   C52   S    
C62   H36   S    
C64   C65   S    
C63   H40   S    
C12   O22   A    
C75   H69   S    
C69   H52   S    
C64   H42   S    
C52   H18   S    
C77   O21   S    
C66   H48   S    
C42   C47   A    
C65   H43   S    
C68   H49   S    
C69   O17   S    
C6    C10   A    
C3    N1    A    
C27   O4    S    
C20   O24   A    
C44   C48   A    
C50   H11   S    
C72   H60   S    
C57   H28   S    
C71   C72   S    
C1    O1    A    
C70   H57   S    
C49   C50   S    
C51   H15   S    
C40   C60   S    
C70   H54   S    
C31   C36   A    
C34   C40   A    
O1    Zn1   S    
H31   O6    S    
C55   O4    S    
C59   O7    D    
C75   O20   S    
C77   H75   S    
C64   H41   S    
O12   Zn2   S    
C73   H64   S    
C14   C17   A    
