data_mof_unit_27665.cif
_audit_creation_date              2012-12-11T16:26:26-0500
_audit_creation_method            fapswitch 2.2
_symmetry_space_group_name_H-M    P1
_symmetry_Int_Tables_number       1
_space_group_crystal_system       triclinic
_cell_length_a                    13.985794
_cell_length_b                    13.985683
_cell_length_c                    32.144952
_cell_angle_alpha                 89.998033
_cell_angle_beta                  89.999491
_cell_angle_gamma                 120.001285
_cell_volume                      5445.13431095

loop_
_atom_site_label
_atom_site_type_symbol
_atom_type_description
_atom_site_fract_x
_atom_site_fract_y
_atom_site_fract_z
_atom_type_partial_charge
C1    C     C_R   0.568244 0.443539 0.810651 0.544223
C2    C     C_R   0.443303 0.568539 0.189214 0.544447
C3    C     C_2   0.113627 0.739883 0.439555 0.277767
C4    C     C_2   0.624891 0.884434 0.060322 0.277706
C5    C     C_2   0.259618 0.374749 0.439640 0.277822
C6    C     C_2   0.734473 0.097534 0.561477 0.278105
C7    C     C_2   0.901730 0.636445 0.938563 0.278539
C8    C     C_2   0.362926 0.265537 0.561504 0.278587
C9    C     C_2   0.734360 0.097284 0.938507 0.278431
C10   C     C_2   0.900616 0.635501 0.561301 0.278364
C11   C     C_2   0.363183 0.265428 0.938531 0.278518
C12   C     C_2   0.950678 0.321929 0.064494 0.245434
C13   C     C_R   0.431456 0.874753 0.310789 0.544489
C14   C     C_2   0.371009 0.048877 0.435595 0.245326
C15   C     C_2   0.678050 0.628707 0.064480 0.245668
C16   C     C_2   0.950520 0.321679 0.435433 0.245325
C17   C     C_2   0.371271 0.049219 0.064448 0.245580
C18   C     C_2   0.677965 0.628797 0.435550 0.245857
C19   C     C_2   0.316990 0.939887 0.566669 0.245080
C20   C     C_2   0.059493 0.376715 0.933445 0.245225
C21   C     C_2   0.623280 0.682939 0.566604 0.245447
C22   C     C_2   0.316953 0.940089 0.933343 0.245127
C23   C     C_2   0.059802 0.376993 0.566595 0.245496
C24   C     C_R   0.125230 0.556695 0.189216 0.544447
C25   C     C_2   0.623356 0.682856 0.933421 0.245439
C26   C     C_1   0.013939 0.522404 0.017690 0.055819
C27   C     C_1   0.508098 0.985404 0.482381 0.055559
C28   C     C_1   0.477533 0.491679 0.017667 0.055924
C29   C     C_1   0.013505 0.522037 0.482262 0.055932
C30   C     C_1   0.508027 0.985394 0.017617 0.055720
C31   C     C_1   0.477414 0.491810 0.482361 0.055894
C32   C     C_1   0.515697 0.999675 0.519294 0.052782
C33   C     C_R   0.875283 0.431752 0.689347 0.544186
C34   C     C_1   0.999664 0.515671 0.980777 0.052872
C35   C     C_1   0.484101 0.484233 0.519274 0.053087
C36   C     C_1   0.515622 0.999666 0.980704 0.052905
C37   C     C_1   0.999227 0.515279 0.519173 0.052923
C38   C     C_1   0.484238 0.484117 0.980754 0.053027
C39   C     C_R   0.926123 0.468237 0.851964 -0.015950
C40   C     C_R   0.542055 0.073743 0.648061 -0.016021
C41   C     C_R   0.531739 0.457924 0.851954 -0.015960
C42   C     C_R   0.926002 0.468182 0.648016 -0.015914
C43   C     C_R   0.542013 0.073698 0.851933 -0.016001
C44   C     C_R   0.556451 0.124691 0.810647 0.544211
C45   C     C_R   0.531715 0.457960 0.648056 -0.015977
C46   C     C_R   0.466001 0.922067 0.352704 -0.015560
C47   C     C_R   0.077769 0.543863 0.147326 -0.015601
C48   C     C_R   0.456083 0.533968 0.352696 -0.015552
C49   C     C_R   0.466002 0.922056 0.147294 -0.015551
C50   C     C_R   0.077615 0.543757 0.352648 -0.015622
C51   C     C_R   0.456115 0.533943 0.147315 -0.015567
C52   C     C_R   0.908005 0.543581 0.874448 -0.154851
C53   C     C_R   0.635476 0.091765 0.625571 -0.154910
C54   C     C_R   0.456290 0.364497 0.874432 -0.154878
C55   C     C_R   0.568245 0.443545 0.689350 0.544180
C56   C     C_R   0.907478 0.543186 0.625481 -0.154810
C57   C     C_R   0.635403 0.091608 0.874415 -0.154914
C58   C     C_R   0.456210 0.364555 0.625585 -0.154775
C59   C     C_R   0.538861 0.900312 0.375230 -0.154602
C60   C     C_R   0.099348 0.638430 0.124803 -0.154626
C61   C     C_R   0.361474 0.461120 0.375230 -0.154608
C62   C     C_R   0.538712 0.900131 0.124746 -0.154591
C63   C     C_R   0.098997 0.638252 0.375173 -0.154662
C64   C     C_R   0.361527 0.461046 0.124786 -0.154558
C65   C     C_R   0.932818 0.561765 0.916799 0.021719
C66   C     C_R   0.875290 0.431753 0.810652 0.544225
C67   C     C_R   0.628753 0.066649 0.583246 0.021784
C68   C     C_R   0.438034 0.371162 0.916774 0.021684
C69   C     C_R   0.932130 0.561205 0.583115 0.021843
C70   C     C_R   0.628666 0.066513 0.916744 0.021656
C71   C     C_R   0.437875 0.371251 0.583252 0.021835
C72   C     C_R   0.553875 0.920218 0.417948 0.022788
C73   C     C_R   0.079172 0.633466 0.082103 0.022842
C74   C     C_R   0.366398 0.446065 0.417944 0.022785
C75   C     C_R   0.553708 0.920044 0.082028 0.022851
C76   C     C_R   0.078674 0.633195 0.417865 0.022738
C77   C     C_R   0.556459 0.124703 0.689350 0.544193
C78   C     C_R   0.366480 0.445920 0.082079 0.022861
C79   C     C_R   0.981063 0.505589 0.936688 0.014409
C80   C     C_R   0.524288 0.018308 0.563383 0.014500
C81   C     C_R   0.494295 0.475580 0.936663 0.014520
C82   C     C_R   0.980642 0.505240 0.563262 0.014410
C83   C     C_R   0.524217 0.018297 0.936615 0.014521
C84   C     C_R   0.494149 0.475677 0.563364 0.014655
C85   C     C_R   0.497885 0.968052 0.438222 0.016230
C86   C     C_R   0.031332 0.529613 0.061846 0.016430
C87   C     C_R   0.470246 0.502010 0.438202 0.016421
C88   C     C_R   0.443299 0.568539 0.310787 0.544470
C89   C     C_R   0.497838 0.968035 0.061775 0.016319
C90   C     C_R   0.030924 0.529321 0.438108 0.016515
C91   C     C_R   0.470338 0.501873 0.061824 0.016485
C92   C     C_R   0.006444 0.434806 0.913605 -0.021661
C93   C     C_R   0.428173 0.993053 0.586478 -0.021490
C94   C     C_R   0.565190 0.571714 0.913584 -0.021650
C95   C     C_R   0.006444 0.434832 0.586395 -0.021749
C96   C     C_R   0.428123 0.993130 0.913526 -0.021511
C97   C     C_R   0.565108 0.571789 0.586439 -0.021677
C98   C     C_R   0.429334 0.996713 0.415270 -0.021007
C99   C     C_R   0.431458 0.874755 0.189212 0.544456
C100  C     C_R   0.002859 0.432447 0.084801 -0.020925
C101  C     C_R   0.567450 0.570542 0.415241 -0.021071
C102  C     C_R   0.429450 0.996871 0.084749 -0.021034
C103  C     C_R   0.002628 0.432220 0.415145 -0.020848
C104  C     C_R   0.567524 0.570455 0.084784 -0.021049
C105  C     C_R   0.977728 0.416441 0.871382 -0.099735
C106  C     C_R   0.438611 0.022005 0.628677 -0.099717
C107  C     C_R   0.583594 0.561330 0.871368 -0.099786
C108  C     C_R   0.977864 0.416602 0.628633 -0.099724
C109  C     C_R   0.438575 0.022059 0.871324 -0.099732
C110  C     C_R   0.125207 0.556680 0.310778 0.544459
C111  C     C_R   0.583568 0.561375 0.628646 -0.099876
C112  C     C_R   0.413560 0.972316 0.372643 -0.101699
C113  C     C_R   0.027466 0.441143 0.127409 -0.101778
C114  C     C_R   0.558796 0.586358 0.372619 -0.101817
C115  C     C_R   0.413700 0.972476 0.127378 -0.101731
C116  C     C_R   0.027351 0.441008 0.372547 -0.101778
C117  C     C_R   0.558839 0.586324 0.127398 -0.101855
C118  C     C_2   0.114366 0.740217 0.060422 0.277596
C119  C     C_2   0.625196 0.884751 0.439634 0.277847
C120  C     C_2   0.259717 0.374515 0.060387 0.277828
Cr1   Cr    Cr6+3 0.504240 0.249200 0.750000 1.040334
Cr2   Cr    Cr6+3 0.744960 0.495760 0.750000 1.040373
Cr3   Cr    Cr6+3 0.750800 0.255040 0.750000 1.040331
Cr4   Cr    Cr6+3 0.249200 0.504240 0.250000 1.040665
Cr5   Cr    Cr6+3 0.495760 0.744960 0.250000 1.040681
Cr6   Cr    Cr6+3 0.255040 0.750800 0.250000 1.040641
H1    H     H_    0.867444 0.583384 0.859583 0.131977
H2    H     H_    0.578503 0.859954 0.139914 0.132486
H3    H     H_    0.139010 0.718230 0.360011 0.132424
H4    H     H_    0.281560 0.421187 0.139955 0.132459
H5    H     H_    0.010856 0.368188 0.144899 0.180650
H6    H     H_    0.357303 0.989050 0.355153 0.180627
H7    H     H_    0.631810 0.642600 0.144893 0.180620
H8    H     H_    0.010872 0.368103 0.355053 0.180684
H9    H     H_    0.357556 0.989333 0.144887 0.180602
H10   H     H_    0.631781 0.642602 0.355122 0.180589
H11   H     H_    0.366449 0.007700 0.646203 0.181093
H12   H     H_    0.715866 0.132409 0.640415 0.131952
H13   H     H_    0.992103 0.358623 0.853862 0.181050
H14   H     H_    0.641506 0.633527 0.646156 0.181071
H15   H     H_    0.366433 0.007829 0.853804 0.181080
H16   H     H_    0.992529 0.359035 0.646195 0.181028
H17   H     H_    0.641490 0.633498 0.853853 0.181046
H18   H     H_    0.140050 0.814566 0.078630 0.131684
H19   H     H_    0.674442 0.859784 0.421428 0.132272
H20   H     H_    0.185422 0.325553 0.078589 0.132188
H21   H     H_    0.139378 0.814260 0.421354 0.132054
H22   H     H_    0.673926 0.859178 0.078515 0.132131
H23   H     H_    0.416431 0.284133 0.859566 0.131965
H24   H     H_    0.185369 0.325597 0.421440 0.132333
H25   H     H_    0.810229 0.129517 0.579372 0.128375
H26   H     H_    0.870817 0.681077 0.920607 0.129372
H27   H     H_    0.318792 0.189877 0.579432 0.129011
H28   H     H_    0.810051 0.128892 0.920594 0.129076
H29   H     H_    0.869660 0.680124 0.579236 0.129310
H30   H     H_    0.318792 0.189825 0.920590 0.129198
H31   H     H_    0.931242 0.312895 0.031565 0.130154
H32   H     H_    0.381250 0.068082 0.468545 0.130117
H33   H     H_    0.687070 0.618343 0.031546 0.130698
H34   H     H_    0.866710 0.582813 0.640319 0.131982
H35   H     H_    0.930866 0.312551 0.468345 0.130123
H36   H     H_    0.381140 0.068010 0.031465 0.130299
H37   H     H_    0.686958 0.618485 0.468491 0.130946
H38   H     H_    0.306535 0.916370 0.534124 0.139315
H39   H     H_    0.082761 0.389606 0.966016 0.139794
H40   H     H_    0.610287 0.693372 0.534049 0.140294
H41   H     H_    0.306489 0.916604 0.965893 0.139582
H42   H     H_    0.082315 0.389232 0.533948 0.139899
H43   H     H_    0.610428 0.693262 0.965986 0.140203
H44   H     H_    0.715787 0.132165 0.859565 0.131960
H45   H     H_    0.416343 0.284187 0.640450 0.131956
H46   H     H_    0.578758 0.860263 0.360047 0.132495
H47   H     H_    0.139414 0.718391 0.139976 0.132438
H48   H     H_    0.281514 0.421261 0.360057 0.132482
O1    O     O_R   0.480350 0.140770 0.796330 -0.514983
O2    O     O_R   0.140770 0.480350 0.203670 -0.514849
O3    O     O_R   0.519650 0.660420 0.296330 -0.514832
O4    O     O_R   0.339580 0.859230 0.203670 -0.514819
O5    O     O_R   0.514930 0.348530 0.793250 -0.494893
O6    O     O_R   0.833600 0.485070 0.706750 -0.494885
O7    O     O_R   0.651470 0.166400 0.793250 -0.494893
O8    O     O_R   0.514930 0.348530 0.706750 -0.494886
O9    O     O_R   0.833600 0.485070 0.793250 -0.494900
O10   O     O_R   0.651470 0.166400 0.706750 -0.494906
O11   O     O_R   0.348530 0.514930 0.293250 -0.494944
O12   O     O_R   0.660420 0.519650 0.703670 -0.515018
O13   O     O_R   0.485070 0.833600 0.206750 -0.494948
O14   O     O_R   0.166400 0.651470 0.293250 -0.494947
O15   O     O_R   0.348530 0.514930 0.206750 -0.494944
O16   O     O_R   0.485070 0.833600 0.293250 -0.494960
O17   O     O_R   0.166400 0.651470 0.206750 -0.494970
O18   O     O_3   0.666667 0.333333 0.750000 -0.244995
O19   O     O_3   0.333333 0.666667 0.250000 -0.245958
O20   O     O_2   0.118137 0.748098 0.022586 -0.447267
O21   O     O_2   0.628372 0.879852 0.477463 -0.447892
O22   O     O_2   0.251760 0.370909 0.022553 -0.447516
O23   O     O_R   0.859230 0.339580 0.796330 -0.514945
O24   O     O_2   0.117100 0.747682 0.477392 -0.446846
O25   O     O_2   0.628210 0.879766 0.022490 -0.447948
O26   O     O_2   0.251592 0.371458 0.477470 -0.447603
O27   O     O_2   0.739837 0.089839 0.523853 -0.435622
O28   O     O_2   0.907924 0.648304 0.976247 -0.436252
O29   O     O_2   0.350205 0.260061 0.523862 -0.435552
O30   O     O_2   0.739782 0.089941 0.976147 -0.435532
O31   O     O_2   0.906485 0.647029 0.523601 -0.436781
O32   O     O_2   0.350859 0.259864 0.976194 -0.435773
O33   O     O_2   0.928313 0.238935 0.084410 -0.474026
O34   O     O_R   0.480350 0.140770 0.703670 -0.514963
O35   O     O_2   0.310575 0.071494 0.415675 -0.473999
O36   O     O_2   0.761068 0.689218 0.084403 -0.473885
O37   O     O_2   0.928466 0.238769 0.415521 -0.474265
O38   O     O_2   0.311403 0.072476 0.084430 -0.473815
O39   O     O_2   0.761003 0.689253 0.415625 -0.473843
O40   O     O_2   0.235042 0.921188 0.586581 -0.473964
O41   O     O_2   0.078366 0.313590 0.913533 -0.473890
O42   O     O_2   0.686586 0.764885 0.586504 -0.473787
O43   O     O_2   0.235026 0.921464 0.913435 -0.474077
O44   O     O_2   0.079820 0.314850 0.586631 -0.473646
O45   O     O_R   0.660420 0.519650 0.796330 -0.514981
O46   O     O_2   0.686586 0.764824 0.913514 -0.473873
O47   O     O_R   0.859230 0.339580 0.703670 -0.514952
O48   O     O_R   0.140770 0.480350 0.296330 -0.514880
O49   O     O_R   0.519650 0.660420 0.203670 -0.514855
O50   O     O_R   0.339580 0.859230 0.296330 -0.514791

loop_
_geom_bond_atom_site_label_1
_geom_bond_atom_site_label_2
_ccdc_geom_bond_type
C66   O9    A    
C34   C79   S    
C3    H21   S    
C65   C79   A    
C46   C112  A    
C46   C59   A    
C60   H47   S    
C120  H20   S    
C44   O1    A    
C91   C104  A    
C17   C102  S    
C17   O38   D    
C117  H7    S    
C3    O24   D    
Cr1   O18   S    
C108  H16   S    
C72   C85   A    
C88   O3    A    
Cr1   O5    S    
C58   H45   S    
Cr2   O6    S    
C20   H39   S    
Cr3   O47   S    
C110  O14   A    
C120  O22   D    
C14   H32   S    
C68   C81   A    
C49   C62   A    
C48   C114  A    
C9    O30   D    
C10   O31   D    
C57   H44   S    
C7    O28   D    
C118  H18   S    
C13   C46   S    
C97   C111  A    
Cr6   O50   S    
C58   C71   A    
Cr2   O12   S    
C32   C80   S    
C63   C76   A    
C102  C115  A    
C36   C83   S    
C101  C114  A    
C4    H22   S    
C60   C73   A    
C50   C110  S    
C77   O10   A    
C39   C105  A    
C55   O12   A    
C5    C74   S    
C27   C85   S    
Cr4   O15   S    
C4    C75   S    
C85   C98   A    
C42   C56   A    
C47   C60   A    
C87   C101  A    
C26   C34   T    
C4    O25   D    
Cr4   O19   S    
C48   C88   S    
C33   O47   A    
Cr5   O16   S    
C69   C82   A    
C11   O32   D    
C28   C38   T    
C15   C104  S    
C54   H23   S    
C86   C100  A    
C50   C116  A    
C19   C93   S    
C59   C72   A    
C39   C52   A    
C23   O44   D    
C25   C94   S    
C33   O6    A    
C50   C63   A    
C13   O16   A    
C22   C96   S    
C105  H13   S    
C30   C89   S    
C53   C67   A    
C99   O13   A    
C29   C90   S    
C52   H1    S    
C111  H14   S    
C14   C98   S    
C5    O26   D    
Cr5   O49   S    
C62   C75   A    
C90   C103  A    
C45   C58   A    
C31   C87   S    
Cr2   O45   S    
C51   C64   A    
C53   H12   S    
C12   O33   D    
C98   C112  A    
C9    C70   S    
C99   O4    A    
C95   C108  A    
C77   O34   A    
C49   C99   S    
C43   C57   A    
C106  H11   S    
C12   H31   S    
C16   O37   D    
C21   H40   S    
C7    H26   S    
C5    H24   S    
C18   C101  S    
C78   C120  S    
C43   C44   S    
C20   O41   D    
C15   H33   S    
Cr3   O10   S    
C70   C83   A    
C2    O15   A    
C93   C106  A    
C7    C65   S    
C21   C97   S    
C18   H37   S    
C100  C113  A    
C16   C103  S    
Cr5   O19   S    
C26   C86   S    
C54   C68   A    
C89   C102  A    
C21   O42   D    
C1    O45   A    
C112  H6    S    
C78   C91   A    
C8    H27   S    
C79   C92   A    
C11   H30   S    
C6    O27   D    
C6    H25   S    
C1    C41   S    
C88   O11   A    
C49   C115  A    
C22   O43   D    
Cr4   O48   S    
C9    H28   S    
C56   C69   A    
C94   C107  A    
C38   C81   S    
Cr5   O3    S    
C61   H48   S    
C74   C87   A    
C39   C66   S    
C31   C35   T    
C37   C82   S    
C20   C92   S    
C18   O39   D    
C119  H19   S    
C84   C97   A    
C13   O50   A    
C107  H17   S    
C59   H46   S    
C24   O2    A    
C11   C68   S    
C40   C106  A    
C71   C84   A    
C25   H43   S    
C47   C113  A    
C33   C42   S    
C6    C67   S    
C8    C71   S    
C114  H10   S    
C82   C95   A    
C41   C107  A    
C14   O35   D    
C27   C32   T    
C40   C77   S    
C24   C47   S    
C64   C78   A    
Cr3   O23   S    
C8    O29   D    
C67   C80   A    
C64   H4    S    
C25   O46   D    
C10   H29   S    
C73   C118  S    
C35   C84   S    
C45   C111  A    
Cr2   O18   S    
Cr4   O2    S    
C16   H35   S    
C15   O36   D    
C96   C109  A    
C104  C117  A    
C2    C51   S    
C30   C36   T    
Cr5   O13   S    
C19   O40   D    
Cr6   O14   S    
C103  C116  A    
C80   C93   A    
Cr3   O7    S    
C110  O48   A    
C62   H2    S    
C81   C94   A    
C1    O5    A    
Cr6   O19   S    
C48   C61   A    
Cr1   O1    S    
C115  H9    S    
C83   C96   A    
C72   C119  S    
C2    O49   A    
C51   C117  A    
C55   O8    A    
C23   C95   S    
C24   O17   A    
Cr6   O4    S    
C28   C91   S    
C119  O21   D    
C19   H38   S    
C63   H3    S    
Cr6   O17   S    
C118  O20   D    
C41   C54   A    
C12   C100  S    
C66   O23   A    
C17   H36   S    
C75   C89   A    
C57   C70   A    
C23   H42   S    
C10   C69   S    
C92   C105  A    
C116  H8    S    
C45   C55   S    
C56   H34   S    
C40   C53   A    
C113  H5    S    
C29   C37   T    
C3    C76   S    
Cr4   O11   S    
Cr2   O9    S    
C109  H15   S    
C73   C86   A    
C43   C109  A    
Cr1   O34   S    
Cr3   O18   S    
C42   C108  A    
C44   O7    A    
C52   C65   A    
C61   C74   A    
C76   C90   A    
Cr1   O8    S    
C22   H41   S    
