data_mof_unit_13669.cif
_audit_creation_date              2012-12-10T19:04:13-0500
_audit_creation_method            fapswitch 2.2
_symmetry_space_group_name_H-M    P1
_symmetry_Int_Tables_number       1
_space_group_crystal_system       triclinic
_cell_length_a                    10.620127
_cell_length_b                    10.79736
_cell_length_c                    9.560446
_cell_angle_alpha                 89.91006
_cell_angle_beta                  89.403266
_cell_angle_gamma                 90.643295
_cell_volume                      1096.15986842

loop_
_atom_site_label
_atom_site_type_symbol
_atom_type_description
_atom_site_fract_x
_atom_site_fract_y
_atom_site_fract_z
_atom_type_partial_charge
C1    C     C_R   0.503132 0.262403 0.499967 0.785297
C2    C     C_3   0.962510 0.513630 0.367023 -0.191959
C3    C     C_3   0.041325 0.405038 0.423162 -0.210617
C4    C     C_3   0.122677 0.498708 0.502727 -0.033200
C5    C     C_R   0.514975 0.063536 0.625243 0.132609
C6    C     C_R   0.517289 0.129480 0.499747 -0.097746
C7    C     C_R   0.538577 0.065075 0.374114 -0.246538
C8    C     C_R   0.537004 0.935967 0.373860 -0.215357
C9    C     C_R   0.515926 0.870851 0.499535 -0.089819
C10   C     C_R   0.514431 0.936236 0.625212 0.118010
C11   C     C_3   0.424074 0.928899 0.745836 -0.468501
C12   C     C_R   0.259443 0.498870 0.500814 0.832360
C13   C     C_3   0.425049 0.069559 0.745972 -0.485609
C14   C     C_R   0.575760 0.580338 0.072439 0.179089
C15   C     C_R   0.416228 0.428375 0.075814 0.532806
C16   C     C_R   0.416284 0.429676 0.926106 -0.184555
C17   C     C_R   0.575650 0.580461 0.925314 0.246372
C18   C     C_3   0.715785 0.588292 0.917573 -0.478426
C19   C     C_3   0.715815 0.587093 0.076013 -0.514408
C20   C     C_R   0.502582 0.737644 0.499824 0.806583
C21   C     C_R   0.740740 0.501553 0.499371 0.790885
C22   C     C_3   0.038328 0.487558 0.633901 -0.200202
C23   C     C_3   0.954618 0.393813 0.553950 -0.156654
C24   C     C_3   0.877774 0.502532 0.498513 -0.038570
C25   C     C_3   0.958937 0.596781 0.579551 -0.274858
C26   C     C_3   0.044584 0.605774 0.448708 0.517740
Cu1   Cu    Cu3+1 0.499990 0.499980 0.640670 0.935661
Cu2   Cu    Cu3+1 0.500010 0.500020 0.359330 0.980908
H1    H     H_    0.913936 0.306476 0.597192 0.131604
H2    H     H_    0.467622 0.888355 0.840477 0.195900
H3    H     H_    0.333014 0.110317 0.717611 0.196886
H4    H     H_    0.469968 0.109958 0.840083 0.193236
H5    H     H_    0.349117 0.373542 0.869631 0.148100
H6    H     H_    0.759337 0.504255 0.871738 0.220574
H7    H     H_    0.749516 0.677593 0.871976 0.186689
H8    H     H_    0.757303 0.501380 0.119176 0.211684
H9    H     H_    0.750468 0.675258 0.122103 0.192919
H10   H     H_    0.072579 0.475737 0.742388 0.153976
H11   H     H_    0.919899 0.672325 0.644929 0.125244
H12   H     H_    0.932094 0.526622 0.257666 0.136615
H13   H     H_    0.078235 0.326466 0.360897 0.151315
H14   H     H_    0.550336 0.113611 0.275573 0.156380
H15   H     H_    0.546916 0.887880 0.275071 0.165910
H16   H     H_    0.331518 0.887688 0.716811 0.202485
N1    N     N_R   0.500800 0.500930 0.147930 -0.222443
N2    N     N_R   0.500800 0.500890 0.852020 -0.205936
O1    O     O_R   0.500000 0.319640 0.618810 -0.581214
O2    O     O_R   0.500010 0.319680 0.381230 -0.576360
O3    O     O_R   0.316850 0.499950 0.618770 -0.601535
O4    O     O_R   0.316860 0.499990 0.381190 -0.508317
O5    O     O_R   0.499990 0.680320 0.618770 -0.579045
O6    O     O_R   0.500000 0.680360 0.381190 -0.578485
O7    O     O_R   0.683140 0.500010 0.618810 -0.581882
O8    O     O_R   0.683150 0.500050 0.381230 -0.595644
O9    O     O_3   0.323501 0.364360 0.149950 -0.584288
C27   C     C_3   0.325552 0.235661 0.122021 0.042836
H17   H     H_    0.334902 0.187448 0.223943 0.180617
H18   H     H_    0.406171 0.205295 0.055197 0.095809
C28   C     C_3   0.200614 0.194599 0.057309 -0.373097
H19   H     H_    0.121031 0.231964 0.120110 0.225487
H20   H     H_    0.193875 0.231695 0.949311 0.202279
C29   C     C_3   0.188356 0.053627 0.053059 -0.914589
H21   H     H_    0.267361 0.013293 0.992190 0.268705
H22   H     H_    0.098328 0.026874 0.002730 0.255109
H23   H     H_    0.188584 0.014989 0.160801 0.257148
O10   O     O_3   0.106123 0.709642 0.387349 -0.620866
C30   C     C_3   0.036279 0.819040 0.405821 0.052795
H24   H     H_    0.101069 0.897923 0.381889 0.170163
H25   H     H_    0.005140 0.832518 0.516030 0.118412
C31   C     C_3   0.924939 0.824488 0.305173 -0.376832
H26   H     H_    0.957868 0.801856 0.197559 0.232273
H27   H     H_    0.851786 0.755597 0.337478 0.202524
C32   C     C_3   0.866124 0.952773 0.304407 -0.916954
H28   H     H_    0.829122 0.975910 0.410195 0.262548
H29   H     H_    0.787223 0.954056 0.229191 0.254384
H30   H     H_    0.936818 0.023971 0.271590 0.255583

loop_
_geom_bond_atom_site_label_1
_geom_bond_atom_site_label_2
_ccdc_geom_bond_type
O9    C27   S    
C11   C13   S    
C32   H28   S    
C13   H4    S    
C3    C23   S    
C8    H15   S    
C12   O3    A    
C7    C8    A    
C23   H1    S    
C20   O5    A    
C19   H8    S    
C21   O8    A    
C15   C16   A    
C22   H10   S    
C27   H17   S    
C18   C19   S    
C7    H14   S    
C29   H22   S    
C19   H9    S    
Cu2   O4    S    
C3    H13   S    
C11   H2    S    
C8    C9    A    
C22   C25   S    
C23   C24   S    
C31   H26   S    
C4    C12   S    
C18   H7    S    
C5    C13   S    
O10   C30   S    
C28   H19   S    
C32   H29   S    
C14   C17   A    
Cu1   O5    S    
C14   N1    A    
Cu2   N1    S    
C28   H20   S    
C30   H24   S    
C26   O10   S    
C17   N2    A    
C16   N2    A    
Cu2   O8    S    
C1    O1    A    
C25   C26   S    
C1    C6    S    
C30   H25   S    
C15   O9    S    
C29   H21   S    
C16   H5    S    
C4    C22   S    
C9    C20   S    
C4    C26   S    
C31   C32   S    
C17   C18   S    
C11   H16   S    
C2    C26   S    
C24   C25   S    
C18   H6    S    
Cu1   N2    S    
C2    C24   S    
C32   H30   S    
C15   N1    A    
C3    C4    S    
C9    C10   A    
Cu1   O1    S    
Cu2   O2    S    
C28   C29   S    
C29   H23   S    
C14   C19   S    
C13   H3    S    
C12   O4    A    
Cu1   O7    S    
C1    O2    A    
C6    C7    A    
C27   C28   S    
C30   C31   S    
C2    C3    S    
C5    C10   A    
C20   O6    A    
C25   H11   S    
C21   O7    A    
Cu2   O6    S    
C5    C6    A    
C27   H18   S    
C10   C11   S    
C2    H12   S    
C21   C24   S    
Cu1   Cu2   S    
C22   C23   S    
C31   H27   S    
Cu1   O3    S    
