data_mof_unit_49599.cif
_audit_creation_date              2012-12-10T17:22:40-0500
_audit_creation_method            fapswitch 2.2
_symmetry_space_group_name_H-M    P1
_symmetry_Int_Tables_number       1
_space_group_crystal_system       triclinic
_cell_length_a                    10.649392
_cell_length_b                    10.873936
_cell_length_c                    9.664852
_cell_angle_alpha                 88.739582
_cell_angle_beta                  89.944979
_cell_angle_gamma                 94.845751
_cell_volume                      1114.92304969

loop_
_atom_site_label
_atom_site_type_symbol
_atom_type_description
_atom_site_fract_x
_atom_site_fract_y
_atom_site_fract_z
_atom_type_partial_charge
C1    C     C_R   0.510569 0.263798 0.502757 0.860357
C2    C     C_3   0.964573 0.606454 0.440532 -0.247682
C3    C     C_3   0.038800 0.509196 0.371007 0.139646
C4    C     C_3   0.122969 0.499872 0.498513 -0.088240
C5    C     C_R   0.517017 0.104437 0.769501 0.301667
C6    C     C_R   0.450429 0.042445 0.879210 0.341337
C7    C     C_R   0.381983 0.929189 0.856862 0.377107
C8    C     C_R   0.391124 0.873164 0.729528 -0.245852
C9    C     C_R   0.460834 0.933385 0.619474 -0.033218
C10   C     C_R   0.502685 0.058731 0.633533 -0.025117
C11   C     C_R   0.526813 0.130998 0.510706 -0.142041
C12   C     C_R   0.259826 0.500143 0.499716 0.856004
C13   C     C_R   0.548180 0.072601 0.387407 -0.137832
C14   C     C_R   0.536200 0.945298 0.380305 0.414191
C15   C     C_R   0.491337 0.872878 0.496587 -0.130916
C16   C     C_R   0.690874 0.636144 0.145743 -0.007347
C17   C     C_R   0.805107 0.672204 0.084482 -0.238796
C18   C     C_R   0.817469 0.662920 0.944092 -0.187762
C19   C     C_R   0.711169 0.631881 0.863496 0.421454
C20   C     C_R   0.598760 0.567201 0.925088 0.101907
C21   C     C_R   0.594898 0.567552 0.074375 0.101270
C22   C     C_R   0.410614 0.432212 0.074729 0.465048
C23   C     C_R   0.494240 0.737476 0.498340 0.835521
C24   C     C_R   0.409365 0.434096 0.926715 0.210026
C25   C     C_R   0.739894 0.499080 0.500136 0.858248
C26   C     C_3   0.031841 0.394646 0.557448 0.372511
C27   C     C_3   0.948142 0.401965 0.427039 -0.168517
C28   C     C_3   0.876077 0.498952 0.500748 -0.108600
C29   C     C_3   0.957052 0.489498 0.632560 -0.134192
C30   C     C_3   0.047395 0.593753 0.569680 0.101647
Cu1   Cu    Cu3+1 0.499990 0.499990 0.640660 1.057662
Cu2   Cu    Cu3+1 0.500010 0.500010 0.359340 1.050609
H1    H     H_    0.905135 0.323329 0.367102 0.186188
H2    H     H_    0.341092 0.783552 0.717404 0.207761
H3    H     H_    0.680424 0.665146 0.249243 0.220167
H4    H     H_    0.881258 0.716539 0.144331 0.179359
H5    H     H_    0.904514 0.703117 0.897427 0.200394
H6    H     H_    0.922265 0.482098 0.740968 0.181845
H7    H     H_    0.935721 0.693821 0.393831 0.169511
H8    H     H_    0.576294 0.126883 0.295693 0.234661
N1    N     N_R   0.501210 0.501210 0.147910 -0.235939
N2    N     N_R   0.501250 0.501290 0.852040 -0.194399
O1    O     O_R   0.499990 0.319640 0.618810 -0.534973
O2    O     O_R   0.500000 0.319660 0.381240 -0.537492
O3    O     O_R   0.316850 0.499960 0.618770 -0.556641
O4    O     O_R   0.316860 0.499980 0.381190 -0.526325
O5    O     O_R   0.500000 0.680340 0.618760 -0.541022
O6    O     O_R   0.500010 0.680360 0.381190 -0.566695
O7    O     O_R   0.683140 0.500020 0.618810 -0.540743
O8    O     O_R   0.683150 0.500040 0.381230 -0.632541
Cl1   Cl    Cl    0.293308 0.849815 0.989856 -0.510333
Cl2   Cl    Cl    0.576907 0.885880 0.220253 -0.530177
Cl3   Cl    Cl    0.295148 0.334699 0.162972 -0.495011
Cl4   Cl    Cl    0.724743 0.731744 0.717903 -0.607284
N3    N     N_3   0.311883 0.364011 0.853836 -0.464964
H9    H     H_    0.313272 0.270904 0.881808 0.271000
H10   H     H_    0.225095 0.393624 0.883381 0.255280
Cl5   Cl    Cl    0.076838 0.254294 0.633255 -0.545316
N4    N     N_3   0.103276 0.697919 0.646701 -0.559449
H11   H     H_    0.029508 0.746413 0.682270 0.271079
H12   H     H_    0.154029 0.756625 0.575710 0.217898
N5    N     N_3   0.083806 0.519555 0.228599 -0.486154
H13   H     H_    0.130842 0.607282 0.214774 0.250011
H14   H     H_    0.004815 0.516125 0.164386 0.230841
Cl6   Cl    Cl    0.644987 0.212282 0.811150 -0.506991
Cl7   Cl    Cl    0.452963 0.107119 0.043910 -0.473646

loop_
_geom_bond_atom_site_label_1
_geom_bond_atom_site_label_2
_ccdc_geom_bond_type
C29   H6    S    
C20   N2    A    
Cu2   N1    S    
C16   C21   A    
C25   O8    A    
Cu1   N2    S    
C26   Cl5   S    
C4    C12   S    
C29   C30   S    
C24   N2    A    
C9    C10   A    
C1    O2    A    
C4    C26   S    
Cu1   Cu2   S    
C1    C11   S    
C6    Cl7   S    
C2    C30   S    
C4    C30   S    
C30   N4    S    
N5    H13   S    
C15   C23   S    
C17   C18   A    
C9    C15   A    
C7    Cl1   S    
N4    H11   S    
Cu1   O5    S    
C13   C14   A    
C27   H1    S    
C25   C28   S    
Cu2   O6    S    
Cu2   O8    S    
C26   C27   S    
C6    C7    A    
Cu1   O1    S    
Cu1   O7    S    
C21   N1    A    
C19   Cl4   S    
C3    C27   S    
C28   C29   S    
C17   H4    S    
C18   H5    S    
C2    C3    S    
C22   Cl3   S    
C25   O7    A    
N3    H10   S    
C16   H3    S    
Cu2   O2    S    
C5    C6    A    
C22   C24   A    
N3    H9    S    
N4    H12   S    
C22   N1    A    
C23   O5    A    
C10   C11   A    
C5    C10   A    
C3    C4    S    
C11   C13   A    
C20   C21   A    
C26   C29   S    
C5    Cl6   S    
C18   C19   A    
Cu1   O3    S    
C3    N5    S    
C8    H2    S    
C27   C28   S    
C7    C8    A    
C2    C28   S    
C12   O3    A    
C13   H8    S    
N5    H14   S    
C23   O6    A    
C14   C15   A    
Cu2   O4    S    
C2    H7    S    
C1    O1    A    
C14   Cl2   S    
C19   C20   A    
C16   C17   A    
C8    C9    A    
C24   N3    S    
C12   O4    A    
