data_mof_unit_14407.cif
_audit_creation_date              2012-12-11T17:29:59-0500
_audit_creation_method            fapswitch 2.2
_symmetry_space_group_name_H-M    P1
_symmetry_Int_Tables_number       1
_space_group_crystal_system       triclinic
_cell_length_a                    18.860972
_cell_length_b                    18.985941
_cell_length_c                    20.441016
_cell_angle_alpha                 107.271428
_cell_angle_beta                  106.252259
_cell_angle_gamma                 111.422653
_cell_volume                      5853.19672144

loop_
_atom_site_label
_atom_site_type_symbol
_atom_type_description
_atom_site_fract_x
_atom_site_fract_y
_atom_site_fract_z
_atom_type_partial_charge
C1    C     C_R   0.076702 0.088983 0.350651 -0.140965
C2    C     C_R   0.245752 0.070962 0.544257 -0.136479
C3    C     C_R   0.151886 0.225100 0.707615 -0.123172
C4    C     C_R   0.761105 0.926264 0.504809 -0.142508
C5    C     C_R   0.015306 0.772254 0.446349 -0.139384
C6    C     C_R   0.228312 0.275550 0.710089 0.035886
C7    C     C_R   0.980556 0.728588 0.482701 0.081609
C8    C     C_R   0.254782 0.999470 0.533243 0.075480
C9    C     C_R   0.011294 0.976741 0.725929 0.022938
C10   C     C_R   0.988995 0.652825 0.562061 -0.259694
C11   C     C_R   0.001846 0.668794 0.502325 0.117244
C12   C     C_R   0.756821 0.995258 0.547941 0.079883
C13   C     C_R   0.047180 0.638285 0.469757 -0.270418
C14   C     C_R   0.080364 0.592960 0.496673 0.145888
C15   C     C_R   0.065194 0.574753 0.555050 0.052208
C16   C     C_R   0.838771 0.816262 0.281146 -0.122241
C17   C     C_R   0.020328 0.605754 0.588544 0.143448
C18   C     C_R   0.127646 0.564730 0.465378 -0.215792
C19   C     C_R   0.154630 0.513279 0.487951 -0.185473
C20   C     C_R   0.133127 0.488750 0.540934 0.145956
C21   C     C_R   0.091257 0.521984 0.577078 -0.026397
C22   C     C_R   0.071189 0.498391 0.631755 0.086837
C23   C     C_R   0.756780 0.793587 0.273644 0.038555
C24   C     C_R   0.032792 0.535858 0.669394 -0.189178
C25   C     C_R   0.007218 0.588812 0.647568 -0.211517
C26   C     C_R   0.142581 0.423158 0.550308 -0.311587
C27   C     C_R   0.104132 0.386040 0.589725 0.067269
C28   C     C_R   0.006248 0.238305 0.572565 -0.137509
C29   C     C_R   0.083574 0.432807 0.641978 0.249744
C30   C     C_R   0.330849 0.918939 0.552480 -0.254629
C31   C     C_R   0.331816 0.996855 0.571117 0.115128
C32   C     C_R   0.408704 0.072368 0.618992 -0.257490
C33   C     C_R   0.484905 0.071157 0.635554 0.141496
C34   C     C_R   0.065887 0.293348 0.558757 0.090845
C35   C     C_R   0.483476 0.993200 0.605623 0.026837
C36   C     C_R   0.406384 0.916571 0.567607 0.139527
C37   C     C_R   0.561896 0.147044 0.673864 -0.205502
C38   C     C_R   0.635739 0.146184 0.674936 -0.204965
C39   C     C_R   0.632756 0.069466 0.637430 0.140868
C40   C     C_R   0.760852 0.811061 0.346154 -0.127170
C41   C     C_R   0.557537 0.992364 0.606176 0.027344
C42   C     C_R   0.554009 0.914990 0.568109 0.142657
C43   C     C_R   0.479023 0.838569 0.537703 -0.207370
C44   C     C_R   0.405407 0.839341 0.537727 -0.202096
C45   C     C_R   0.229941 0.229240 0.644651 -0.140470
C46   C     C_R   0.700946 0.069175 0.623964 -0.256983
C47   C     C_R   0.693776 0.993130 0.577497 0.114518
C48   C     C_R   0.622636 0.915861 0.554524 -0.260699
C49   C     C_R   0.286903 0.366247 0.762577 0.147647
C50   C     C_R   0.268097 0.410202 0.817742 -0.190811
C51   C     C_R   0.327150 0.492708 0.872304 -0.153055
C52   C     C_R   0.085472 0.244107 0.510034 -0.122783
C53   C     C_R   0.407419 0.532652 0.873855 0.223641
C54   C     C_R   0.423501 0.491583 0.815363 -0.181937
C55   C     C_R   0.364089 0.409005 0.760298 -0.176383
C56   C     C_R   0.937871 0.765663 0.511030 -0.139095
C57   C     C_R   0.617479 0.725027 0.068664 -0.161872
C58   C     C_R   0.689211 0.763374 0.137234 -0.187145
C59   C     C_R   0.536244 0.684648 0.065119 0.223531
C60   C     C_R   0.681207 0.761906 0.203215 0.145219
C61   C     C_R   0.600081 0.728078 0.200662 -0.176321
C62   C     C_R   0.528407 0.690380 0.132194 -0.182304
C63   C     C_R   0.074877 0.027036 0.221314 0.083119
C64   C     C_R   0.830378 0.066639 0.567549 -0.125509
C65   C     C_R   0.015860 0.976403 0.144132 0.296944
C66   C     C_R   0.044949 0.975306 0.088591 -0.202990
C67   C     C_R   0.177383 0.930477 0.477810 -0.125235
C68   C     C_R   0.131338 0.023915 0.108484 0.187767
C69   C     C_R   0.188457 0.077857 0.184650 -0.182668
C70   C     C_R   0.160554 0.078708 0.241085 -0.241983
C71   C     C_R   0.160828 0.025134 0.919782 -0.230014
C72   C     C_R   0.128404 0.032067 0.853447 -0.176152
C73   C     C_R   0.115622 0.951990 0.926372 0.184147
C74   C     C_R   0.050184 0.966881 0.793444 0.103721
C75   C     C_R   0.011251 0.889947 0.796375 -0.215922
C76   C     C_R   0.009542 0.948330 0.286731 -0.129006
C77   C     C_R   0.044480 0.881526 0.862009 0.291461
C78   C     C_R   0.025817 0.051501 0.719494 0.331555
C79   C     C_R   0.048762 0.022403 0.281323 0.075468
C80   C     C_3   0.048868 0.132589 0.782574 -1.075002
C81   C     C_3   0.076369 0.414258 0.707438 -1.076926
C82   C     C_3   0.998330 0.800449 0.866013 -1.031747
C83   C     C_3   0.922042 0.926065 0.119795 -1.041074
C84   C     C_R   0.959259 0.911065 0.653562 -0.198497
H1    H     H_    0.120136 0.154952 0.370136 0.095259
H2    H     H_    0.721117 0.860673 0.489341 0.088096
H3    H     H_    0.187465 0.488355 0.460431 0.125469
H4    H     H_    0.167608 0.393413 0.516420 0.131609
H5    H     H_    0.017740 0.520933 0.712574 0.149185
H6    H     H_    0.974551 0.614105 0.675027 0.132675
H7    H     H_    0.271871 0.859873 0.519896 0.119974
H8    H     H_    0.410367 0.132790 0.637407 0.117958
H9    H     H_    0.563988 0.207251 0.698264 0.129772
H10   H     H_    0.693694 0.205770 0.700333 0.129866
H11   H     H_    0.756411 0.129239 0.644781 0.117366
H12   H     H_    0.893694 0.740423 0.532787 0.085651
H13   H     H_    0.859142 0.811002 0.236480 0.092281
H14   H     H_    0.617155 0.856461 0.520949 0.116914
H15   H     H_    0.475947 0.778608 0.509574 0.128874
H16   H     H_    0.346671 0.779958 0.509466 0.130759
H17   H     H_    0.750597 0.791643 0.137522 0.121975
H18   H     H_    0.625811 0.723285 0.018009 0.126650
H19   H     H_    0.484895 0.521302 0.815792 0.119370
H20   H     H_    0.381016 0.377664 0.718719 0.109321
H21   H     H_    0.591236 0.726692 0.250371 0.112110
H22   H     H_    0.311741 0.522909 0.915956 0.123449
H23   H     H_    0.162908 0.865729 0.453105 0.090639
H24   H     H_    0.466360 0.659718 0.130306 0.120135
H25   H     H_    0.980339 0.254140 0.611941 0.115598
H26   H     H_    0.209405 0.380599 0.821459 0.115113
H27   H     H_    0.163503 0.089421 0.850318 0.143622
H28   H     H_    0.217583 0.079134 0.967793 0.143964
H29   H     H_    0.254425 0.118047 0.200197 0.130413
H30   H     H_    0.206155 0.118267 0.300261 0.135796
H31   H     H_    0.952490 0.837700 0.749368 0.121556
H32   H     H_    0.999913 0.937770 0.029048 0.134006
H33   H     H_    0.709741 0.803352 0.362311 0.095107
H34   H     H_    0.934678 0.844953 0.638391 0.112228
H35   H     H_    0.137239 0.265781 0.495048 0.084184
H36   H     H_    0.854819 0.130466 0.609186 0.086596
H37   H     H_    0.994698 0.886075 0.248814 0.096576
H38   H     H_    0.271873 0.253868 0.620663 0.085019
H39   H     H_    0.026676 0.119372 0.824703 0.262770
H40   H     H_    0.118416 0.174454 0.812233 0.249084
H41   H     H_    0.016770 0.164502 0.759611 0.249729
H42   H     H_    0.292940 0.135723 0.583165 0.096395
H43   H     H_    0.099989 0.370024 0.713934 0.254359
H44   H     H_    0.116496 0.473539 0.761558 0.262707
H45   H     H_    0.121982 0.247806 0.739850 0.102436
H46   H     H_    0.009647 0.387456 0.699102 0.246819
H47   H     H_    0.944854 0.750540 0.810135 0.246373
H48   H     H_    0.042729 0.776717 0.883219 0.256694
H49   H     H_    0.972574 0.811687 0.908372 0.253633
H50   H     H_    0.907917 0.871036 0.132548 0.242508
H51   H     H_    0.900267 0.966743 0.149820 0.261238
H52   H     H_    0.884756 0.901354 0.057634 0.251953
H53   H     H_    0.043343 0.754610 0.409520 0.084525
H54   H     H_    0.956442 0.678356 0.589365 0.119168
H55   H     H_    0.058102 0.650443 0.424059 0.117782
H56   H     H_    0.141249 0.580073 0.421724 0.126868
N1    N     N_R   0.052570 0.055840 0.395080 -0.039363
N2    N     N_2   0.462890 0.626161 0.995549 -0.106162
N3    N     N_2   0.156848 0.026422 0.050304 -0.095160
N4    N     N_R   0.834730 0.954500 0.499860 -0.039545
N5    N     N_2   0.123958 0.953982 0.997910 -0.087003
N6    N     N_R   0.890190 0.849120 0.355200 -0.040147
N7    N     N_R   0.997110 0.161210 0.539740 -0.041679
N8    N     N_R   0.841940 0.845190 0.395070 -0.039819
N9    N     N_R   0.045360 0.165140 0.499870 -0.039486
N10   N     N_R   0.877490 0.041590 0.539730 -0.041030
N11   N     N_R   0.009810 0.968740 0.355210 -0.040873
N12   N     N_R   0.954640 0.834860 0.500130 -0.036319
N13   N     N_R   0.158060 0.154810 0.604930 -0.037995
N14   N     N_R   0.122510 0.958410 0.460270 -0.041780
N15   N     N_R   0.990190 0.031260 0.644790 -0.057365
N16   N     N_R   0.947430 0.944160 0.604920 -0.052704
N17   N     N_R   0.165270 0.045500 0.500140 -0.042612
N18   N     N_R   0.109810 0.150880 0.644800 -0.035683
N19   N     N_R   0.002890 0.838790 0.460260 -0.038235
N20   N     N_2   0.477578 0.605120 0.939067 -0.105206
Ni1   Ni    Ni4+2 0.104370 0.104380 0.500010 0.205468
Ni2   Ni    Ni4+2 0.895630 0.895620 0.499990 0.210856
Ni3   Ni    Ni4+2 0.006290 0.904630 0.408560 0.212801
Ni4   Ni    Ni4+2 0.993710 0.095370 0.591440 0.206598

loop_
_geom_bond_atom_site_label_1
_geom_bond_atom_site_label_2
_ccdc_geom_bond_type
C66   C68   A    
C63   C65   A    
N1    Ni1   S    
C6    C45   A    
C27   C29   A    
C84   N16   A    
C41   C42   A    
C14   C18   A    
C35   C36   A    
C76   C79   A    
C3    C6    A    
C24   H5    S    
C81   H46   S    
C39   C41   A    
C63   C79   S    
C53   C54   A    
C70   H30   S    
C7    C11   S    
C57   H18   S    
C69   H29   S    
C25   H6    S    
C66   H32   S    
C67   N14   A    
C76   H37   S    
C13   H55   S    
C22   C29   A    
C43   H15   S    
C19   H3    S    
N7    Ni4   S    
C2    N17   A    
C30   C31   A    
C12   C64   A    
C78   C80   S    
C16   H13   S    
C57   C59   A    
C62   H24   S    
C80   H41   S    
C10   C17   A    
C58   C60   A    
C23   C40   A    
C50   H26   S    
C68   N3    S    
C16   N6    A    
C18   C19   A    
N13   N18   A    
C83   H50   S    
N4    N10   A    
C46   C47   A    
C46   H11   S    
C47   C48   A    
C59   N2    S    
C68   C69   A    
C59   C62   A    
C3    N18   A    
C56   N12   A    
C61   H21   S    
C4    C12   A    
C83   H51   S    
N18   Ni4   S    
N4    Ni2   S    
C40   H33   S    
N12   N19   A    
N16   Ni2   S    
C13   C14   A    
C81   H43   S    
C61   C62   A    
C45   N13   A    
C7    C56   A    
C12   C47   S    
C35   C41   A    
N6    N8    A    
C27   C34   S    
C1    H1    S    
C23   C60   S    
C74   C75   A    
C40   N8    A    
C54   H19   S    
C24   C25   A    
N14   N17   A    
C72   C74   A    
C5    C7    A    
C52   N9    A    
C76   N11   A    
C5    N19   A    
C49   C55   A    
C44   H16   S    
C55   H20   S    
C33   C37   A    
C28   H25   S    
C64   N10   A    
C60   C61   A    
C51   C53   A    
C65   C83   S    
C43   C44   A    
C29   C81   S    
C37   C38   A    
N14   Ni3   S    
C31   C32   A    
C63   C70   A    
C15   C21   A    
C71   H28   S    
C38   H10   S    
C50   C51   A    
C26   C27   A    
C37   H9    S    
C58   H17   S    
C42   C48   A    
C18   H56   S    
C75   C77   A    
C83   H52   S    
C39   C46   A    
C2    H42   S    
C84   H34   S    
C65   C66   A    
C16   C23   A    
N11   Ni3   S    
C81   H44   S    
C45   H38   S    
N19   Ni3   S    
C36   C44   A    
N9    Ni1   S    
C42   C43   A    
C82   H48   S    
N17   Ni1   S    
N10   Ni4   S    
N1    N11   A    
C71   C73   A    
C80   H40   S    
N3    N5    D    
C54   C55   A    
C53   N20   S    
N7    N9    A    
C3    H45   S    
C8    C31   S    
C2    C8    A    
N2    N20   D    
C30   H7    S    
C4    N4    A    
C15   C17   A    
N15   Ni4   S    
C48   H14   S    
N6    Ni3   S    
C34   C52   A    
C64   H36   S    
C30   C36   A    
C17   C25   A    
C32   C33   A    
C19   C20   A    
N8    Ni2   S    
C5    H53   S    
C11   C13   A    
C67   H23   S    
C57   C58   A    
C38   C39   A    
C20   C26   A    
C77   C82   S    
C82   H49   S    
C51   H22   S    
C1    C79   A    
C33   C35   A    
C22   C24   A    
C9    C78   A    
C75   H31   S    
C6    C49   S    
C56   H12   S    
C69   C70   A    
C78   N15   A    
C72   H27   S    
C1    N1    A    
C10   C11   A    
C32   H8    S    
C9    C84   A    
C28   C34   A    
C52   H35   S    
C71   C72   A    
C4    H2    S    
C20   C21   A    
C8    C67   A    
C26   H4    S    
C49   C50   A    
C9    C74   S    
C73   N5    S    
N15   N16   A    
C73   C77   A    
C14   C15   A    
C10   H54   S    
C82   H47   S    
C21   C22   A    
N13   Ni1   S    
N12   Ni2   S    
C28   N7    A    
C80   H39   S    
