data_mof_unit_38100.cif
_audit_creation_date              2013-03-05T16:31:37-0500
_audit_creation_method            fapswitch 2.2
_symmetry_space_group_name_H-M    P1
_symmetry_Int_Tables_number       1
_space_group_crystal_system       triclinic
_cell_length_a                    9.571597
_cell_length_b                    10.820358
_cell_length_c                    15.446386
_cell_angle_alpha                 89.916994
_cell_angle_beta                  74.291263
_cell_angle_gamma                 89.972793
_cell_volume                      1540.00130529

loop_
_atom_site_label
_atom_site_type_symbol
_atom_site_description
_atom_site_fract_x
_atom_site_fract_y
_atom_site_fract_z
_atom_type_partial_charge
O1    O     O_R   0.118810 0.319640 0.500000 -0.542677
O2    O     O_R   0.881230 0.319680 0.499990 -0.573773
C1    C     C_R   0.000629 0.262445 0.498690 0.840777
O3    O     O_R   0.055580 0.499970 0.629840 -0.583605
O4    O     O_R   0.818000 0.500010 0.629830 -0.597942
C2    C     C_R   0.918278 0.498510 0.672143 0.829889
Cu1   Cu    Cu3+1 0.140670 0.499980 0.500000 1.023096
Cu2   Cu    Cu3+1 0.859330 0.500020 0.500000 0.971542
O5    O     O_R   0.118770 0.680320 0.500010 -0.540118
O6    O     O_R   0.881190 0.680360 0.500000 -0.604768
O7    O     O_R   0.182000 0.499990 0.370170 -0.578095
O8    O     O_R   0.944420 0.500030 0.370160 -0.589544
C3    C     C_R   0.000528 0.737520 0.498643 0.855036
C4    C     C_R   0.081856 0.503110 0.327954 0.813168
C5    C     C_R   0.873254 0.490538 0.770593 -0.044569
C6    C     C_R   0.127724 0.522916 0.230471 -0.096173
C7    C     C_R   0.914399 0.421118 0.910470 -0.108709
C8    C     C_R   0.966164 0.442544 0.818363 -0.145747
C9    C     C_R   0.731142 0.523096 0.816321 -0.224041
C10   C     C_R   0.677519 0.505919 0.909690 0.098566
C11   C     C_R   0.770178 0.449888 0.955986 0.180644
C12   C     C_R   0.532931 0.538351 0.957362 0.079915
C13   C     C_R   0.477056 0.500435 0.048407 0.094870
C14   C     C_R   0.573268 0.443453 0.091839 -0.203212
C15   C     C_R   0.717568 0.421511 0.046850 -0.179894
C16   C     C_R   0.444476 0.611075 0.917654 -0.226343
C17   C     C_R   0.303303 0.640895 0.963762 -0.163684
C18   C     C_R   0.241667 0.597140 0.050951 0.030587
C19   C     C_R   0.328668 0.525352 0.093899 0.060326
C20   C     C_R   0.097394 0.629528 0.098367 0.331234
C21   C     C_R   0.044371 0.595035 0.188535 -0.261352
C22   C     C_R   0.265365 0.483913 0.182176 -0.238276
H1    H     H_    0.787739 0.379382 0.083141 0.147686
H2    H     H_    0.321528 0.422994 0.216537 0.141809
H3    H     H_    0.939443 0.628245 0.226757 0.181498
H4    H     H_    0.244731 0.701608 0.930381 0.201848
H5    H     H_    0.986416 0.380156 0.945927 0.137755
H6    H     H_    0.076546 0.416614 0.783992 0.154672
H7    H     H_    0.662289 0.556591 0.776659 0.136574
H8    H     H_    0.542349 0.417356 0.161634 0.131334
H9    H     H_    0.483624 0.652162 0.851943 0.145175
C23   C     C_R   0.126589 0.063520 0.497714 0.025546
C24   C     C_R   0.004525 0.129314 0.490849 -0.091818
C25   C     C_R   0.888856 0.064569 0.471899 -0.162196
H10   H     H_    0.795997 0.112916 0.460910 0.204443
C26   C     C_R   0.888897 0.935622 0.471666 -0.195624
H11   H     H_    0.796208 0.887460 0.460374 0.174212
C27   C     C_R   0.004269 0.870618 0.490817 -0.037991
C28   C     C_R   0.125746 0.936178 0.498568 0.053030
C29   C     C_3   0.210080 0.927790 0.567137 0.081789
C30   C     C_3   0.211692 0.069297 0.566143 0.594266
H12   H     H_    0.317635 0.882488 0.540844 0.115179
C31   C     C_R   0.608240 0.496019 0.421131 0.200747
N1    N     N_R   0.648210 0.500930 0.499430 -0.180875
C32   C     C_R   0.539433 0.495241 0.578222 -0.022096
H13   H     H_    0.564500 0.492497 0.642151 0.136745
C33   C     C_R   0.391371 0.495279 0.578195 0.000832
H14   H     H_    0.309058 0.492515 0.641728 0.137323
N2    N     N_R   0.352300 0.500890 0.499430 -0.181208
C34   C     C_R   0.460878 0.497555 0.421213 0.187549
C35   C     C_3   0.490200 0.592398 0.347668 0.204193
C36   C     C_3   0.649587 0.587089 0.345985 -0.545358
H15   H     H_    0.468300 0.558828 0.284897 0.145063
H16   H     H_    0.716600 0.543067 0.283653 0.179200
H17   H     H_    0.694281 0.674447 0.365427 0.221453
N3    N     N_R   0.005644 0.702167 0.058052 0.112592
O9    O     O_R   0.987436 0.670827 0.980580 -0.379394
O10   O     O_R   0.921191 0.786251 0.105193 -0.336970
O11   O     O_3   0.125898 0.877705 0.648361 -0.689929
H18   H     H_    0.192496 0.868311 0.687223 0.328338
O12   O     O_3   0.132888 0.124693 0.646983 -0.698563
H19   H     H_    0.186389 0.106191 0.692255 0.340829
N4    N     N_R   0.356820 0.122695 0.529871 0.089729
O13   O     O_R   0.438328 0.088248 0.451730 -0.395263
O14   O     O_R   0.406503 0.204005 0.575950 -0.367364
O15   O     O_3   0.424728 0.707603 0.375229 -0.661228
H20   H     H_    0.448667 0.732766 0.431353 0.327340

loop_
_geom_bond_atom_site_label_1
_geom_bond_atom_site_label_2
_geom_bond_distance
_ccdc_geom_bond_type
C5    C8    1.399559 A    
N3    O10   1.301503 A    
C32   H13   1.077848 S    
N4    O13   1.302135 A    
C9    C10   1.405855 A    
Cu1   Cu2   2.692872 S    
C31   N1    1.364804 A    
C6    C21   1.393858 A    
Cu1   O7    1.936121 S    
C1    C24   1.445399 S    
C16   C17   1.384328 A    
C13   C19   1.429512 A    
C18   C19   1.426167 A    
C29   O11   1.402881 S    
C19   C22   1.406609 A    
O4    C2    1.299362 A    
O7    C4    1.297496 A    
C33   N2    1.367436 A    
C35   H15   1.107768 S    
O5    C3    1.294851 A    
C36   H16   1.109930 S    
C2    C5    1.466454 S    
C26   H11   1.083317 S    
C29   H12   1.112984 S    
C13   C14   1.418129 A    
C23   C30   1.500371 S    
N3    O9    1.300589 A    
N2    C34   1.364265 A    
N4    O14   1.300874 A    
O11   H18   0.991946 S    
C30   O12   1.406835 S    
O3    Cu1   1.949641 S    
Cu1   N2    2.023300 S    
C31   C34   1.410243 A    
C25   C26   1.395268 A    
C29   C30   1.531251 S    
C35   O15   1.408615 S    
C26   C27   1.406145 A    
O15   H20   0.993221 S    
O3    C2    1.299736 A    
Cu2   N1    2.023178 S    
C7    C11   1.404094 A    
C34   C35   1.498884 S    
O1    C1    1.294634 A    
C22   H2    1.076261 S    
C5    C9    1.397593 A    
C24   C25   1.406773 A    
O4    Cu2   1.936118 S    
C31   C36   1.491056 S    
Cu2   O8    1.949641 S    
C7    C8    1.393126 A    
C7    H5    1.083980 S    
C14   C15   1.388306 A    
C20   N3    1.439038 S    
C9    H7    1.076455 S    
C27   C28   1.394957 A    
C10   C12   1.424476 A    
C32   C33   1.417299 A    
C4    C6    1.465331 S    
C23   C24   1.396123 A    
C25   H10   1.083260 S    
Cu1   O5    1.962467 S    
C11   C15   1.390649 A    
N1    C32   1.372129 A    
C36   H17   1.112411 S    
O1    Cu1   1.962628 S    
O2    Cu2   1.962466 S    
C30   N4    1.468245 S    
O8    C4    1.300851 A    
O6    C3    1.294370 A    
C3    C27   1.444710 S    
C17   H4    1.080231 S    
C6    C22   1.392290 A    
C18   C20   1.420845 A    
O2    C1    1.294977 A    
C8    H6    1.083167 S    
O12   H19   0.992338 S    
C33   H14   1.079792 S    
C20   C21   1.397348 A    
C14   H8    1.075170 S    
C21   H3    1.079616 S    
C35   C36   1.519813 S    
C23   C28   1.377943 A    
C10   C11   1.416758 A    
Cu2   O6    1.962628 S    
C28   C29   1.498070 S    
C12   C16   1.411162 A    
C17   C18   1.397910 A    
C12   C13   1.422443 A    
C16   H9    1.077580 S    
C15   H1    1.084435 S    
