data_mof_unit_29706.cif
_audit_creation_date              2012-12-11T14:15:35-0500
_audit_creation_method            fapswitch 2.2
_symmetry_space_group_name_H-M    P1
_symmetry_Int_Tables_number       1
_space_group_crystal_system       triclinic
_cell_length_a                    11.176044
_cell_length_b                    12.670024
_cell_length_c                    23.65818
_cell_angle_alpha                 90.574635
_cell_angle_beta                  96.257749
_cell_angle_gamma                 68.336031
_cell_volume                      3093.18126916

loop_
_atom_site_label
_atom_site_type_symbol
_atom_type_description
_atom_site_fract_x
_atom_site_fract_y
_atom_site_fract_z
_atom_type_partial_charge
C1    C     C_R   0.149761 0.616319 0.428970 0.547217
C2    C     C_R   0.724791 0.536778 0.309467 -0.113152
C3    C     C_R   0.673532 0.738957 0.321716 -0.091663
C4    C     C_R   0.641358 0.757928 0.263025 0.028252
C5    C     C_R   0.641660 0.664826 0.229106 0.048205
C6    C     C_R   0.579260 0.686625 0.174494 0.138386
C7    C     C_R   0.576048 0.879457 0.178020 -0.122643
C8    C     C_R   0.607880 0.866267 0.236918 0.171841
C9    C     C_1   0.234990 0.161896 0.123101 0.014845
C10   C     C_2   0.180060 0.233148 0.226416 -0.111367
C11   C     C_2   0.158051 0.164485 0.263381 -0.092250
C12   C     C_R   0.752016 0.602961 0.404096 0.544761
C13   C     C_1   0.134612 0.199112 0.320846 -0.016924
C14   C     C_1   0.209532 0.196872 0.169738 -0.019908
C15   C     C_1   0.117633 0.232583 0.368419 0.018065
C16   C     C_1   0.166026 0.754435 0.123885 0.038219
C17   C     C_2   0.135832 0.721620 0.231036 0.181245
C18   C     C_2   0.218110 0.633658 0.265076 -0.000538
C19   C     C_1   0.205181 0.631418 0.325039 0.023369
C20   C     C_1   0.151477 0.735145 0.171989 0.015782
C21   C     C_1   0.186955 0.626796 0.374006 0.033671
C22   C     C_1   0.628336 0.755611 0.864843 0.024394
C23   C     C_R   0.101517 0.282795 0.423247 0.542511
C24   C     C_2   0.701521 0.706090 0.761828 -0.114488
C25   C     C_2   0.613426 0.705924 0.718534 -0.086385
C26   C     C_1   0.652428 0.671086 0.662914 0.003113
C27   C     C_1   0.664367 0.734586 0.818274 -0.020559
C28   C     C_1   0.691062 0.640413 0.617529 0.041712
C29   C     C_R   0.201953 0.177648 0.852396 -0.006882
C30   C     C_R   0.113316 0.216821 0.639440 0.005259
C31   C     C_R   0.008884 0.172309 0.715508 -0.125031
C32   C     C_R   0.006669 0.199716 0.658263 -0.146197
C33   C     C_R   0.223849 0.200045 0.678151 0.197409
C34   C     C_R   0.149172 0.617251 0.590333 0.571305
C35   C     C_R   0.211504 0.203713 0.736453 0.050302
C36   C     C_R   0.108404 0.178985 0.755234 -0.019561
C37   C     C_R   0.108896 0.159103 0.813218 -0.139596
C38   C     C_R   0.278764 0.234692 0.834208 -0.008686
C39   C     C_R   0.291763 0.239394 0.776082 0.195741
C40   C     C_R   0.139034 0.742165 0.852012 0.022000
C41   C     C_R   0.185229 0.638887 0.648446 0.026530
C42   C     C_R   0.329689 0.595077 0.735059 -0.060201
C43   C     C_R   0.309940 0.585020 0.676609 0.157327
C44   C     C_R   0.083766 0.707096 0.678153 -0.147691
C45   C     C_R   0.749989 0.602438 0.566218 0.552273
C46   C     C_R   0.102444 0.716116 0.735996 0.002100
C47   C     C_R   0.225388 0.656640 0.765663 0.030989
C48   C     C_R   0.241464 0.662550 0.824759 0.137774
C49   C     C_R   0.017063 0.797585 0.821812 -0.155168
C50   C     C_R   0.998252 0.782992 0.764182 -0.146951
C51   C     C_R   0.265620 0.109709 0.069555 0.530612
C52   C     C_R   0.532805 0.798931 0.084976 0.573629
C53   C     C_R   0.188453 0.787554 0.069343 0.549296
C54   C     C_R   0.241526 0.114586 0.907216 0.546260
C55   C     C_R   0.573662 0.776303 0.918002 0.560849
C56   C     C_R   0.100625 0.276913 0.584875 0.555934
C57   C     C_R   0.166533 0.785522 0.906998 0.555275
C58   C     C_R   0.562226 0.789538 0.146564 -0.022835
C59   C     C_R   0.707984 0.629290 0.344734 -0.006973
C60   C     C_R   0.699554 0.552740 0.251556 0.001778
Cr1   Cr    Cr6+3 0.189770 0.415650 0.511620 1.123891
Cr2   Cr    Cr6+3 0.930400 0.667320 0.496770 1.061993
Cr3   Cr    Cr6+3 0.879870 0.417010 0.491650 1.060263
Cr4   Cr    Cr6+3 0.149500 0.973980 0.985330 1.041088
Cr5   Cr    Cr6+3 0.457000 0.976510 0.994660 1.043985
Cr6   Cr    Cr6+3 0.411170 0.724270 0.995270 1.120086
H1    H     H_    0.512078 0.729840 0.724917 0.150263
H2    H     H_    0.803034 0.680414 0.755520 0.132758
H3    H     H_    0.042101 0.123624 0.827322 0.144118
H4    H     H_    0.928235 0.155272 0.729278 0.149327
H5    H     H_    0.921474 0.209098 0.629058 0.161971
H6    H     H_    0.557740 0.960607 0.157249 0.174215
H7    H     H_    0.937802 0.856526 0.842268 0.147142
H8    H     H_    0.427235 0.554024 0.755584 0.207569
H9    H     H_    0.903700 0.828339 0.741171 0.129480
H10   H     H_    0.986665 0.749568 0.656736 0.147730
H11   H     H_    0.766688 0.450119 0.326646 0.154043
H12   H     H_    0.671404 0.807658 0.349637 0.182445
H13   H     H_    0.160426 0.080958 0.251047 0.168243
H14   H     H_    0.178386 0.316389 0.238915 0.131314
O1    O     O_R   0.196340 0.303200 0.448500 -0.493000
O2    O     O_R   0.811960 0.658090 0.547150 -0.504817
O3    O     O_R   0.757930 0.506140 0.547110 -0.477860
O4    O     O_R   0.988670 0.321620 0.556040 -0.509573
O5    O     O_3   0.000020 0.499990 0.500010 -0.279592
O6    O     O_R   0.113660 0.883270 0.047820 -0.505089
O7    O     O_R   0.186930 0.068530 0.043990 -0.494357
O8    O     O_R   0.377770 0.089040 0.054220 -0.514087
O9    O     O_R   0.562800 0.872960 0.056970 -0.502287
O10   O     O_R   0.555390 0.700940 0.062700 -0.449393
O11   O     O_R   0.295020 0.731920 0.049950 -0.472337
O12   O     O_R   0.199310 0.519670 0.454880 -0.496904
O13   O     O_R   0.094290 0.884230 0.921550 -0.523349
O14   O     O_R   0.168980 0.069410 0.926940 -0.498098
O15   O     O_R   0.358400 0.089990 0.927950 -0.508727
O16   O     O_R   0.544850 0.873850 0.939920 -0.494334
O17   O     O_R   0.536020 0.701900 0.936430 -0.452152
O18   O     O_R   0.277070 0.732810 0.932890 -0.452101
O19   O     O_3   0.339220 0.891590 0.991750 -0.292755
O20   O     O_R   0.045660 0.691380 0.441680 -0.483369
O21   O     O_R   0.811930 0.659460 0.430950 -0.493768
O22   O     O_R   0.757900 0.507620 0.421760 -0.515594
O23   O     O_R   0.988630 0.322990 0.439840 -0.500050
O24   O     O_R   0.196380 0.301720 0.573850 -0.441269
O25   O     O_R   0.199350 0.518300 0.571080 -0.443723
O26   O     O_R   0.045700 0.689900 0.567030 -0.532516
Br1   Br    Br    0.492271 0.586068 0.145152 -0.560033
Br2   Br    Br    0.999266 0.844563 0.260616 -0.454487
C61   C     C_3   0.343691 0.292908 0.876181 -0.315058
H15   H     H_    0.312357 0.382972 0.862258 0.195556
H16   H     H_    0.313912 0.294124 0.919491 0.140993
H17   H     H_    0.450713 0.251353 0.878308 0.192076
Br3   Br    Br    0.405116 0.310483 0.752535 -0.429321
Br4   Br    Br    0.393454 0.137234 0.651751 -0.384710
Br5   Br    Br    0.402975 0.559402 0.865491 -0.503305
Br6   Br    Br    0.455434 0.498122 0.637647 -0.429442
C62   C     C_3   0.752794 0.449342 0.216035 -0.353150
H18   H     H_    0.853469 0.396815 0.233849 0.123174
H19   H     H_    0.692395 0.396778 0.216476 0.182678
H20   H     H_    0.758698 0.472741 0.171642 0.187334
Br7   Br    Br    0.609851 0.996831 0.278380 -0.467149
C63   C     C_3   0.319033 0.530864 0.243136 -0.381745
H21   H     H_    0.314429 0.452450 0.261701 0.134246
H22   H     H_    0.303464 0.525518 0.196293 0.178098
H23   H     H_    0.416788 0.532517 0.256135 0.180839

loop_
_geom_bond_atom_site_label_1
_geom_bond_atom_site_label_2
_ccdc_geom_bond_type
C1    C21   S    
C37   H3    S    
C6    C58   A    
C52   O10   A    
C45   O2    A    
C9    C51   S    
C24   C27   S    
C4    C8    A    
C7    C8    A    
Cr6   O10   S    
Cr5   O9    S    
C33   Br4   S    
Cr6   O17   S    
C36   C37   A    
C19   C21   T    
Cr4   O13   S    
C61   H16   S    
C5    C6    A    
C2    C60   A    
C8    Br7   S    
C29   C54   S    
C40   C49   A    
C17   C20   S    
C18   C19   S    
C44   H10   S    
C16   C53   S    
C12   C59   S    
Cr4   O19   S    
C23   O23   A    
C47   C48   A    
C39   Br3   S    
C25   H1    S    
C29   C38   A    
C53   O11   A    
C6    Br1   S    
C53   O6    A    
C11   H13   S    
Cr1   O25   S    
C61   H15   S    
C7    C58   A    
C30   C33   A    
Cr1   O12   S    
Cr2   O21   S    
C15   C23   S    
Cr2   O2    S    
C57   O13   A    
Cr3   O5    S    
C41   C43   A    
C52   O9    A    
C45   O3    A    
C34   C41   S    
Cr3   O22   S    
C1    O20   A    
Cr4   O6    S    
C44   C46   A    
C56   O4    A    
C32   H5    S    
Cr5   O16   S    
C52   C58   S    
Cr2   O5    S    
C28   C45   S    
C42   H8    S    
C34   O26   A    
Cr1   O24   S    
C24   C25   D    
Cr5   O19   S    
Cr3   O23   S    
C10   C14   S    
C62   H20   S    
C51   O7    A    
C7    H6    S    
C10   H14   S    
C2    C59   A    
C55   O16   A    
C25   C26   S    
C30   C56   S    
C61   H17   S    
Cr3   O3    S    
C35   C36   A    
Cr6   O19   S    
C35   C39   A    
C9    C14   T    
C12   O22   A    
C43   Br6   S    
C31   C32   A    
C16   C20   T    
C55   O17   A    
C17   C18   D    
C60   C62   S    
C38   C61   S    
C56   O24   A    
C54   O15   A    
Cr6   O11   S    
Cr1   O5    S    
C18   C63   S    
C48   Br5   S    
Cr2   O20   S    
C1    O12   A    
C22   C27   T    
C13   C15   T    
C41   C44   A    
C49   H7    S    
C17   Br2   S    
C42   C43   A    
C63   H22   S    
C3    C4    A    
Cr5   O8    S    
C40   C48   A    
C46   C47   A    
C40   C57   S    
Cr4   O7    S    
C5    C60   A    
C34   O25   A    
C23   O1    A    
C4    C5    A    
C51   O8    A    
C22   C55   S    
Cr2   O26   S    
C46   C50   A    
C26   C28   T    
Cr3   O4    S    
C31   H4    S    
C63   H23   S    
C62   H19   S    
Cr4   O14   S    
C12   O21   A    
C2    H11   S    
Cr1   O1    S    
C62   H18   S    
C30   C32   A    
C11   C13   S    
Cr6   O18   S    
C38   C39   A    
C57   O18   A    
C33   C35   A    
C42   C47   A    
C54   O14   A    
C10   C11   D    
C24   H2    S    
Cr5   O15   S    
C49   C50   A    
C29   C37   A    
C31   C36   A    
C63   H21   S    
C50   H9    S    
C3    H12   S    
C3    C59   A    
