data_mof_unit_5845.cif
_audit_creation_date              2012-12-10T17:31:18-0500
_audit_creation_method            fapswitch 2.2
_symmetry_space_group_name_H-M    P1
_symmetry_Int_Tables_number       1
_space_group_crystal_system       triclinic
_cell_length_a                    18.985945
_cell_length_b                    18.584397
_cell_length_c                    12.394433
_cell_angle_alpha                 89.876049
_cell_angle_beta                  129.623644
_cell_angle_gamma                 90.153615
_cell_volume                      3368.50738152

loop_
_atom_site_label
_atom_site_type_symbol
_atom_type_description
_atom_site_fract_x
_atom_site_fract_y
_atom_site_fract_z
_atom_type_partial_charge
C1    C     C_R   0.612686 0.898520 0.653671 0.860854
C2    C     C_R   0.611752 0.102298 0.652430 0.850377
C3    C     C_R   0.112049 0.398019 0.652866 0.858860
C4    C     C_R   0.111844 0.602208 0.652548 0.846006
C5    C     C_R   0.261716 0.756765 0.067883 -0.010813
C6    C     C_R   0.264802 0.245036 0.070389 -0.013679
C7    C     C_R   0.763041 0.257105 0.067904 -0.010276
C8    C     C_R   0.762942 0.745258 0.070369 -0.015450
C9    C     C_R   0.701007 0.231016 0.085561 -0.079030
C10   C     C_R   0.693653 0.764424 0.076933 -0.080247
C11   C     C_R   0.196045 0.734012 0.080343 -0.077687
C12   C     C_R   0.201112 0.269501 0.085498 -0.122169
C13   C     C_R   0.618047 0.200185 0.968487 0.311701
C14   C     C_R   0.611567 0.793495 0.956405 0.285588
C15   C     C_R   0.113311 0.703784 0.961178 0.314362
C16   C     C_R   0.117888 0.298444 0.967420 0.275771
C17   C     C_R   0.603934 0.193102 0.842856 0.396463
C18   C     C_R   0.602608 0.802708 0.835080 0.323255
C19   C     C_R   0.101969 0.695322 0.838063 0.402175
C20   C     C_R   0.104522 0.305504 0.841806 0.331177
C21   C     C_R   0.321934 0.811555 0.155359 -0.241921
C22   C     C_R   0.322635 0.188618 0.155407 -0.198971
C23   C     C_R   0.821109 0.313169 0.153244 -0.237993
C24   C     C_R   0.823690 0.690798 0.158582 -0.231838
C25   C     C_R   0.276311 0.801487 0.298463 0.319456
C26   C     C_R   0.283329 0.204253 0.305474 0.357092
C27   C     C_R   0.784555 0.295982 0.306863 0.319410
C28   C     C_R   0.768904 0.692872 0.290015 0.369476
C29   C     C_R   0.679098 0.158976 0.743674 -0.107587
C30   C     C_R   0.682621 0.844417 0.748433 -0.118954
C31   C     C_R   0.179895 0.658191 0.744983 -0.104668
C32   C     C_R   0.180349 0.342336 0.745152 -0.126975
C33   C     C_R   0.688186 0.996229 0.290078 0.359310
C34   C     C_R   0.187687 0.492202 0.289660 0.353054
C35   C     C_R   0.342797 0.989108 0.626187 0.593095
C36   C     C_R   0.842009 0.498890 0.625670 0.621373
C37   C     C_R   0.312729 0.969322 0.701774 0.116006
C38   C     C_R   0.809195 0.487172 0.700193 0.093376
C39   C     C_R   0.388587 0.102520 0.348556 0.851318
C40   C     C_R   0.387380 0.898309 0.347035 0.872704
C41   C     C_R   0.886833 0.601350 0.346268 0.869517
C42   C     C_R   0.888327 0.397751 0.348156 0.852239
C43   C     C_R   0.376588 0.965347 0.849633 0.348930
C44   C     C_R   0.872462 0.473113 0.845499 0.355601
C45   C     C_R   0.466055 0.991953 0.922454 -0.010149
C46   C     C_R   0.965188 0.491406 0.921611 -0.003203
C47   C     C_R   0.496034 0.000735 0.843127 0.072130
C48   C     C_R   0.995910 0.498092 0.842996 0.065482
C49   C     C_R   0.530450 0.998346 0.073352 -0.050955
C50   C     C_R   0.029737 0.496261 0.072876 -0.051674
C51   C     C_R   0.625159 0.997852 0.142373 -0.130195
C52   C     C_R   0.124516 0.493685 0.141920 -0.141052
C53   C     C_R   0.654657 0.996625 0.062766 0.399818
C54   C     C_R   0.154057 0.491206 0.062403 0.394351
C55   C     C_R   0.590479 0.002099 0.916859 -0.195749
C56   C     C_R   0.090295 0.498124 0.916820 -0.198176
C57   C     C_R   0.503481 0.006130 0.157524 0.572867
C58   C     C_R   0.003365 0.505937 0.157618 0.568176
C59   C     C_R   0.657654 0.992649 0.366553 0.460563
C60   C     C_R   0.157325 0.490825 0.366381 0.469114
C61   C     C_R   0.722119 0.240754 0.216359 0.292640
C62   C     C_R   0.704550 0.746113 0.197958 0.359546
C63   C     C_R   0.213722 0.746370 0.208128 0.289857
C64   C     C_R   0.219128 0.256566 0.213780 0.460992
C65   C     C_R   0.326873 0.836611 0.266079 -0.167131
C66   C     C_R   0.329375 0.165027 0.268850 -0.272512
C67   C     C_R   0.829506 0.335164 0.268561 -0.176643
C68   C     C_R   0.824797 0.662179 0.263856 -0.202428
C69   C     C_R   0.752912 0.167484 0.745052 -0.424094
C70   C     C_R   0.759526 0.840689 0.756844 -0.401348
C71   C     C_R   0.255469 0.664538 0.750331 -0.420775
C72   C     C_R   0.254487 0.334847 0.747158 -0.393013
C73   C     C_R   0.337853 0.693467 0.868119 0.431816
C74   C     C_R   0.336508 0.304223 0.862257 0.427625
C75   C     C_R   0.834559 0.199084 0.859322 0.424111
C76   C     C_R   0.841736 0.812405 0.875467 0.431677
C77   C     C_R   0.341884 0.723453 0.975704 0.413701
C78   C     C_R   0.342035 0.274918 0.971841 0.407990
C79   C     C_R   0.839634 0.229144 0.967843 0.424191
C80   C     C_R   0.845375 0.782165 0.982710 0.412686
C81   C     C_R   0.761336 0.228709 0.960307 -0.142259
C82   C     C_R   0.764440 0.777171 0.967804 -0.127169
C83   C     C_R   0.261696 0.726549 0.963017 -0.148257
C84   C     C_R   0.263463 0.274100 0.963452 -0.127259
C85   C     C_R   0.680476 0.193590 0.847130 -0.085297
C86   C     C_R   0.682516 0.808349 0.849148 -0.052249
C87   C     C_R   0.180233 0.693458 0.846890 -0.084646
C88   C     C_R   0.181990 0.307688 0.848738 -0.052062
Cu1   Cu    Cu3+1 0.526340 0.000000 0.421010 0.956677
Cu2   Cu    Cu3+1 0.026340 0.500000 0.421010 0.953931
Cu3   Cu    Cu3+1 0.473640 0.000000 0.578990 1.031875
Cu4   Cu    Cu3+1 0.973640 0.500000 0.578990 1.045560
H1    H     H_    0.617760 0.002312 0.864251 0.173089
H2    H     H_    0.117792 0.500532 0.864531 0.174553
H3    H     H_    0.360814 0.838519 0.131079 0.251038
H4    H     H_    0.358684 0.159987 0.127990 0.261886
H5    H     H_    0.855502 0.343245 0.124103 0.250572
H6    H     H_    0.866077 0.666506 0.138846 0.264608
H7    H     H_    0.750100 0.144007 0.662559 0.188151
H8    H     H_    0.757951 0.864875 0.675888 0.220597
H9    H     H_    0.253225 0.640908 0.668492 0.185528
H10   H     H_    0.251257 0.357876 0.663895 0.227014
N1    N     N_R   0.566260 0.000000 0.302220 -0.313806
N2    N     N_R   0.066260 0.500000 0.302220 -0.313117
N3    N     N_R   0.434410 1.000000 0.697680 -0.246558
N4    N     N_R   0.934410 0.500000 0.697680 -0.241116
O1    O     O_R   0.608610 0.924520 0.551740 -0.596263
O2    O     O_R   0.608610 0.075480 0.551740 -0.626558
O3    O     O_R   0.108610 0.424520 0.551740 -0.595509
O4    O     O_R   0.108610 0.575480 0.551740 -0.626027
O5    O     O_R   0.564110 0.924510 0.685150 -0.571075
O6    O     O_R   0.564110 0.075490 0.685150 -0.560437
O7    O     O_R   0.064110 0.424510 0.685150 -0.570010
O8    O     O_R   0.064110 0.575490 0.685150 -0.561637
O9    O     O_R   0.435880 0.075470 0.314850 -0.581772
O10   O     O_R   0.435880 0.924530 0.314850 -0.626793
O11   O     O_R   0.935880 0.575470 0.314850 -0.596733
O12   O     O_R   0.935880 0.424530 0.314850 -0.623483
O13   O     O_R   0.391380 0.075460 0.448260 -0.534229
O14   O     O_R   0.391380 0.924540 0.448260 -0.450748
O15   O     O_R   0.891380 0.575460 0.448260 -0.454358
O16   O     O_R   0.891380 0.424540 0.448260 -0.488116
O17   O     O_3   0.286872 0.822999 0.414646 -0.681387
H11   H     H_    0.229499 0.813053 0.398354 0.328814
O18   O     O_3   0.303329 0.196216 0.432786 -0.657438
H12   H     H_    0.285216 0.146922 0.435621 0.334049
O19   O     O_3   0.800601 0.313698 0.429047 -0.714273
H13   H     H_    0.747340 0.298909 0.421118 0.313156
O20   O     O_3   0.778114 0.669803 0.404671 -0.667130
H14   H     H_    0.732127 0.693349 0.406304 0.361579
O21   O     O_3   0.746459 0.988386 0.128191 -0.723839
H15   H     H_    0.755467 0.987212 0.057717 0.294399
O22   O     O_3   0.245586 0.481173 0.127696 -0.722371
H16   H     H_    0.254288 0.478156 0.056986 0.295507
O23   O     O_3   0.781278 0.998888 0.364922 -0.633293
H17   H     H_    0.793606 0.044337 0.337381 0.360162
O24   O     O_3   0.280784 0.492739 0.364215 -0.627012
H18   H     H_    0.294564 0.537776 0.337694 0.357206
O25   O     O_3   0.415523 0.027938 0.092207 -0.681636
H19   H     H_    0.393149 0.999753 0.132212 0.369972
O26   O     O_3   0.916399 0.529684 0.093709 -0.677105
H20   H     H_    0.892750 0.500625 0.131003 0.369040
O27   O     O_3   0.286235 0.983793 0.480644 -0.517132
C89   C     C_3   0.197957 0.013327 0.408125 0.116784
H21   H     H_    0.199344 0.064032 0.457183 0.125338
H22   H     H_    0.151487 0.973457 0.400620 0.212993
C90   C     C_3   0.156453 0.028053 0.257071 -0.880463
H23   H     H_    0.151481 0.977092 0.206087 0.256483
H24   H     H_    0.086801 0.050808 0.198454 0.195018
H25   H     H_    0.199037 0.066258 0.252029 0.239604
O28   O     O_3   0.785447 0.515402 0.483158 -0.518290
C91   C     C_3   0.700440 0.479190 0.399119 0.173106
H26   H     H_    0.649566 0.510212 0.396770 0.194613
H27   H     H_    0.705809 0.423015 0.435058 0.156966
C92   C     C_3   0.664211 0.477139 0.248758 -0.859515
H28   H     H_    0.708597 0.443403 0.240610 0.250726
H29   H     H_    0.593994 0.454401 0.179698 0.189344
H30   H     H_    0.662071 0.532413 0.212710 0.254672
O29   O     O_3   0.357719 0.924911 0.922429 -0.708267
H31   H     H_    0.310870 0.888075 0.859643 0.344081
O30   O     O_3   0.846885 0.433773 0.910456 -0.710036
H32   H     H_    0.789024 0.407818 0.838865 0.335228
O31   O     O_3   0.223429 0.947964 0.630733 -0.772742
H33   H     H_    0.206312 0.958243 0.689832 0.345544
O32   O     O_3   0.716806 0.490827 0.632177 -0.776643
H34   H     H_    0.708047 0.500033 0.701706 0.356750
O33   O     O_3   0.546540 0.183583 0.967222 -0.678108
H35   H     H_    0.548457 0.216221 0.031883 0.411941
O34   O     O_3   0.538319 0.804339 0.953189 -0.650833
H36   H     H_    0.495625 0.838858 0.877213 0.333095
O35   O     O_3   0.039799 0.688169 0.955443 -0.679677
H37   H     H_    0.040970 0.720447 0.019653 0.420161
O36   O     O_3   0.047801 0.310658 0.971298 -0.666499
H38   H     H_    0.003032 0.343825 0.894154 0.336135
O37   O     O_3   0.685825 0.193532 0.255779 -0.751244
H39   H     H_    0.729455 0.188414 0.359042 0.326084
O38   O     O_3   0.653380 0.778338 0.227815 -0.701080
H40   H     H_    0.643478 0.829239 0.197163 0.367618
O39   O     O_3   0.173853 0.701939 0.245408 -0.739358
H41   H     H_    0.214092 0.699603 0.348908 0.327216
O40   O     O_3   0.175756 0.293353 0.253117 -0.662394
H42   H     H_    0.160154 0.341924 0.210766 0.360212
O41   O     O_3   0.426291 0.744964 0.097243 -0.530553
C93   C     C_3   0.469207 0.686073 0.190966 0.104642
H43   H     H_    0.507969 0.654327 0.168287 0.173841
H44   H     H_    0.420001 0.649556 0.185057 0.111100
C94   C     C_3   0.535916 0.714148 0.340547 -0.698351
H45   H     H_    0.498088 0.741788 0.369150 0.239664
H46   H     H_    0.574928 0.668600 0.413951 0.203186
H47   H     H_    0.584674 0.752791 0.351324 0.286296
O42   O     O_3   0.426150 0.250708 0.090014 -0.555421
C95   C     C_3   0.472919 0.307938 0.186757 0.057759
H48   H     H_    0.426942 0.342173 0.192031 0.143509
H49   H     H_    0.506685 0.342203 0.157845 0.151226
C96   C     C_3   0.546092 0.277257 0.332445 -0.721848
H50   H     H_    0.592421 0.241465 0.331811 0.268072
H51   H     H_    0.586821 0.321713 0.407952 0.196842
H52   H     H_    0.513791 0.245793 0.367001 0.256246
O43   O     O_3   0.923283 0.254972 0.084897 -0.536806
C97   C     C_3   0.974439 0.198027 0.180692 0.091793
H53   H     H_    0.015810 0.172024 0.157047 0.181026
H54   H     H_    0.931115 0.156187 0.178381 0.103937
C98   C     C_3   0.039214 0.228180 0.328874 -0.667344
H55   H     H_    0.999735 0.248708 0.360247 0.230823
H56   H     H_    0.086060 0.185179 0.403148 0.191430
H57   H     H_    0.080389 0.272943 0.334962 0.299075
O44   O     O_3   0.929642 0.760687 0.104227 -0.555912
C99   C     C_3   0.970187 0.818352 0.200777 0.051852
H58   H     H_    0.920035 0.848716 0.202016 0.145984
H59   H     H_    0.003166 0.856091 0.175088 0.154730
C100  C     C_3   0.043192 0.788791 0.347554 -0.704902
H60   H     H_    0.093350 0.756365 0.350562 0.259442
H61   H     H_    0.079578 0.833863 0.423299 0.223318
H62   H     H_    0.011211 0.754107 0.378952 0.248632
O45   O     O_3   0.416669 0.691557 0.882783 -0.507330
C101  C     C_3   0.437102 0.619907 0.872368 0.065208
H63   H     H_    0.394150 0.603215 0.760816 0.162137
H64   H     H_    0.427068 0.581346 0.930753 0.096609
C102  C     C_3   0.536431 0.615367 0.934326 -0.727135
H65   H     H_    0.581516 0.633102 0.045119 0.245828
H66   H     H_    0.553699 0.559049 0.930071 0.185557
H67   H     H_    0.548094 0.649853 0.873821 0.253530
O46   O     O_3   0.413113 0.302886 0.871088 -0.545640
C103  C     C_3   0.438094 0.373667 0.864623 0.065328
H68   H     H_    0.434387 0.411947 0.930115 0.096458
H69   H     H_    0.393450 0.393164 0.754570 0.201620
C104  C     C_3   0.535897 0.373589 0.918655 -0.773769
H70   H     H_    0.541142 0.339143 0.851044 0.265720
H71   H     H_    0.556909 0.429067 0.917124 0.204036
H72   H     H_    0.582694 0.353123 0.027814 0.230497
O47   O     O_3   0.911714 0.199566 0.869451 -0.522806
C105  C     C_3   0.936644 0.128197 0.866610 0.057736
H73   H     H_    0.892658 0.107578 0.757386 0.164866
H74   H     H_    0.931831 0.091138 0.932698 0.097043
C106  C     C_3   0.034945 0.127140 0.922952 -0.730867
H75   H     H_    0.081039 0.149004 0.030976 0.247159
H76   H     H_    0.055789 0.071123 0.925164 0.190947
H77   H     H_    0.041442 0.159661 0.854536 0.253420
O48   O     O_3   0.920090 0.813323 0.889156 -0.551633
C107  C     C_3   0.944253 0.884771 0.885109 0.057978
H78   H     H_    0.937954 0.922013 0.949064 0.102772
H79   H     H_    0.900970 0.904610 0.775359 0.192118
C108  C     C_3   0.043147 0.886106 0.944012 -0.777840
H80   H     H_    0.051337 0.851576 0.879697 0.260354
H81   H     H_    0.063473 0.941849 0.942528 0.199307
H82   H     H_    0.088490 0.866247 0.053645 0.233677
O49   O     O_3   0.516503 0.191821 0.714455 -0.676862
H83   H     H_    0.470595 0.198185 0.727513 0.392480
O50   O     O_3   0.517916 0.801039 0.702498 -0.703120
H84   H     H_    0.472902 0.777780 0.707165 0.355762
O51   O     O_3   0.015649 0.693940 0.707681 -0.688212
H85   H     H_    0.968403 0.702465 0.717266 0.386326
O52   O     O_3   0.017972 0.304152 0.712101 -0.695937
H86   H     H_    0.974341 0.282594 0.721464 0.358662
O53   O     O_3   0.724618 0.983167 0.508680 -0.725389
H87   H     H_    0.704250 0.003600 0.556995 0.354916
O54   O     O_3   0.224011 0.481320 0.508549 -0.721689
H88   H     H_    0.204668 0.504205 0.556609 0.353000

loop_
_geom_bond_atom_site_label_1
_geom_bond_atom_site_label_2
_ccdc_geom_bond_type
C16   O36   S    
Cu3   O6    S    
C38   O32   S    
C83   C87   A    
C98   H55   S    
Cu1   O9    S    
O32   H34   S    
C99   H59   S    
C92   H29   S    
O34   H36   S    
C14   C18   A    
C53   C55   A    
C41   O15   A    
C90   H23   S    
C61   O37   S    
C101  C102  S    
C39   C66   S    
C55   H1    S    
C103  H68   S    
C62   O38   S    
O30   H32   S    
C49   C57   A    
O17   H11   S    
C32   C72   A    
C60   N2    A    
O36   H38   S    
C1    C30   S    
C15   C19   A    
C98   H56   S    
C2    O6    A    
O50   H84   S    
C18   C86   A    
C76   O48   S    
C9    C61   A    
Cu2   O12   S    
C4    O8    A    
C28   C68   A    
O48   C107  S    
C101  H64   S    
C5    C11   A    
C19   C87   A    
C14   O34   S    
C6    C12   A    
O52   H86   S    
C12   C64   A    
C7    C23   A    
C13   O33   S    
C42   C67   S    
C17   O49   S    
C18   O50   S    
Cu3   O5    S    
O27   C89   S    
C6    C22   A    
C63   O39   S    
C93   H43   S    
C57   O25   S    
C48   C56   A    
C28   O20   S    
C25   C63   A    
C49   C51   A    
C23   C67   A    
C104  H70   S    
C9    C13   A    
C22   C66   A    
C94   H47   S    
C26   C64   A    
C34   C52   A    
C27   C61   A    
C77   O41   S    
O31   H33   S    
C27   O19   S    
C48   N4    A    
C12   C16   A    
C52   C54   A    
C97   H53   S    
C47   N3    A    
Cu4   O8    S    
C50   C52   A    
C106  H75   S    
C53   O21   S    
C5    C83   A    
C30   C86   A    
O23   H17   S    
Cu4   O7    S    
C29   C85   A    
C37   O31   S    
C96   H52   S    
C21   C65   A    
C108  H82   S    
C31   C71   A    
O18   H12   S    
C71   H9    S    
Cu1   O10   S    
O43   C97   S    
C33   C59   A    
Cu1   N1    S    
C92   H30   S    
C34   C60   A    
C106  H76   S    
C10   C62   A    
C11   C15   A    
C89   C90   S    
C105  H74   S    
C30   C70   A    
C70   H8    S    
C41   C68   S    
C29   C69   A    
C45   C47   A    
C57   N1    A    
C98   H57   S    
C46   C48   A    
C90   H24   S    
C6    C84   A    
C28   C62   A    
C36   N4    A    
O44   C99   S    
C26   C66   A    
C95   C96   S    
C76   C80   A    
O51   H85   S    
C90   H25   S    
C79   O43   S    
C101  H63   S    
O46   C103  S    
C72   C74   A    
C3    O7    A    
C102  H65   S    
C71   C73   A    
C99   H58   S    
C96   H50   S    
C44   C46   A    
C99   C100  S    
C108  H81   S    
O40   H42   S    
C54   O22   S    
C59   O53   S    
C74   O46   S    
C107  C108  S    
O42   C95   S    
C51   C53   A    
C26   O18   S    
C95   H49   S    
C60   O54   S    
C37   C43   A    
C56   H2    S    
O45   C101  S    
Cu2   O11   S    
O41   C93   S    
C38   C44   A    
C35   N3    A    
Cu4   O16   S    
C102  H66   S    
C25   O17   S    
C33   O23   S    
Cu2   Cu4   S    
O29   H31   S    
O47   C105  S    
C91   C92   S    
C45   C49   A    
C16   C20   A    
C100  H61   S    
Cu1   O1    S    
O54   H88   S    
C107  H79   S    
C50   C58   A    
C25   C65   A    
C36   O28   S    
C58   N2    A    
C75   O47   S    
C43   C45   A    
O35   H37   S    
Cu2   N2    S    
C1    O1    A    
C64   O40   S    
C69   H7    S    
C89   H22   S    
C23   H5    S    
C91   H27   S    
C39   O9    A    
C40   C65   S    
C2    C29   S    
C10   C14   A    
O22   H16   S    
C15   O35   S    
C106  H77   S    
C17   C85   A    
C24   H6    S    
C31   C87   A    
Cu1   Cu3   S    
C44   O30   S    
Cu2   O4    S    
O53   H87   S    
C40   O14   A    
C103  C104  S    
O33   H35   S    
C8    C82   A    
C42   O16   A    
C47   C55   A    
O20   H14   S    
Cu4   N4    S    
C7    C9    A    
C4    O4    A    
C73   C77   A    
C107  H78   S    
C7    C81   A    
C22   H4    S    
C80   O44   S    
C42   O12   A    
C78   O42   S    
C84   C88   A    
C89   H21   S    
O21   H15   S    
C103  H69   S    
O49   H83   S    
C79   C81   A    
C54   C56   A    
O19   H13   S    
O39   H41   S    
C33   C51   A    
C21   H3    S    
O24   H18   S    
C46   C50   A    
C34   O24   S    
C43   O29   S    
C93   H44   S    
C93   C94   S    
C13   C17   A    
C59   N1    A    
C95   H48   S    
C36   C38   A    
C35   C37   A    
C104  H71   S    
C82   C86   A    
O26   H20   S    
C1    O5    A    
C102  H67   S    
C70   C76   A    
O25   H19   S    
C58   O26   S    
C19   O51   S    
C40   O10   A    
C72   H10   S    
C3    O3    A    
C97   C98   S    
C39   O13   A    
C20   C88   A    
Cu1   O2    S    
C2    O2    A    
C105  H73   S    
C8    C24   A    
C80   C82   A    
C20   O52   S    
C69   C75   A    
O37   H39   S    
Cu3   O13   S    
C105  C106  S    
C3    C32   S    
C94   H46   S    
C4    C31   S    
C27   C67   A    
C24   C68   A    
C100  H60   S    
C78   C84   A    
Cu3   N3    S    
C104  H72   S    
C5    C21   A    
C91   H26   S    
C8    C10   A    
O38   H40   S    
C74   C78   A    
C92   H28   S    
C77   C83   A    
Cu3   O14   S    
C73   O45   S    
C94   H45   S    
Cu2   O3    S    
C41   O11   A    
C100  H62   S    
Cu4   O15   S    
C11   C63   A    
C75   C79   A    
O28   C91   S    
C97   H54   S    
C81   C85   A    
C108  H80   S    
C35   O27   S    
C96   H51   S    
C32   C88   A    
