data_mof_unit_7325.cif
_audit_creation_date              2012-12-11T15:08:39-0500
_audit_creation_method            fapswitch 2.2
_symmetry_space_group_name_H-M    P1
_symmetry_Int_Tables_number       1
_space_group_crystal_system       triclinic
_cell_length_a                    26.104976
_cell_length_b                    27.52203
_cell_length_c                    8.511319
_cell_angle_alpha                 89.745227
_cell_angle_beta                  96.505805
_cell_angle_gamma                 90.214578
_cell_volume                      6075.5876552

loop_
_atom_site_label
_atom_site_type_symbol
_atom_type_description
_atom_site_fract_x
_atom_site_fract_y
_atom_site_fract_z
_atom_type_partial_charge
Ba1   Ba    Ba6+2 0.999910 0.465960 0.844870 1.648214
Ba2   Ba    Ba6+2 0.999910 0.534040 0.344870 1.645982
Ba3   Ba    Ba6+2 0.499910 0.965960 0.844870 1.647003
Ba4   Ba    Ba6+2 0.499910 0.034040 0.344870 1.646407
C1    C     C_3   0.966636 0.215205 0.542971 0.522443
C2    C     C_3   0.983549 0.770324 0.960562 0.518056
C3    C     C_3   0.466311 0.715537 0.539971 0.521219
C4    C     C_3   0.461922 0.291818 0.058487 0.545136
C5    C     C_R   0.886230 0.390508 0.149455 0.070245
C6    C     C_R   0.884881 0.608795 0.649579 0.045405
C7    C     C_R   0.386055 0.890563 0.149409 0.070554
C8    C     C_R   0.384638 0.108699 0.649388 0.057185
C9    C     C_R   0.847821 0.356636 0.096158 -0.125553
C10   C     C_R   0.845242 0.641549 0.597596 -0.093564
C11   C     C_R   0.347316 0.856958 0.096533 -0.124257
C12   C     C_R   0.344646 0.141139 0.597753 -0.108830
C13   C     C_R   0.836754 0.316566 0.191726 0.027453
C14   C     C_R   0.832650 0.680435 0.694832 0.067740
C15   C     C_R   0.336054 0.817008 0.192260 0.028111
C16   C     C_R   0.331587 0.179649 0.695676 0.067589
C17   C     C_R   0.864445 0.311916 0.343417 -0.070421
C18   C     C_R   0.860735 0.685043 0.846318 -0.112794
C19   C     C_R   0.363875 0.812229 0.343783 -0.071374
C20   C     C_R   0.359332 0.183993 0.847618 -0.063267
C21   C     C_R   0.902699 0.345950 0.396434 -0.003585
C22   C     C_R   0.900281 0.652187 0.897560 0.011293
C23   C     C_R   0.402414 0.846049 0.396471 -0.002705
C24   C     C_R   0.399690 0.151846 0.897679 -0.014884
C25   C     C_R   0.797753 0.232062 0.168632 -0.054532
C26   C     C_R   0.789843 0.763232 0.688088 -0.015466
C27   C     C_R   0.297000 0.732621 0.168366 -0.054643
C28   C     C_R   0.288892 0.262410 0.690417 -0.026154
C29   C     C_R   0.256353 0.700970 0.117133 -0.101202
C30   C     C_R   0.247718 0.293631 0.642757 -0.110390
C31   C     C_R   0.757057 0.200391 0.117667 -0.099916
C32   C     C_R   0.748433 0.794257 0.640726 -0.107132
C33   C     C_R   0.209803 0.718059 0.035534 0.049709
C34   C     C_R   0.203023 0.277429 0.548861 0.043715
C35   C     C_R   0.710611 0.217462 0.035413 0.044125
C36   C     C_R   0.703558 0.777745 0.548323 0.042387
C37   C     C_R   0.205092 0.769296 0.007055 0.071853
C38   C     C_R   0.200460 0.227099 0.505636 0.070796
C39   C     C_R   0.706085 0.268645 0.006307 0.071917
C40   C     C_R   0.701098 0.727341 0.506151 0.070399
C41   C     C_R   0.747566 0.299742 0.058395 -0.083821
C42   C     C_R   0.744295 0.697230 0.549925 -0.088071
C43   C     C_R   0.246634 0.800371 0.059436 -0.087470
C44   C     C_R   0.243518 0.196815 0.549434 -0.090947
C45   C     C_3   0.002449 0.278177 0.145125 0.241791
C46   C     C_3   0.980485 0.707699 0.559987 0.253459
C47   C     C_3   0.502242 0.778201 0.144224 0.241202
C48   C     C_3   0.483751 0.208282 0.589725 0.315115
C49   C     C_R   0.793728 0.282144 0.138182 0.039292
C50   C     C_R   0.788617 0.714220 0.642728 0.066610
C51   C     C_R   0.292882 0.782719 0.138770 0.039459
C52   C     C_R   0.287669 0.213525 0.643629 0.055697
C53   C     C_R   0.141092 0.683883 0.829800 -0.148217
C54   C     C_R   0.139036 0.314901 0.334758 -0.144506
C55   C     C_R   0.642436 0.182915 0.828464 -0.135899
C56   C     C_R   0.639132 0.814894 0.334668 -0.143366
C57   C     C_R   0.100194 0.652021 0.784083 0.028360
C58   C     C_R   0.101033 0.348986 0.283229 -0.007716
C59   C     C_R   0.602220 0.150460 0.781289 0.006779
C60   C     C_R   0.600996 0.848891 0.283327 -0.008259
C61   C     C_R   0.117527 0.608438 0.033605 0.015145
C62   C     C_R   0.115023 0.390306 0.536476 0.023894
C63   C     C_R   0.618229 0.107911 0.032707 0.028563
C64   C     C_R   0.614997 0.890233 0.536578 0.024144
C65   C     C_R   0.156389 0.642580 0.083710 -0.149003
C66   C     C_R   0.149381 0.352917 0.593525 -0.152056
C67   C     C_R   0.656622 0.142380 0.083840 -0.138613
C68   C     C_R   0.649460 0.852884 0.593453 -0.152684
C69   C     C_R   0.168171 0.681472 0.982983 -0.001368
C70   C     C_R   0.162301 0.314701 0.492920 0.006192
C71   C     C_R   0.668833 0.180966 0.982672 -0.003529
C72   C     C_R   0.662522 0.814773 0.492703 0.006804
C73   C     C_R   0.088539 0.614756 0.886372 -0.223275
C74   C     C_R   0.089766 0.386639 0.383226 -0.249978
C75   C     C_R   0.590406 0.113294 0.883443 -0.260062
C76   C     C_R   0.589685 0.886514 0.383411 -0.249356
C77   C     C_3   0.965415 0.238917 0.076265 0.432911
C78   C     C_3   0.954337 0.756780 0.529989 0.410757
C79   C     C_3   0.465109 0.739113 0.074650 0.432115
C80   C     C_3   0.460936 0.259000 0.592016 0.423165
C81   C     C_3   0.179553 0.495593 0.065952 0.300793
C82   C     C_3   0.187330 0.492983 0.557653 0.314663
C83   C     C_3   0.679380 0.995243 0.066594 0.299390
C84   C     C_3   0.687954 0.992099 0.557692 0.316361
C85   C     C_3   0.228706 0.526401 0.054513 -0.179550
C86   C     C_3   0.232134 0.455449 0.557571 -0.223720
C87   C     C_3   0.728584 0.025977 0.054825 -0.181351
C88   C     C_3   0.732733 0.954376 0.560818 -0.223513
C89   C     C_3   0.851088 0.530276 0.962490 0.314643
C90   C     C_3   0.852529 0.468993 0.462474 0.314467
C91   C     C_3   0.350816 0.030096 0.961458 0.313505
C92   C     C_3   0.352509 0.968979 0.462500 0.314103
C93   C     C_3   0.802017 0.560414 0.942882 -0.385311
C94   C     C_3   0.804063 0.437709 0.442427 -0.382654
C95   C     C_3   0.301614 0.060039 0.941929 -0.382154
C96   C     C_3   0.303989 0.937769 0.442374 -0.383112
C97   C     C_3   0.985495 0.267728 0.570491 0.443075
C98   C     C_3   0.997964 0.722206 0.045385 0.593117
C99   C     C_3   0.485477 0.767894 0.569255 0.448450
C100  C     C_3   0.474509 0.237871 0.039829 0.368246
C101  C     C_R   0.914749 0.383746 0.296837 -0.277348
C102  C     C_R   0.913308 0.615541 0.796824 -0.270346
C103  C     C_R   0.414650 0.883697 0.296607 -0.277294
C104  C     C_R   0.413141 0.115560 0.796419 -0.279926
H1    H     H_    0.241658 0.520709 0.937544 0.084454
H2    H     H_    0.240900 0.450935 0.435366 0.066612
H3    H     H_    0.741111 0.020614 0.937096 0.084455
H4    H     H_    0.741437 0.948663 0.438995 0.066562
H5    H     H_    0.218418 0.565342 0.058441 0.063021
H6    H     H_    0.218823 0.419623 0.594639 0.082080
H7    H     H_    0.718477 0.064925 0.060368 0.063544
H8    H     H_    0.719409 0.918946 0.600974 0.082150
H9    H     H_    0.865062 0.525920 0.845371 0.013551
H10   H     H_    0.866700 0.473870 0.345688 0.013373
H11   H     H_    0.364605 0.025538 0.844165 0.014487
H12   H     H_    0.366732 0.973816 0.345777 0.013615
H13   H     H_    0.880462 0.549394 0.044871 0.049477
H14   H     H_    0.882104 0.450373 0.545474 0.061486
H15   H     H_    0.380249 0.049428 0.043028 0.055308
H16   H     H_    0.382032 0.950347 0.545641 0.061020
H17   H     H_    0.771975 0.541752 0.861691 0.125238
H18   H     H_    0.773904 0.455676 0.359769 0.123787
H19   H     H_    0.271446 0.040997 0.862263 0.124582
H20   H     H_    0.273887 0.955760 0.359578 0.123803
H21   H     H_    0.809454 0.596542 0.892769 0.049946
H22   H     H_    0.812403 0.401740 0.393912 0.054052
H23   H     H_    0.308725 0.095971 0.890024 0.051284
H24   H     H_    0.312272 0.901774 0.393999 0.053862
H25   H     H_    0.787558 0.565474 0.059517 0.125815
H26   H     H_    0.789307 0.432292 0.558660 0.127410
H27   H     H_    0.287486 0.065514 0.058846 0.125951
H28   H     H_    0.289180 0.932413 0.558557 0.127008
H29   H     H_    0.979992 0.284997 0.451967 -0.217873
H30   H     H_    0.999925 0.694895 0.949919 -0.421532
H31   H     H_    0.480264 0.785546 0.451302 -0.225463
H32   H     H_    0.453730 0.228039 0.923906 -0.102412
H33   H     H_    0.992289 0.195275 0.470068 -0.006385
H34   H     H_    0.015331 0.782999 0.893936 -0.058970
H35   H     H_    0.491949 0.695672 0.466858 -0.007267
H36   H     H_    0.479768 0.314113 0.970008 -0.033350
H37   H     H_    0.177533 0.638483 0.199949 0.075548
H38   H     H_    0.167172 0.354391 0.714245 0.085834
H39   H     H_    0.677200 0.138703 0.201047 0.072820
H40   H     H_    0.667288 0.854301 0.714114 0.085229
H41   H     H_    0.261717 0.662520 0.139927 0.063833
H42   H     H_    0.251451 0.331284 0.677185 0.061110
H43   H     H_    0.762262 0.161972 0.141231 0.063389
H44   H     H_    0.752096 0.831999 0.674115 0.061913
H45   H     H_    0.832722 0.217139 0.230474 0.142107
H46   H     H_    0.823521 0.778170 0.757408 0.115305
H47   H     H_    0.332042 0.717659 0.229635 0.142265
H48   H     H_    0.322389 0.277129 0.761183 0.114369
H49   H     H_    0.826002 0.362158 0.981586 0.084417
H50   H     H_    0.823946 0.636013 0.482443 0.079164
H51   H     H_    0.325404 0.862590 0.982159 0.083887
H52   H     H_    0.323440 0.135627 0.482450 0.077445
H53   H     H_    0.743059 0.338557 0.040331 0.062624
H54   H     H_    0.742545 0.659456 0.515697 0.062338
H55   H     H_    0.242159 0.839204 0.041766 0.062646
H56   H     H_    0.241789 0.159128 0.514198 0.064402
H57   H     H_    0.151519 0.710530 0.745474 0.082190
H58   H     H_    0.149905 0.288384 0.251270 0.068303
H59   H     H_    0.652880 0.209637 0.744394 0.081817
H60   H     H_    0.650043 0.788402 0.251147 0.069268
H61   H     H_    0.854814 0.283306 0.422807 0.059739
H62   H     H_    0.850767 0.712833 0.927027 0.071370
H63   H     H_    0.354138 0.783690 0.423280 0.059642
H64   H     H_    0.348939 0.211408 0.928997 0.046963
H65   H     H_    0.058165 0.589185 0.847758 0.070053
H66   H     H_    0.062318 0.414232 0.339223 0.074096
H67   H     H_    0.560359 0.087469 0.844101 0.072092
H68   H     H_    0.562177 0.914066 0.339495 0.074029
H69   H     H_    0.927221 0.215621 0.478501 0.077243
H70   H     H_    0.948547 0.764639 0.875697 0.039653
H71   H     H_    0.426965 0.716314 0.475103 0.078044
H72   H     H_    0.419478 0.296863 0.037951 0.011674
H73   H     H_    0.943604 0.410299 0.339816 0.061047
H74   H     H_    0.943310 0.589994 0.838223 0.065581
H75   H     H_    0.443716 0.910092 0.339282 0.060778
H76   H     H_    0.443539 0.090352 0.837257 0.061528
H77   H     H_    0.979083 0.309837 0.175305 0.025074
H78   H     H_    0.962237 0.681852 0.470365 0.102906
H79   H     H_    0.478949 0.809915 0.174376 0.026714
H80   H     H_    0.460756 0.186863 0.495999 0.098549
H81   H     H_    0.025414 0.263575 0.252493 -0.025147
H82   H     H_    0.974155 0.694967 0.680169 0.006405
H83   H     H_    0.525025 0.763448 0.251682 -0.024868
H84   H     H_    0.481490 0.190872 0.706753 -0.063867
H85   H     H_    0.943767 0.252038 0.964470 0.125926
H86   H     H_    0.954706 0.767745 0.404672 0.113767
H87   H     H_    0.443866 0.752268 0.962279 0.126657
H88   H     H_    0.462790 0.277020 0.476164 0.150388
H89   H     H_    0.987114 0.205675 0.051922 0.068169
H90   H     H_    0.974710 0.784935 0.606615 0.017938
H91   H     H_    0.486669 0.705706 0.051208 0.066113
H92   H     H_    0.482948 0.281110 0.685528 -0.008968
H93   H     H_    0.153444 0.500762 0.956000 0.080795
H94   H     H_    0.161015 0.485930 0.449917 0.065392
H95   H     H_    0.653296 0.000261 0.956473 0.081855
H96   H     H_    0.661979 0.984496 0.449605 0.062204
O1    O     O_2   0.898940 0.431940 0.867860 -0.449873
O2    O     O_2   0.898940 0.568060 0.367860 -0.458203
O3    O     O_2   0.398940 0.931940 0.867860 -0.450321
O4    O     O_2   0.398940 0.068060 0.367860 -0.451553
O5    O     O_3   0.159194 0.486995 0.688784 -0.652003
O6    O     O_3   0.155587 0.510711 0.196063 -0.662004
O7    O     O_3   0.659313 0.986940 0.688240 -0.651667
O8    O     O_3   0.655357 0.010521 0.196423 -0.662059
O9    O     O_3   0.035977 0.290172 0.033562 -0.626610
O10   O     O_3   0.033492 0.712585 0.547263 -0.653650
O11   O     O_3   0.535991 0.790149 0.033241 -0.626981
O12   O     O_3   0.535079 0.212153 0.556792 -0.648086
O13   O     O_3   0.058810 0.523750 0.066650 -0.471781
O14   O     O_3   0.058810 0.476250 0.566650 -0.468964
O15   O     O_3   0.558810 0.023750 0.066650 -0.471772
O16   O     O_3   0.558810 0.976250 0.566650 -0.468884
O17   O     O_3   0.941140 0.476130 0.123050 -0.495860
O18   O     O_3   0.941140 0.523870 0.623050 -0.492810
O19   O     O_3   0.441140 0.976130 0.123050 -0.495218
O20   O     O_3   0.441140 0.023870 0.623050 -0.493739
O21   O     O_3   0.982430 0.389880 0.635700 -0.477473
O22   O     O_3   0.982430 0.610120 0.135700 -0.471770
O23   O     O_3   0.482430 0.889880 0.635700 -0.477170
O24   O     O_3   0.482430 0.110120 0.135700 -0.470646
O25   O     O_2   0.890794 0.358630 0.709872 -0.475276
O26   O     O_2   0.894615 0.646574 0.222666 -0.478449
O27   O     O_2   0.390860 0.858528 0.710420 -0.475206
O28   O     O_2   0.393082 0.143342 0.215656 -0.472567
O29   O     O_3   0.839300 0.484919 0.023477 -0.638085
O30   O     O_3   0.839844 0.513989 0.522628 -0.637148
O31   O     O_3   0.339268 0.984858 0.023680 -0.638903
O32   O     O_3   0.339842 0.013995 0.522499 -0.637718
O33   O     O_3   0.956113 0.290151 0.678730 -0.576511
O34   O     O_3   0.960968 0.710816 0.148865 -0.594751
O35   O     O_3   0.456128 0.790152 0.677894 -0.576937
O36   O     O_3   0.457706 0.210967 0.166177 -0.574659
O37   O     O_2   0.100770 0.431440 0.821660 -0.452471
O38   O     O_2   0.100770 0.568560 0.321660 -0.443222
O39   O     O_2   0.600770 0.931440 0.821660 -0.452927
O40   O     O_2   0.600770 0.068560 0.321660 -0.441517
O41   O     O_3   0.017130 0.389790 0.053700 -0.461892
O42   O     O_3   0.017130 0.610210 0.553700 -0.483717
O43   O     O_3   0.517130 0.889790 0.053700 -0.462077
O44   O     O_3   0.517130 0.110210 0.553700 -0.480216
O45   O     O_2   0.102221 0.352252 0.955151 -0.483814
O46   O     O_2   0.099846 0.651547 0.455545 -0.495080
O47   O     O_2   0.602256 0.852283 0.955325 -0.483208
O48   O     O_2   0.599044 0.152194 0.448790 -0.482523
P1    P     P_3+3 0.893960 0.447890 0.040050 0.985845
P2    P     P_3+3 0.893960 0.552110 0.540050 0.980313
P3    P     P_3+3 0.393960 0.947890 0.040050 0.985874
P4    P     P_3+3 0.393960 0.052110 0.540050 0.983182
P5    P     P_3+3 0.105800 0.447360 0.649510 0.973707
P6    P     P_3+3 0.105800 0.552640 0.149510 0.975504
P7    P     P_3+3 0.605800 0.947360 0.649510 0.974215
P8    P     P_3+3 0.605800 0.052640 0.149510 0.980514
P9    P     P_3+3 0.065466 0.345775 0.083607 0.954106
P10   P     P_3+3 0.063410 0.656222 0.585831 0.930847
P11   P     P_3+3 0.565452 0.845745 0.083617 0.954413
P12   P     P_3+3 0.564548 0.155337 0.584777 0.938644
P13   P     P_3+3 0.933526 0.653918 0.100563 0.988479
P14   P     P_3+3 0.932907 0.346273 0.603257 0.974423
P15   P     P_3+3 0.433357 0.154056 0.100528 0.960976
P16   P     P_3+3 0.432835 0.846318 0.603153 0.975273
C105  C     C_3   0.043485 0.272794 0.628601 -0.185096
C106  C     C_3   0.066195 0.232541 0.739342 -0.322562
H97   H     H_    0.043283 0.227248 0.839514 0.200364
H98   H     H_    0.066658 0.197762 0.674779 0.124164
H99   H     H_    0.106432 0.242076 0.785870 0.114170
H100  H     H_    0.065078 0.273900 0.524420 0.029438
H101  H     H_    0.050407 0.308334 0.688801 0.157348
C107  C     C_3   0.052002 0.722405 0.138299 -0.176610
C108  C     C_3   0.065422 0.767109 0.240946 -0.340251
H102  H     H_    0.070717 0.799403 0.165884 0.136608
H103  H     H_    0.034869 0.774745 0.317184 0.181043
H104  H     H_    0.102169 0.760645 0.317327 0.121941
H105  H     H_    0.055789 0.689372 0.213309 0.161427
H106  H     H_    0.080668 0.719200 0.053920 0.045308
C109  C     C_3   0.543444 0.772487 0.628097 -0.184501
C110  C     C_3   0.565552 0.732100 0.739285 -0.322701
H107  H     H_    0.542337 0.727054 0.838863 0.199620
H108  H     H_    0.565826 0.697280 0.674850 0.124984
H109  H     H_    0.605799 0.741320 0.786623 0.114164
H110  H     H_    0.565218 0.773318 0.524279 0.029710
H111  H     H_    0.550608 0.808008 0.688252 0.156633
C111  C     C_3   0.532082 0.228768 0.029628 -0.218324
C112  C     C_3   0.567232 0.246461 0.174134 -0.288175
H112  H     H_    0.570517 0.286664 0.172897 0.147185
H113  H     H_    0.552189 0.234510 0.284259 0.217066
H114  H     H_    0.606386 0.231176 0.173435 0.097544
H115  H     H_    0.537931 0.189163 0.016748 0.087226
H116  H     H_    0.543082 0.246570 0.921250 0.038450
C113  C     C_3   0.273757 0.516845 0.183747 -0.209397
C114  C     C_3   0.320366 0.548286 0.158096 -0.402217
H117  H     H_    0.333830 0.540008 0.041909 0.141190
H118  H     H_    0.310397 0.587387 0.162163 0.137006
H119  H     H_    0.352234 0.540718 0.252813 0.139590
H120  H     H_    0.262103 0.525230 0.301089 0.117668
H121  H     H_    0.286012 0.478365 0.185045 0.120809
C115  C     C_3   0.284264 0.467562 0.653195 -0.213372
C116  C     C_3   0.319099 0.423052 0.675482 -0.399283
H122  H     H_    0.322898 0.405643 0.559856 0.151471
H123  H     H_    0.358004 0.434210 0.729992 0.137803
H124  H     H_    0.303321 0.396432 0.755560 0.125583
H125  H     H_    0.305120 0.495212 0.589043 0.116453
H126  H     H_    0.278781 0.481846 0.770275 0.127081
C117  C     C_3   0.774018 0.015863 0.182384 -0.210645
C118  C     C_3   0.820162 0.048169 0.158829 -0.399759
H127  H     H_    0.833233 0.041453 0.041092 0.142521
H128  H     H_    0.809855 0.087039 0.168041 0.135466
H129  H     H_    0.852424 0.039911 0.251567 0.140141
H130  H     H_    0.762584 0.022836 0.300885 0.117287
H131  H     H_    0.786759 0.977596 0.179796 0.122932
C119  C     C_3   0.784919 0.967019 0.655287 -0.218872
C120  C     C_3   0.819809 0.922602 0.680243 -0.388797
H132  H     H_    0.823655 0.904566 0.565662 0.151433
H133  H     H_    0.858693 0.934031 0.734137 0.144870
H134  H     H_    0.804070 0.896405 0.761747 0.129265
H135  H     H_    0.805718 0.994184 0.589052 0.117078
H136  H     H_    0.779528 0.982088 0.771481 0.127712
F1    F     F_    0.964099 0.190926 0.684620 -0.720892
F2    F     F_    0.972514 0.805735 0.066546 -0.705088
F3    F     F_    0.463426 0.690905 0.680813 -0.720728
F4    F     F_    0.478922 0.308313 0.208580 -0.718970
F5    F     F_    0.930645 0.227576 0.181521 -0.776818
F6    F     F_    0.903694 0.753908 0.561687 -0.734329
F7    F     F_    0.429891 0.728102 0.178825 -0.776213
F8    F     F_    0.410056 0.256328 0.621181 -0.750845
C121  C     C_3   0.156490 0.793892 0.931025 -0.219197
C122  C     C_3   0.164277 0.816241 0.770542 -0.401099
H137  H     H_    0.192175 0.846877 0.785185 0.129155
H138  H     H_    0.178839 0.788764 0.691668 0.130634
H139  H     H_    0.126952 0.830420 0.713196 0.134901
H140  H     H_    0.122963 0.769390 0.915239 0.108241
H141  H     H_    0.145678 0.823189 0.010372 0.109113
C123  C     C_3   0.153173 0.203881 0.414394 -0.220356
C124  C     C_3   0.137627 0.155595 0.486198 -0.417160
H142  H     H_    0.162091 0.125521 0.451035 0.131219
H143  H     H_    0.141280 0.157663 0.617244 0.135068
H144  H     H_    0.097011 0.146768 0.441774 0.135502
H145  H     H_    0.119269 0.227700 0.410809 0.108826
H146  H     H_    0.161012 0.197497 0.290560 0.109353
C125  C     C_3   0.657499 0.293058 0.930602 -0.230978
C126  C     C_3   0.665013 0.315441 0.769987 -0.397462
H147  H     H_    0.692558 0.346360 0.784471 0.128843
H148  H     H_    0.679892 0.288100 0.691274 0.133298
H149  H     H_    0.627517 0.329224 0.712636 0.138379
H150  H     H_    0.624583 0.267982 0.915436 0.116912
H151  H     H_    0.646343 0.322172 0.010104 0.111019
C127  C     C_3   0.653795 0.703834 0.415988 -0.219728
C128  C     C_3   0.638277 0.655893 0.490049 -0.418073
H152  H     H_    0.662818 0.625646 0.456608 0.131391
H153  H     H_    0.641831 0.658593 0.620958 0.134858
H154  H     H_    0.597700 0.646860 0.445775 0.135330
H155  H     H_    0.619892 0.727677 0.411199 0.108518
H156  H     H_    0.661631 0.696898 0.292463 0.110124
C129  C     C_3   0.189575 0.440481 0.089348 -0.140509
C130  C     C_3   0.220265 0.416210 0.969734 -0.442606
H157  H     H_    0.202075 0.422719 0.849309 0.162855
H158  H     H_    0.260526 0.429512 0.980487 0.118913
H159  H     H_    0.221176 0.376371 0.991054 0.125243
H160  H     H_    0.209618 0.432957 0.207177 0.071050
H161  H     H_    0.151854 0.422034 0.088128 0.132445
C131  C     C_3   0.205987 0.546641 0.547355 -0.168990
C132  C     C_3   0.177271 0.581663 0.642896 -0.289734
H162  H     H_    0.135258 0.575357 0.617410 0.154724
H163  H     H_    0.188666 0.576310 0.771100 0.078390
H164  H     H_    0.186915 0.619573 0.611893 0.105044
H165  H     H_    0.247269 0.551719 0.588675 0.067901
H166  H     H_    0.200478 0.559207 0.422865 0.104530
C133  C     C_3   0.689405 0.940199 0.091087 -0.141799
C134  C     C_3   0.719467 0.915615 0.970625 -0.438155
H167  H     H_    0.700745 0.922043 0.850894 0.161579
H168  H     H_    0.759710 0.928838 0.979148 0.120501
H169  H     H_    0.720369 0.875809 0.992592 0.127913
H170  H     H_    0.709945 0.933014 0.208506 0.072055
H171  H     H_    0.651685 0.921835 0.091557 0.131154
C135  C     C_3   0.706775 0.045654 0.544772 -0.171422
C136  C     C_3   0.678270 0.081249 0.638699 -0.291521
H172  H     H_    0.636257 0.074930 0.613742 0.154830
H173  H     H_    0.689821 0.076496 0.767139 0.082555
H174  H     H_    0.687829 0.118984 0.605391 0.102022
H175  H     H_    0.748084 0.050795 0.585458 0.068720
H176  H     H_    0.701191 0.057745 0.419857 0.105534

loop_
_geom_bond_atom_site_label_1
_geom_bond_atom_site_label_2
_ccdc_geom_bond_type
C83   C133  S    
Ba3   O20   S    
C8    P4    S    
C83   C87   S    
C65   H37   S    
C83   O8    S    
C112  H112  S    
C62   P5    S    
C85   C113  S    
C121  C122  S    
O7    P7    S    
O20   P4    S    
C123  H146  S    
C119  H135  S    
C10   H50   S    
C110  H107  S    
C89   H13   S    
C78   H90   S    
C91   C95   S    
C15   C51   S    
C45   O9    S    
C79   F7    S    
C48   C80   S    
C5    C9    A    
C7    C11   A    
C8    C12   A    
C66   C70   A    
C113  H120  S    
Ba1   O21   S    
C82   H94   S    
C63   P8    S    
C134  H169  S    
C132  H164  S    
Ba4   P8    S    
O27   P16   D    
O38   P6    D    
Ba2   P2    S    
C131  C132  S    
C40   C42   A    
Ba4   O4    S    
O18   P2    S    
C1    C97   S    
C61   C73   A    
C104  H76   S    
C21   C101  A    
O16   P7    S    
C63   C75   A    
C123  C124  S    
C82   C86   S    
C8    C104  A    
C97   H29   S    
C90   O30   S    
C91   H11   S    
C56   C72   A    
Ba2   O17   S    
C13   C17   A    
C36   C72   S    
C28   C30   A    
C115  H126  S    
C4    H72   S    
O5    P5    S    
C128  H152  S    
C64   C68   A    
Ba4   O15   S    
C4    C100  S    
C18   H62   S    
C133  H171  S    
C88   C119  S    
C106  H98   S    
C114  H117  S    
C136  H172  S    
C47   C79   S    
C55   H59   S    
Ba2   O22   S    
C100  O36   S    
C1    F1    S    
C109  H110  S    
O14   P5    S    
C110  H109  S    
C5    P1    S    
C133  C134  S    
C96   H24   S    
C53   C57   A    
C44   H56   S    
C25   C31   A    
C55   C59   A    
C80   F8    S    
C26   C32   A    
C56   C60   A    
Ba3   O3    S    
C29   H41   S    
C131  H166  S    
C122  H139  S    
C62   C66   A    
C107  H106  S    
C24   C104  A    
Ba3   P7    S    
C126  H147  S    
O35   P16   S    
C86   H6    S    
C79   H87   S    
C77   H85   S    
C26   H46   S    
C19   H63   S    
Ba2   O14   S    
Ba1   O41   S    
O43   P11   S    
O47   P11   D    
O44   P12   S    
C82   C131  S    
C129  H160  S    
C120  H133  S    
C12   H52   S    
O40   P8    D    
C82   O5    S    
C93   H25   S    
C16   C52   S    
O41   P9    S    
C59   P12   S    
C3    H35   S    
C60   P11   S    
C133  H170  S    
C26   C50   A    
C105  H100  S    
C111  H116  S    
C112  H113  S    
C81   C129  S    
C130  H157  S    
C121  H141  S    
C5    C101  A    
C118  H127  S    
C53   C69   A    
C2    F2    S    
C23   P16   S    
O46   P10   D    
C41   H53   S    
C125  H150  S    
C28   H48   S    
C57   C73   A    
Ba3   O16   S    
C116  H123  S    
Ba1   O14   S    
Ba2   O2    S    
C35   C71   S    
O30   P2    S    
C2    C98   S    
C41   C49   A    
C3    C99   S    
C108  H102  S    
C89   H9    S    
C58   P9    S    
C9    H49   S    
C134  H168  S    
C124  H143  S    
O17   P1    S    
C97   O33   S    
C6    C10   A    
C122  H137  S    
C32   H44   S    
C97   C105  S    
C126  H149  S    
O9    P9    S    
Ba2   O38   S    
C84   C88   S    
C37   C43   A    
C38   C44   A    
C84   H96   S    
C39   C41   A    
C99   O35   S    
C128  H153  S    
C3    F3    S    
C6    C102  A    
C123  H145  S    
Ba4   P4    S    
Ba3   Ba4   S    
C46   H78   S    
C89   C93   S    
C47   H83   S    
C54   C70   A    
C34   C70   S    
C91   H15   S    
C17   C21   A    
C84   C135  S    
C96   H20   S    
C58   C74   A    
C20   C24   A    
Ba4   O19   S    
C118  H129  S    
C119  H136  S    
C110  H108  S    
C136  H174  S    
O31   P3    S    
C114  H118  S    
C37   C121  S    
C90   H10   S    
C135  H175  S    
C80   H88   S    
C17   H61   S    
C92   C96   S    
C33   C37   A    
C20   H64   S    
C39   C125  S    
O48   P12   D    
O22   P13   S    
C86   C115  S    
C36   C40   A    
C45   H77   S    
C107  C108  S    
C127  C128  S    
C108  H104  S    
C109  C110  S    
O15   P8    S    
C48   H80   S    
C101  H73   S    
Ba4   O40   S    
C96   H28   S    
C132  H163  S    
C54   C58   A    
C135  C136  S    
C55   C71   A    
C67   H39   S    
C22   C102  A    
C21   P14   S    
C30   H42   S    
O1    P1    D    
C11   C15   A    
C24   P15   S    
Ba3   O43   S    
C43   C51   A    
C77   H89   S    
C53   H57   S    
C90   C94   S    
C87   H7    S    
C48   O12   S    
C111  C112  S    
C45   C77   S    
C78   F6    S    
Ba4   O16   S    
C7    P3    S    
C65   C69   A    
C2    H34   S    
O42   P10   S    
C81   H93   S    
C43   H55   S    
C14   C18   A    
C105  C106  S    
C2    H70   S    
C60   C76   A    
C106  H99   S    
C31   H43   S    
C83   H95   S    
Ba1   P1    S    
Ba1   P5    S    
C115  H125  S    
C62   C74   A    
O11   P11   S    
O12   P12   S    
C93   H17   S    
Ba3   O23   S    
C125  C126  S    
C81   C85   S    
C88   H4    S    
C95   H19   S    
C89   O29   S    
O8    P8    S    
C109  H111  S    
O13   P6    S    
Ba1   O18   S    
C114  H119  S    
C31   C35   A    
C11   H51   S    
O24   P15   S    
C85   H5    S    
C23   C103  A    
C94   H22   S    
C126  H148  S    
C113  H121  S    
C95   H27   S    
O39   P7    D    
O32   P4    S    
C87   C117  S    
C13   C49   S    
C46   C78   S    
C47   O11   S    
C73   H65   S    
C6    P2    S    
C40   C127  S    
O10   P10   S    
C64   P7    S    
C27   H47   S    
C9    C13   A    
O6    P6    S    
O28   P15   D    
C61   P6    S    
Ba2   O42   S    
C77   F5    S    
C130  H158  S    
C121  H140  S    
C61   C65   A    
C117  H131  S    
C118  H128  S    
C63   C67   A    
Ba4   O24   S    
C46   H82   S    
C29   C33   A    
C78   H86   S    
C47   H79   S    
C120  H132  S    
C100  H32   S    
C94   H18   S    
Ba3   O15   S    
C116  H122  S    
C18   C22   A    
C106  H97   S    
O33   P14   S    
Ba1   O13   S    
C27   C51   A    
C28   C52   A    
C130  H159  S    
C64   C76   A    
C117  C118  S    
C113  C114  S    
C10   C14   A    
C15   C19   A    
C68   C72   A    
C81   O6    S    
C59   C75   A    
C124  H142  S    
C80   H92   S    
C56   H60   S    
O37   P5    D    
C57   P10   S    
C34   C38   A    
C98   H30   S    
C131  H165  S    
C122  H138  S    
O23   P16   S    
C45   H81   S    
C107  H105  S    
C46   O10   S    
C127  H155  S    
C85   H1    S    
Ba1   Ba2   S    
C48   H84   S    
C87   H3    S    
O3    P3    D    
Ba4   O44   S    
C102  H74   S    
C16   C20   A    
C84   O7    S    
Ba2   O13   S    
C27   C29   A    
C19   C23   A    
Ba1   O1    S    
C12   C16   A    
C22   P13   S    
C129  H161  S    
C120  H134  S    
C117  H130  S    
O36   P15   S    
C42   C50   A    
C91   O31   S    
C54   H58   S    
C99   C109  S    
C100  C111  S    
C98   O34   S    
C105  H101  S    
C111  H115  S    
C75   H67   S    
C32   C36   A    
C112  H114  S    
C76   H68   S    
C35   C39   A    
C68   H40   S    
C103  H75   S    
C136  H173  S    
C119  C120  S    
C99   H31   S    
C88   H8    S    
C1    H33   S    
C135  H176  S    
C116  H124  S    
C92   O32   S    
C3    H71   S    
C4    H36   S    
Ba3   O39   S    
C125  H151  S    
C1    H69   S    
Ba1   O37   S    
C66   H38   S    
C92   H16   S    
C115  C116  S    
Ba2   P6    S    
C108  H103  S    
C7    C103  A    
C86   H2    S    
C79   H91   S    
O2    P2    D    
C90   H14   S    
O21   P14   S    
C134  H167  S    
C25   H45   S    
C132  H162  S    
C124  H144  S    
C44   C52   A    
C33   C69   S    
C30   C34   A    
C92   H12   S    
O34   P13   S    
O25   P14   D    
O29   P1    S    
C129  C130  S    
C94   H26   S    
C95   H23   S    
C98   C107  S    
C93   H21   S    
C67   C71   A    
C25   C49   A    
C127  H156  S    
Ba3   P3    S    
C4    F4    S    
C14   C50   S    
O19   P3    S    
C128  H154  S    
C38   C123  S    
C42   H54   S    
C74   H66   S    
O4    P4    D    
O45   P9    D    
O26   P13   D    
