data_mof_unit_66141.cif
_audit_creation_date              2012-12-10T21:02:17-0500
_audit_creation_method            fapswitch 2.2
_symmetry_space_group_name_H-M    P1
_symmetry_Int_Tables_number       1
_space_group_crystal_system       triclinic
_cell_length_a                    15.081069
_cell_length_b                    15.884772
_cell_length_c                    16.705295
_cell_angle_alpha                 90.167526
_cell_angle_beta                  84.068599
_cell_angle_gamma                 90.171467
_cell_volume                      3980.45301646

loop_
_atom_site_label
_atom_site_type_symbol
_atom_type_description
_atom_site_fract_x
_atom_site_fract_y
_atom_site_fract_z
_atom_type_partial_charge
C1    C     C_R   0.500129 0.660965 0.500036 0.917533
C2    C     C_1   0.500209 0.823633 0.500680 -0.022713
C3    C     C_1   0.500308 0.749025 0.500384 -0.159079
C4    C     C_1   0.499562 0.251029 0.500364 -0.150533
C5    C     C_R   0.040261 0.529229 0.566445 -0.222332
C6    C     C_R   0.959489 0.468124 0.434532 -0.222765
C7    C     C_R   0.095026 0.498515 0.499435 0.014150
C8    C     C_R   0.904798 0.499263 0.501335 0.013992
C9    C     C_R   0.053399 0.467195 0.433267 0.036607
C10   C     C_R   0.946293 0.529461 0.567970 0.034509
C11   C     C_1   0.192948 0.499375 0.499803 0.061296
C12   C     C_R   0.499857 0.339051 0.500101 0.929786
C13   C     C_1   0.806991 0.499640 0.500491 0.058335
C14   C     C_R   0.486899 0.496419 0.653498 0.902100
C15   C     C_R   0.513149 0.501078 0.346276 0.914328
C16   C     C_R   0.476135 0.472055 0.737359 -0.137043
C17   C     C_R   0.523501 0.496731 0.259249 -0.126875
C18   C     C_R   0.527564 0.405722 0.763935 0.469459
C19   C     C_R   0.463008 0.538277 0.214524 0.466868
C20   C     C_R   0.511839 0.378975 0.843516 -0.199969
C21   C     C_R   0.470450 0.526891 0.131329 -0.236388
C22   C     C_R   0.450699 0.422102 0.897124 0.002911
C23   C     C_R   0.462962 0.043602 0.438405 -0.052375
C24   C     C_R   0.534034 0.471317 0.094392 0.039171
C25   C     C_R   0.397219 0.485375 0.869713 -0.179693
C26   C     C_R   0.596186 0.432986 0.138523 -0.170692
C27   C     C_R   0.408986 0.509447 0.789550 -0.262625
C28   C     C_R   0.591260 0.446070 0.220957 -0.269695
C29   C     C_2   0.458520 0.417467 0.983713 0.343750
C30   C     C_2   0.533022 0.451501 0.008932 0.356112
C31   C     C_3   0.675293 0.385882 0.725456 0.127593
C32   C     C_3   0.741607 0.341594 0.664798 -0.774053
C33   C     C_3   0.314961 0.565524 0.247791 0.131815
C34   C     C_R   0.535949 0.956503 0.563293 -0.052437
C35   C     C_3   0.250790 0.620680 0.300872 -0.769887
C36   C     C_3   0.645472 0.544691 0.964530 0.090381
C37   C     C_3   0.708067 0.565820 0.889958 -0.797583
C38   C     C_3   0.330557 0.337238 0.011686 0.092691
C39   C     C_3   0.264257 0.308566 0.081116 -0.782126
C40   C     C_1   0.425955 0.909160 0.374694 0.194247
C41   C     C_1   0.572393 0.091000 0.627289 0.198093
C42   C     C_1   0.425674 0.089155 0.374501 0.186744
C43   C     C_1   0.573301 0.910961 0.627153 0.185400
C44   C     C_1   0.893570 0.560633 0.638866 0.140884
C45   C     C_R   0.499227 0.087215 0.500803 0.029404
C46   C     C_1   0.105647 0.432933 0.363530 0.135761
C47   C     C_R   0.499810 0.912880 0.500822 0.030586
C48   C     C_R   0.535594 0.044492 0.563317 -0.055693
C49   C     C_R   0.463192 0.955625 0.438449 -0.054276
C50   C     C_1   0.499346 0.176440 0.500580 -0.023110
H1    H     H_    0.637866 0.413776 0.255327 0.173262
H2    H     H_    0.685637 0.455091 0.718603 0.156940
H3    H     H_    0.727517 0.357087 0.602631 0.267914
H4    H     H_    0.810459 0.362215 0.673258 0.200149
H5    H     H_    0.736519 0.272371 0.673257 0.258874
H6    H     H_    0.307318 0.499472 0.269896 0.165878
H7    H     H_    0.296293 0.568896 0.185186 0.142452
H8    H     H_    0.255734 0.686871 0.279602 0.258610
H9    H     H_    0.181359 0.598145 0.298483 0.202965
H10   H     H_    0.267186 0.618268 0.364111 0.263535
H11   H     H_    0.684453 0.545034 0.017527 0.161513
H12   H     H_    0.368180 0.559322 0.768877 0.165132
H13   H     H_    0.593102 0.594370 0.972006 0.141975
H14   H     H_    0.670352 0.567154 0.836262 0.249906
H15   H     H_    0.738966 0.628531 0.897320 0.218826
H16   H     H_    0.761538 0.517789 0.880577 0.254276
H17   H     H_    0.370821 0.281662 0.989173 0.144907
H18   H     H_    0.292336 0.361585 0.963209 0.155137
H19   H     H_    0.222322 0.362418 0.104462 0.256301
H20   H     H_    0.220495 0.258510 0.060177 0.206873
H21   H     H_    0.300353 0.283190 0.130448 0.265210
H22   H     H_    0.350386 0.519418 0.911375 0.156505
H23   H     H_    0.646251 0.391024 0.109593 0.162948
H24   H     H_    0.425926 0.559946 0.095410 0.142929
H25   H     H_    0.551825 0.328964 0.865105 0.150930
H26   H     H_    0.070882 0.552981 0.617983 0.147845
H27   H     H_    0.928816 0.444155 0.383105 0.147344
H28   H     H_    0.689537 0.366746 0.786897 0.152636
N1    N     N_1   0.729450 0.499980 0.500020 -0.092316
N2    N     N_1   0.270550 0.500020 0.499980 -0.091347
N3    N     N_1   0.396297 0.872065 0.323954 -0.180748
N4    N     N_1   0.601645 0.128135 0.678219 -0.181681
N5    N     N_1   0.395984 0.125495 0.323612 -0.194585
N6    N     N_1   0.603052 0.874633 0.678014 -0.194969
N7    N     N_1   0.851208 0.585502 0.695696 -0.215039
N8    N     N_1   0.147383 0.405283 0.307616 -0.221165
O1    O     O_R   0.426350 0.621980 0.500000 -0.606880
O2    O     O_3   0.402730 0.595313 0.251785 -0.614106
O3    O     O_3   0.608260 0.464184 0.954405 -0.649178
O4    O     O_3   0.385037 0.401214 0.039388 -0.640935
O5    O     O_R   0.573650 0.378020 0.500000 -0.603294
O6    O     O_R   0.573690 0.621980 0.499960 -0.607029
O7    O     O_R   0.426310 0.378020 0.500040 -0.611349
O8    O     O_R   0.417630 0.500010 0.615820 -0.617037
O9    O     O_R   0.582370 0.499990 0.384180 -0.625730
O10   O     O_R   0.564960 0.500010 0.615780 -0.590696
O11   O     O_R   0.435040 0.499990 0.384220 -0.589350
O12   O     O_3   0.587885 0.362940 0.710616 -0.610301
Zn1   Zn    Zn3+2 0.401630 0.500000 0.500020 0.992924
Zn2   Zn    Zn3+2 0.598370 0.500000 0.499980 0.990474

loop_
_geom_bond_atom_site_label_1
_geom_bond_atom_site_label_2
_ccdc_geom_bond_type
C36   O3    S    
C1    O1    A    
C13   N1    T    
C8    C13   S    
C23   C45   A    
C22   C29   S    
C12   O5    A    
C31   H2    S    
C6    C9    A    
C47   C49   A    
C7    C11   S    
C23   C42   S    
C35   H8    S    
C45   C50   S    
C36   C37   S    
C19   C21   A    
C33   O2    S    
C24   C26   A    
C15   O9    A    
C38   C39   S    
C28   H1    S    
C23   C49   A    
C40   C49   S    
C26   H23   S    
C35   H9    S    
C31   O12   S    
C14   O10   A    
C17   C19   A    
C39   H20   S    
C22   C25   A    
C37   H15   S    
O5    Zn2   S    
C4    C12   S    
C36   H13   S    
O7    Zn1   S    
C32   H5    S    
C33   H6    S    
C9    C46   S    
C43   N6    T    
C15   O11   A    
C30   O3    S    
C32   H4    S    
C29   O4    S    
O11   Zn1   S    
O1    Zn1   S    
C34   C43   S    
C10   C44   S    
N1    Zn2   S    
C19   O2    S    
C5    C7    A    
O9    Zn2   S    
C6    H27   S    
C6    C8    A    
C21   H24   S    
C20   H25   S    
C4    C50   T    
C35   H10   S    
C1    C3    S    
C29   C30   D    
C27   H12   S    
C31   C32   S    
C37   H16   S    
C39   H19   S    
C25   H22   S    
C16   C18   A    
C20   C22   A    
C1    O6    A    
N2    Zn1   S    
C14   C16   S    
C12   O7    A    
C34   C48   A    
C44   N7    T    
C32   H3    S    
C37   H14   S    
O6    Zn2   S    
C31   H28   S    
C45   C48   A    
C15   C17   S    
C33   H7    S    
C17   C28   A    
C40   N3    T    
C42   N5    T    
C38   H18   S    
C2    C47   S    
C25   C27   A    
C38   O4    S    
C26   C28   A    
C5    H26   S    
C2    C3    T    
C5    C10   A    
O8    Zn1   S    
C16   C27   A    
C41   N4    T    
O10   Zn2   S    
C33   C35   S    
C41   C48   S    
C18   C20   A    
C24   C30   S    
C11   N2    T    
C7    C9    A    
C38   H17   S    
C8    C10   A    
C21   C24   A    
C39   H21   S    
C34   C47   A    
C18   O12   S    
C14   O8    A    
C36   H11   S    
C46   N8    T    
