data_mof_unit_49515.cif
_audit_creation_date              2012-12-10T17:33:53-0500
_audit_creation_method            fapswitch 2.2
_symmetry_space_group_name_H-M    P1
_symmetry_Int_Tables_number       1
_space_group_crystal_system       triclinic
_cell_length_a                    10.698103
_cell_length_b                    12.053504
_cell_length_c                    12.885157
_cell_angle_alpha                 93.708785
_cell_angle_beta                  92.768852
_cell_angle_gamma                 88.202669
_cell_volume                      1655.4559432

loop_
_atom_site_label
_atom_site_type_symbol
_atom_type_description
_atom_site_fract_x
_atom_site_fract_y
_atom_site_fract_z
_atom_type_partial_charge
C1    C     C_R   0.498975 0.522149 0.700625 0.861801
C2    C     C_3   0.120520 0.499262 0.506116 0.074117
C3    C     C_3   0.059036 0.487573 0.393768 0.001882
C4    C     C_3   0.075054 0.617367 0.551016 -0.581206
C5    C     C_R   0.518041 0.466049 0.190944 -0.061562
C6    C     C_R   0.502216 0.536807 0.813235 -0.137510
C7    C     C_R   0.414950 0.622728 0.968359 -0.192646
C8    C     C_R   0.425502 0.620225 0.862186 0.070832
C9    C     C_R   0.576381 0.462286 0.873165 0.006304
C10   C     C_R   0.566243 0.466481 0.981255 0.128012
C11   C     C_R   0.479942 0.544683 0.026636 0.057121
C12   C     C_R   0.741451 0.503539 0.510002 0.866631
C13   C     C_R   0.457032 0.543743 0.130575 -0.266209
C14   C     C_R   0.605279 0.389713 0.149688 -0.299716
C15   C     C_R   0.633762 0.391185 0.045679 0.233257
C16   C     C_R   0.433138 0.943611 0.373809 -0.296757
C17   C     C_R   0.431242 0.830754 0.389498 0.000712
C18   C     C_R   0.531998 0.861802 0.556109 -0.023086
C19   C     C_R   0.535148 0.977678 0.544072 0.022416
C20   C     C_R   0.475246 0.019651 0.454757 0.046673
C21   C     C_R   0.458373 0.136533 0.449140 0.285818
C22   C     C_R   0.596128 0.166434 0.598239 -0.085149
C23   C     C_R   0.504576 0.478125 0.300472 0.888729
C24   C     C_R   0.598374 0.051976 0.616293 0.000923
C25   C     C_R   0.257664 0.498923 0.501259 0.925921
C26   C     C_3   0.933215 0.415186 0.585069 -0.549848
C27   C     C_3   0.077990 0.406790 0.578409 0.261777
C28   C     C_3   0.917531 0.476994 0.402585 -0.511505
C29   C     C_3   0.931466 0.623901 0.565847 0.434040
C30   C     C_3   0.877732 0.508458 0.515942 0.108185
H1    H     H_    0.892128 0.333407 0.560627 0.185207
H2    H     H_    0.100868 0.682788 0.499671 0.195200
H3    H     H_    0.867072 0.526669 0.343671 0.168452
H4    H     H_    0.072169 0.566476 0.355718 0.157701
H5    H     H_    0.391200 0.604113 0.165154 0.143561
H6    H     H_    0.657164 0.333881 0.199820 0.156417
H7    H     H_    0.351812 0.683916 0.005039 0.150830
H8    H     H_    0.905801 0.430093 0.666948 0.185016
H9    H     H_    0.650849 0.223139 0.648488 0.134039
H10   H     H_    0.403829 0.969879 0.297771 0.171794
H11   H     H_    0.396021 0.773484 0.327718 0.132153
H12   H     H_    0.574434 0.826547 0.624606 0.128424
H13   H     H_    0.888698 0.390233 0.381174 0.175232
H14   H     H_    0.129552 0.639852 0.624358 0.158800
N1    N     N_R   0.523380 0.207800 0.519350 -0.144158
N2    N     N_R   0.476620 0.792180 0.480650 -0.102402
O1    O     O_R   0.506240 0.421700 0.658830 -0.623078
O2    O     O_R   0.491240 0.609310 0.646410 -0.637885
O3    O     O_R   0.692710 0.406190 0.506230 -0.641319
O4    O     O_R   0.677700 0.593810 0.493810 -0.591192
O5    O     O_R   0.508760 0.390690 0.353590 -0.641780
O6    O     O_R   0.493760 0.578300 0.341170 -0.633841
O7    O     O_R   0.322300 0.406190 0.506190 -0.584124
O8    O     O_R   0.307290 0.593810 0.493770 -0.651410
Zn1   Zn    Zn3+2 0.510020 0.374730 0.508290 0.934661
Zn2   Zn    Zn3+2 0.489980 0.625270 0.491710 0.923482
N3    N     N_2   0.733484 0.320389 0.009144 -0.289479
H15   H     H_    0.739761 0.244587 0.042242 0.217501
C31   C     C_3   0.853107 0.373698 0.012693 -0.785184
H16   H     H_    0.924064 0.315700 0.977220 0.235644
H17   H     H_    0.884237 0.396375 0.094711 0.229299
H18   H     H_    0.846599 0.449741 0.968098 0.254535
N4    N     N_3   0.350490 0.698990 0.805964 -0.466843
H19   H     H_    0.409323 0.751236 0.770469 0.207565
H20   H     H_    0.294043 0.656099 0.749490 0.188375
N5    N     N_3   0.653467 0.376027 0.824943 -0.431896
H21   H     H_    0.595964 0.311930 0.795605 0.208602
H22   H     H_    0.705823 0.406393 0.767273 0.178885
N6    N     N_2   0.371847 0.179698 0.372410 -0.299208
H23   H     H_    0.364158 0.264157 0.373294 0.304903
C32   C     C_3   0.249585 0.129989 0.357041 -0.834092
H24   H     H_    0.175600 0.194673 0.354267 0.247167
H25   H     H_    0.229230 0.075906 0.420497 0.250883
H26   H     H_    0.241964 0.083340 0.280118 0.236028
N7    N     N_3   0.667944 0.011166 0.704839 -0.475159
H27   H     H_    0.716422 0.075652 0.745468 0.183122
H28   H     H_    0.603189 0.984698 0.755539 0.178274
N8    N     N_3   0.139381 0.423208 0.683228 -0.453432
H29   H     H_    0.115806 0.359051 0.728960 0.177821
H30   H     H_    0.106016 0.496198 0.721741 0.183646
N9    N     N_3   0.114557 0.295051 0.534819 -0.399646
H31   H     H_    0.053500 0.271325 0.472320 0.168687
H32   H     H_    0.103686 0.236420 0.589867 0.173307
N10   N     N_2   0.113157 0.396502 0.328391 -0.302830
H33   H     H_    0.053157 0.334576 0.301843 0.228102
C33   C     C_3   0.188731 0.428661 0.245770 -0.833202
H34   H     H_    0.243809 0.355366 0.214698 0.255762
H35   H     H_    0.254128 0.494018 0.275441 0.235766
H36   H     H_    0.127575 0.461136 0.181783 0.237437
N11   N     N_2   0.875836 0.725102 0.521601 -0.274717
H37   H     H_    0.899433 0.796875 0.565334 0.224627
C34   C     C_3   0.868638 0.742660 0.411010 -0.779201
H38   H     H_    0.843295 0.831337 0.399799 0.228758
H39   H     H_    0.792842 0.694415 0.370261 0.265474
H40   H     H_    0.959090 0.724730 0.374723 0.211929
N12   N     N_2   0.915527 0.635499 0.679221 -0.345407
H41   H     H_    0.973410 0.692867 0.718291 0.216976
C35   C     C_3   0.791011 0.648711 0.718097 -0.788869
H42   H     H_    0.797294 0.663505 0.804167 0.229657
H43   H     H_    0.739011 0.572127 0.700983 0.222597
H44   H     H_    0.740227 0.720465 0.684733 0.258097

loop_
_geom_bond_atom_site_label_1
_geom_bond_atom_site_label_2
_ccdc_geom_bond_type
N5    H22   S    
N4    H20   S    
C19   C20   A    
C27   N8    S    
C6    C9    A    
C12   O3    A    
C23   O6    A    
C7    C8    A    
C7    C11   A    
C26   C27   S    
C3    C28   S    
N10   C33   S    
C13   H5    S    
C10   C15   A    
C18   H12   S    
C14   H6    S    
N8    H30   S    
N3    C31   S    
C18   C19   A    
N6    C32   S    
C9    N5    S    
N11   C34   S    
C16   C17   A    
N12   C35   S    
C2    C27   S    
C9    C10   A    
C5    C13   A    
C4    C29   S    
N5    H21   S    
C26   H1    S    
C15   N3    S    
C18   N2    A    
C29   N11   S    
N9    H32   S    
N9    H31   S    
C21   N1    A    
O7    Zn1   S    
O8    Zn2   S    
C31   H17   S    
C33   H35   S    
C1    C6    S    
C27   N9    S    
N10   H33   S    
C32   H25   S    
N8    H29   S    
C26   H8    S    
C6    C8    A    
C4    H14   S    
C3    H4    S    
O3    Zn1   S    
C34   H40   S    
O4    Zn2   S    
C21   N6    S    
C2    C4    S    
N7    H27   S    
C29   C30   S    
C29   N12   S    
C23   O5    A    
C5    C23   S    
C16   C20   A    
N12   H41   S    
C34   H39   S    
C7    H7    S    
C1    O2    A    
C25   O8    A    
N7    H28   S    
C5    C14   A    
C4    H2    S    
C16   H10   S    
C28   H3    S    
C26   C30   S    
C35   H43   S    
C22   C24   A    
O1    Zn1   S    
O2    Zn2   S    
C31   H18   S    
C12   C30   S    
C33   H34   S    
C1    O1    A    
C25   O7    A    
C33   H36   S    
C32   H26   S    
C12   O4    A    
C17   N2    A    
C24   N7    S    
C35   H44   S    
C28   H13   S    
C28   C30   S    
C2    C3    S    
C32   H24   S    
C11   C13   A    
N11   H37   S    
C22   H9    S    
C34   H38   S    
C19   C24   A    
C2    C25   S    
O5    Zn1   S    
N6    H23   S    
C17   H11   S    
C10   C11   A    
C8    N4    S    
N4    H19   S    
C31   H16   S    
C22   N1    A    
C20   C21   A    
N1    Zn1   S    
C35   H42   S    
N2    Zn2   S    
C3    N10   S    
C14   C15   A    
N3    H15   S    
O6    Zn2   S    
