data_mof_unit_62556.cif
_audit_creation_date              2012-12-10T19:37:58-0500
_audit_creation_method            fapswitch 2.2
_symmetry_space_group_name_H-M    P1
_symmetry_Int_Tables_number       1
_space_group_crystal_system       triclinic
_cell_length_a                    10.749172
_cell_length_b                    15.787961
_cell_length_c                    17.117352
_cell_angle_alpha                 96.229601
_cell_angle_beta                  90.314282
_cell_angle_gamma                 92.079391
_cell_volume                      2885.75817697

loop_
_atom_site_label
_atom_site_type_symbol
_atom_type_description
_atom_site_fract_x
_atom_site_fract_y
_atom_site_fract_z
_atom_type_partial_charge
C1    C     C_R   0.499118 0.489692 0.348548 0.794106
C2    C     C_3   0.878154 0.500160 0.503438 0.014060
C3    C     C_3   0.926183 0.445006 0.566471 0.103309
C4    C     C_3   0.932069 0.593010 0.521444 -0.381550
C5    C     C_R   0.498684 0.484323 0.262545 -0.030110
C6    C     C_R   0.503406 0.559122 0.225157 -0.236163
C7    C     C_R   0.503444 0.554500 0.143633 -0.152491
C8    C     C_R   0.498708 0.474453 0.097934 0.387072
C9    C     C_R   0.493764 0.400074 0.135406 -0.192111
C10   C     C_R   0.493719 0.404700 0.217104 -0.223706
C11   C     C_R   0.500603 0.445697 0.856383 -0.140069
C12   C     C_R   0.259603 0.500809 0.501630 0.820052
C13   C     C_R   0.499905 0.441011 0.774861 -0.202494
C14   C     C_R   0.503427 0.525764 0.902032 0.383586
C15   C     C_R   0.502021 0.515760 0.737427 -0.011892
C16   C     C_R   0.505346 0.595414 0.782801 -0.170286
C17   C     C_R   0.506052 0.600108 0.864502 -0.176326
C18   C     C_R   0.454466 0.751446 0.454181 0.011720
C19   C     C_R   0.456852 0.840840 0.456993 -0.300843
C20   C     C_R   0.524326 0.891253 0.517193 0.393106
C21   C     C_R   0.587969 0.848862 0.572356 -0.308116
C22   C     C_R   0.582284 0.759371 0.567710 0.062080
C23   C     C_R   0.500935 0.510323 0.651443 0.851861
C24   C     C_R   0.556137 0.158848 0.536558 -0.277649
C25   C     C_R   0.559178 0.248231 0.538953 0.035950
C26   C     C_R   0.475370 0.108788 0.483297 0.385614
C27   C     C_R   0.405881 0.240975 0.438607 0.051793
C28   C     C_R   0.400122 0.151488 0.434160 -0.312948
C29   C     C_R   0.740302 0.499810 0.501447 0.835305
C30   C     C_3   0.069144 0.464139 0.422021 -0.408396
C31   C     C_3   0.925724 0.463556 0.421852 -0.455859
C32   C     C_3   0.070028 0.446161 0.565951 -0.443995
C33   C     C_3   0.075934 0.597044 0.521840 0.630632
C34   C     C_3   0.121576 0.502918 0.503448 0.033077
Cu1   Cu    Cu3+1 0.493900 0.415220 0.496180 0.945348
Cu2   Cu    Cu3+1 0.506100 0.584780 0.503820 0.967621
H1    H     H_    0.100029 0.397658 0.408252 0.171101
H2    H     H_    0.895712 0.622511 0.578286 0.199071
H3    H     H_    0.109295 0.467991 0.625125 0.234475
H4    H     H_    0.497715 0.378751 0.741240 0.162569
H5    H     H_    0.498861 0.386675 0.883247 0.154443
H6    H     H_    0.490010 0.338247 0.101008 0.142727
H7    H     H_    0.489912 0.346011 0.244560 0.160200
H8    H     H_    0.507189 0.654070 0.755291 0.164911
H9    H     H_    0.507223 0.613550 0.116810 0.154764
H10   H     H_    0.508391 0.661954 0.898856 0.143986
H11   H     H_    0.105409 0.501025 0.374651 0.203578
H12   H     H_    0.507139 0.621372 0.258813 0.159314
H13   H     H_    0.621665 0.286062 0.579739 0.144075
H14   H     H_    0.616768 0.129687 0.575775 0.158205
H15   H     H_    0.641661 0.885108 0.619105 0.147832
H16   H     H_    0.631779 0.727749 0.610754 0.134764
H17   H     H_    0.347283 0.272937 0.400355 0.124185
H18   H     H_    0.406569 0.869696 0.412390 0.153906
H19   H     H_    0.337016 0.115485 0.392407 0.142527
H20   H     H_    0.402726 0.713403 0.407758 0.135714
H21   H     H_    0.892575 0.502157 0.375699 0.186201
H22   H     H_    0.888138 0.397143 0.406645 0.180496
H23   H     H_    0.100235 0.379569 0.551822 0.172410
H24   H     H_    0.890892 0.377975 0.551691 0.140522
H25   H     H_    0.896960 0.631250 0.475666 0.177629
N1    N     N_2   0.498672 0.465663 0.014645 -0.261778
N2    N     N_2   0.503616 0.534591 0.985324 -0.260662
N3    N     N_R   0.515260 0.712130 0.509560 -0.162834
N4    N     N_2   0.532278 0.982968 0.524302 -0.243375
N5    N     N_2   0.467139 0.017074 0.476365 -0.245108
N6    N     N_R   0.484730 0.287850 0.490450 -0.168292
O1    O     O_R   0.494300 0.420530 0.382500 -0.592900
O2    O     O_R   0.504600 0.563720 0.388950 -0.593618
O3    O     O_R   0.312540 0.428400 0.496760 -0.602454
O4    O     O_R   0.322840 0.571590 0.503210 -0.538266
O5    O     O_R   0.495400 0.436280 0.611050 -0.588283
O6    O     O_R   0.505700 0.579470 0.617500 -0.581071
O7    O     O_R   0.677160 0.428410 0.496790 -0.588530
O8    O     O_R   0.687460 0.571600 0.503240 -0.592153
Br1   Br    Br    0.864284 0.480710 0.671735 -0.535679
Br2   Br    Br    0.135832 0.644028 0.628914 -0.566526
O9    O     O_3   0.116638 0.644653 0.459314 -0.632651
C35   C     C_3   0.142687 0.733113 0.479550 0.110823
H26   H     H_    0.185190 0.757199 0.426878 0.147554
H27   H     H_    0.214990 0.745803 0.526197 0.193814
C36   C     C_3   0.026067 0.784604 0.498594 -0.396921
H28   H     H_    0.957866 0.771967 0.449315 0.221143
H29   H     H_    0.982225 0.766307 0.553116 0.238642
C37   C     C_3   0.058752 0.880042 0.510707 -0.868275
H30   H     H_    0.126217 0.894591 0.560167 0.268985
H31   H     H_    0.973136 0.915735 0.524793 0.257588
H32   H     H_    0.099870 0.901561 0.456485 0.249935

loop_
_geom_bond_atom_site_label_1
_geom_bond_atom_site_label_2
_ccdc_geom_bond_type
Cu1   O7    S    
Cu1   Cu2   S    
C25   N6    A    
C33   Br2   S    
C7    C8    A    
C37   H30   S    
C9    H6    S    
C6    H12   S    
C2    C29   S    
C1    C5    S    
C7    H9    S    
C31   H22   S    
C24   C26   A    
C5    C6    A    
C11   C14   A    
C33   O9    S    
C15   C16   A    
C1    O1    A    
C18   C19   A    
C32   H3    S    
C13   H4    S    
C19   C20   A    
Cu1   O3    S    
C8    C9    A    
C9    C10   A    
C16   H8    S    
Cu2   O4    S    
C18   H20   S    
C3    H24   S    
C15   C23   S    
C21   C22   A    
C14   C17   A    
C23   O6    A    
C28   H19   S    
C37   H31   S    
C24   H14   S    
C30   C34   S    
C26   N5    S    
C30   H11   S    
C17   H10   S    
C35   H27   S    
O9    C35   S    
C16   C17   A    
C29   O7    A    
C4    H25   S    
C1    O2    A    
C30   H1    S    
C2    C31   S    
C32   C34   S    
C2    C4    S    
N1    N2    D    
Cu2   O8    S    
C20   N4    S    
Cu1   N6    S    
C33   C34   S    
C24   C25   A    
C3    Br1   S    
C19   H18   S    
C12   O4    A    
C4    H2    S    
Cu1   O5    S    
N4    N5    D    
C36   H29   S    
C13   C15   A    
C12   C34   S    
C21   H15   S    
Cu2   O2    S    
C22   H16   S    
C37   H32   S    
C12   O3    A    
C4    C33   S    
C10   H7    S    
C23   O5    A    
C35   C36   S    
C27   H17   S    
C6    C7    A    
C29   O8    A    
C36   C37   S    
C26   C28   A    
C31   H21   S    
C2    C3    S    
C5    C10   A    
C11   C13   A    
C18   N3    A    
C30   C31   S    
Cu1   O1    S    
C14   N2    S    
C11   H5    S    
C3    C32   S    
C25   H13   S    
C27   N6    A    
Cu2   O6    S    
C22   N3    A    
C35   H26   S    
C20   C21   A    
C36   H28   S    
C27   C28   A    
C32   H23   S    
Cu2   N3    S    
C8    N1    S    
