data_mof_unit_50459.cif
_audit_creation_date              2012-12-10T18:23:07-0500
_audit_creation_method            fapswitch 2.2
_symmetry_space_group_name_H-M    P1
_symmetry_Int_Tables_number       1
_space_group_crystal_system       triclinic
_cell_length_a                    14.968489
_cell_length_b                    14.134306
_cell_length_c                    10.539426
_cell_angle_alpha                 89.255322
_cell_angle_beta                  87.36051
_cell_angle_gamma                 90.372842
_cell_volume                      2227.20778848

loop_
_atom_site_label
_atom_site_type_symbol
_atom_type_description
_atom_site_fract_x
_atom_site_fract_y
_atom_site_fract_z
_atom_type_partial_charge
C1    C     C_R   0.327460 0.499866 0.498207 1.029082
C2    C     C_R   0.672540 0.500134 0.501793 1.029082
C3    C     C_R   0.952902 0.500158 0.501814 -0.038173
C4    C     C_R   0.047098 0.499841 0.498186 -0.038173
C5    C     C_R   0.908974 0.515216 0.387357 -0.009775
C6    C     C_R   0.091026 0.484784 0.612643 -0.009775
C7    C     C_R   0.949285 0.476604 0.733167 0.441919
C8    C     C_R   0.050715 0.523396 0.266833 0.441919
C9    C     C_R   0.041625 0.474443 0.727721 -0.121124
C10   C     C_R   0.958375 0.525557 0.272278 -0.121124
C11   C     C_R   0.564909 0.799464 0.431354 0.487508
C12   C     C_R   0.435091 0.200536 0.568647 0.487508
C13   C     C_R   0.434713 0.797171 0.568303 0.463607
C14   C     C_R   0.565287 0.202829 0.431697 0.463607
C15   C     C_R   0.427088 0.897714 0.557399 -0.185187
C16   C     C_R   0.572912 0.102286 0.442601 -0.185187
C17   C     C_R   0.572668 0.899794 0.442424 -0.193473
C18   C     C_R   0.427332 0.100206 0.557576 -0.193473
C19   C     C_R   0.499952 0.949430 0.500000 -0.068220
C20   C     C_R   0.500048 0.050570 0.500000 -0.068220
C21   C     C_R   0.349283 0.948160 0.597958 0.374500
C22   C     C_R   0.650717 0.051840 0.402041 0.374500
C23   C     C_R   0.650545 0.951878 0.401812 0.366151
C24   C     C_R   0.349455 0.048122 0.598188 0.366151
C25   C     C_R   0.502254 0.500655 0.257387 1.054722
C26   C     C_R   0.497746 0.499345 0.742613 1.054722
C27   C     C_3   0.488317 0.588793 0.037601 0.470378
C28   C     C_3   0.511683 0.411207 0.962399 0.470378
C29   C     C_3   0.565363 0.554714 0.950001 0.426438
C30   C     C_3   0.434636 0.445286 0.049999 0.426438
C31   C     C_3   0.418178 0.533027 0.965391 -0.417291
C32   C     C_3   0.581822 0.466973 0.034609 -0.417292
C33   C     C_3   0.496780 0.498294 0.877584 -0.238880
C34   C     C_3   0.503220 0.501706 0.122416 -0.238880
C35   C     C_R   0.816036 0.517788 0.389323 0.356903
C36   C     C_R   0.183964 0.482212 0.610677 0.356903
C37   C     C_R   0.767787 0.500169 0.503104 -0.213112
C38   C     C_R   0.232213 0.499830 0.496896 -0.213112
C39   C     C_R   0.808846 0.479276 0.616544 0.326074
C40   C     C_R   0.191154 0.520724 0.383456 0.326075
C41   C     C_R   0.902786 0.485140 0.619330 -0.052453
C42   C     C_R   0.097214 0.514859 0.380670 -0.052453
H1    H     H_    0.353277 0.559358 0.933124 0.257342
H2    H     H_    0.646723 0.440642 0.066876 0.257342
H3    H     H_    0.074360 0.466803 0.816602 0.251961
H4    H     H_    0.925640 0.533197 0.183398 0.251961
N1    N     N_R   0.500000 0.750030 0.500000 -0.181346
N2    N     N_R   0.500000 0.249970 0.500000 -0.181345
O1    O     O_R   0.367850 0.580280 0.500030 -0.561522
O2    O     O_R   0.632150 0.419720 0.499970 -0.561522
O3    O     O_R   0.632150 0.580280 0.499970 -0.578677
O4    O     O_R   0.367850 0.419720 0.500030 -0.578677
O5    O     O_R   0.499970 0.580260 0.313950 -0.548353
O6    O     O_R   0.500030 0.419740 0.686050 -0.548353
O7    O     O_R   0.500030 0.580260 0.686050 -0.593311
O8    O     O_R   0.499970 0.419740 0.313950 -0.593311
Zn1   Zn    Zn3+2 0.500000 0.607200 0.500000 1.117222
Zn2   Zn    Zn3+2 0.500000 0.392800 0.500000 1.117222
O9    O     O_3   0.480280 0.680256 0.088763 -0.561221
C43   C     C_3   0.452931 0.743666 0.994393 -0.100019
H5    H     H_    0.382765 0.728810 0.970282 0.211025
H6    H     H_    0.498236 0.742213 0.907746 0.182385
H7    H     H_    0.455188 0.816421 0.032346 0.185601
O10   O     O_3   0.519720 0.319744 0.911237 -0.561221
C44   C     C_3   0.547069 0.256334 0.005607 -0.100020
H8    H     H_    0.501764 0.257787 0.092254 0.182385
H9    H     H_    0.617235 0.271190 0.029718 0.211025
H10   H     H_    0.544812 0.183579 0.967654 0.185601
O11   O     O_3   0.628449 0.613362 0.882918 -0.605120
C45   C     C_3   0.694259 0.642541 0.965077 -0.043073
H11   H     H_    0.738089 0.582376 0.988304 0.242290
H12   H     H_    0.664555 0.674617 0.052909 0.215802
H13   H     H_    0.736793 0.697304 0.915509 0.195359
O12   O     O_3   0.371551 0.386638 0.117083 -0.605120
C46   C     C_3   0.305741 0.357458 0.034923 -0.043072
H14   H     H_    0.335445 0.325382 0.947092 0.215801
H15   H     H_    0.261912 0.417624 0.011695 0.242290
H16   H     H_    0.263207 0.302696 0.084492 0.195358
Cl1   Cl    Cl    0.757806 0.537270 0.248538 -0.604877
Cl2   Cl    Cl    0.242194 0.462730 0.751462 -0.604876
Cl3   Cl    Cl    0.739244 0.436528 0.746275 -0.498328
Cl4   Cl    Cl    0.260756 0.563472 0.253724 -0.498328
Cl5   Cl    Cl    0.900564 0.478309 0.889016 -0.489595
Cl6   Cl    Cl    0.099436 0.521690 0.110984 -0.489595
Cl7   Cl    Cl    0.628756 0.737058 0.316413 -0.462004
Cl8   Cl    Cl    0.371244 0.262942 0.683587 -0.462003
Cl9   Cl    Cl    0.369144 0.731253 0.681412 -0.524700
Cl10  Cl    Cl    0.630856 0.268747 0.318588 -0.524700
Cl11  Cl    Cl    0.244845 0.889845 0.627298 -0.375791
Cl12  Cl    Cl    0.755155 0.110155 0.372701 -0.375790
Cl13  Cl    Cl    0.754652 0.895030 0.371766 -0.390645
Cl14  Cl    Cl    0.245348 0.104970 0.628234 -0.390645

loop_
_geom_bond_atom_site_label_1
_geom_bond_atom_site_label_2
_ccdc_geom_bond_type
C7    Cl5   S    
C9    H3    S    
C29   C33   S    
C27   C29   S    
C11   N1    A    
C19   C20   A    
C25   O8    A    
C12   N2    A    
C26   O7    A    
C6    C9    A    
C39   C41   A    
C21   Cl11  S    
C15   C19   A    
C17   C23   A    
C31   H1    S    
C43   H7    S    
C18   C24   A    
C35   C37   A    
C8    C42   A    
C29   C32   S    
C30   C31   S    
C30   O12   S    
C24   Cl14  S    
O1    Zn1   S    
C43   H6    S    
C2    O2    A    
C11   C17   A    
C6    C36   A    
C44   H9    S    
C10   H4    S    
C31   C33   S    
C45   H11   S    
O3    Zn1   S    
C18   C20   A    
C25   C34   S    
C40   C42   A    
O9    C43   S    
C26   O6    A    
C1    O4    A    
C29   O11   S    
C27   C34   S    
C32   H2    S    
O12   C46   S    
C30   C34   S    
C27   C31   S    
O2    Zn2   S    
C40   Cl4   S    
C28   C32   S    
C39   Cl3   S    
C4    C6    A    
C36   Cl2   S    
C13   N1    A    
O5    Zn1   S    
C14   N2    A    
C43   H5    S    
C32   C34   S    
C46   H14   S    
N1    Zn1   S    
C26   C33   S    
C16   C20   A    
C44   H10   S    
C13   Cl9   S    
C45   H13   S    
C22   Cl12  S    
O7    Zn1   S    
C46   H15   S    
O4    Zn2   S    
C1    C38   S    
C28   O10   S    
C28   C33   S    
C13   C15   A    
C14   C16   A    
C3    C4    A    
O6    Zn2   S    
C7    C9    A    
C3    C41   A    
C16   C22   A    
C8    Cl6   S    
C25   O5    A    
C3    C5    A    
N2    Zn2   S    
C12   Cl8   S    
O10   C44   S    
C28   C30   S    
C14   Cl10  S    
C5    C10   A    
C37   C39   A    
C27   O9    S    
C36   C38   A    
C38   C40   A    
C2    C37   S    
C4    C42   A    
C11   Cl7   S    
C5    C35   A    
C35   Cl1   S    
C17   C19   A    
O8    Zn2   S    
C23   Cl13  S    
C7    C41   A    
O11   C45   S    
C46   H16   S    
C2    O3    A    
C15   C21   A    
C8    C10   A    
C44   H8    S    
C21   C24   A    
C12   C18   A    
C22   C23   A    
C45   H12   S    
C1    O1    A    
