data_mof_unit_34455.cif
_audit_creation_date              2012-12-10T20:39:56-0500
_audit_creation_method            fapswitch 2.2
_symmetry_space_group_name_H-M    P1
_symmetry_Int_Tables_number       1
_space_group_crystal_system       triclinic
_cell_length_a                    23.448465
_cell_length_b                    10.690992
_cell_length_c                    9.856762
_cell_angle_alpha                 90.151506
_cell_angle_beta                  89.946414
_cell_angle_gamma                 90.164021
_cell_volume                      2470.94573553

loop_
_atom_site_label
_atom_site_type_symbol
_atom_type_description
_atom_site_fract_x
_atom_site_fract_y
_atom_site_fract_z
_atom_type_partial_charge
C1    C     C_R   0.498790 0.260053 0.500020 0.882888
C2    C     C_R   0.970896 0.275778 0.427878 -0.042272
C3    C     C_R   0.030377 0.277429 0.436646 -0.192510
C4    C     C_R   0.059855 0.387182 0.470230 -0.033308
C5    C     C_R   0.029615 0.497899 0.496547 -0.014524
C6    C     C_R   0.059367 0.609428 0.526831 -0.024320
C7    C     C_R   0.029162 0.719700 0.553688 -0.132523
C8    C     C_R   0.969951 0.719338 0.551718 -0.148928
C9    C     C_R   0.119418 0.389627 0.475245 0.516211
C10   C     C_R   0.118914 0.607804 0.528735 0.507062
C11   C     C_R   0.238002 0.522093 0.623152 -0.092483
C12   C     C_R   0.389272 0.500287 0.500186 0.864182
C13   C     C_R   0.297210 0.523068 0.622232 -0.214021
C14   C     C_R   0.326982 0.500934 0.500910 -0.037318
C15   C     C_R   0.296682 0.479326 0.380470 -0.224892
C16   C     C_R   0.237537 0.479120 0.381354 -0.094299
C17   C     C_R   0.208183 0.499991 0.502719 0.309879
C18   C     C_R   0.761760 0.494092 0.375373 -0.086002
C19   C     C_R   0.702605 0.494772 0.375877 -0.188802
C20   C     C_R   0.672864 0.500122 0.499462 -0.044704
C21   C     C_R   0.703040 0.505072 0.622364 -0.218244
C22   C     C_R   0.762247 0.504890 0.621428 -0.088576
C23   C     C_R   0.499158 0.739911 0.500106 0.890755
C24   C     C_R   0.791450 0.499219 0.497987 0.312450
C25   C     C_R   0.498702 0.064288 0.623038 0.110907
C26   C     C_R   0.491921 0.128453 0.501477 -0.068993
C27   C     C_R   0.476972 0.063975 0.382724 -0.210435
C28   C     C_R   0.476947 0.934734 0.382864 -0.185443
C29   C     C_R   0.492913 0.871461 0.501181 -0.073216
C30   C     C_R   0.500436 0.936750 0.622203 0.046203
C31   C     C_3   0.547675 0.933158 0.725081 -0.242746
C32   C     C_3   0.544800 0.075380 0.727397 -0.504576
C33   C     C_R   0.469629 0.411687 0.071086 0.221896
C34   C     C_R   0.610675 0.500223 0.499892 0.896536
C35   C     C_R   0.533815 0.579850 0.072173 -0.133859
C36   C     C_R   0.533787 0.579861 0.928184 -0.127984
C37   C     C_R   0.469810 0.411593 0.928166 0.168789
C38   C     C_3   0.407054 0.391997 0.920403 -0.495120
C39   C     C_3   0.406365 0.394481 0.074494 -0.080655
C40   C     C_R   0.880538 0.607371 0.521176 0.511777
C41   C     C_R   0.879611 0.388302 0.471142 0.526621
C42   C     C_R   0.939603 0.385513 0.462042 -0.094918
C43   C     C_R   0.969634 0.497268 0.493261 -0.017095
C44   C     C_R   0.939903 0.608898 0.522170 -0.019352
H1    H     H_    0.680289 0.490803 0.279799 0.167610
H2    H     H_    0.681019 0.509322 0.718901 0.177524
H3    H     H_    0.785511 0.508706 0.716214 0.147699
H4    H     H_    0.468632 0.112440 0.288718 0.167015
H5    H     H_    0.467738 0.885283 0.289295 0.165781
H6    H     H_    0.533885 0.889906 0.822276 0.150364
H7    H     H_    0.528241 0.113257 0.824889 0.195899
H8    H     H_    0.583427 0.124229 0.688345 0.223493
H9    H     H_    0.560258 0.646035 0.126707 0.166217
H10   H     H_    0.053855 0.193137 0.411865 0.213293
H11   H     H_    0.560140 0.646008 0.873993 0.192795
H12   H     H_    0.384763 0.473321 0.875551 0.191886
H13   H     H_    0.396061 0.300147 0.873905 0.213524
H14   H     H_    0.384034 0.477628 0.116151 0.177965
H15   H     H_    0.051113 0.806424 0.576942 0.209898
H16   H     H_    0.947809 0.805705 0.574240 0.216655
H17   H     H_    0.215228 0.538517 0.717133 0.145994
H18   H     H_    0.319476 0.542060 0.715999 0.151840
H19   H     H_    0.318433 0.461837 0.285930 0.160338
H20   H     H_    0.214404 0.462572 0.287932 0.144608
H21   H     H_    0.784649 0.489800 0.279998 0.146817
N1    N     N_R   0.852083 0.498315 0.496791 -0.361985
N2    N     N_R   0.147443 0.498962 0.503227 -0.359581
N3    N     N_R   0.499610 0.499140 0.142800 -0.126039
N4    N     N_R   0.499610 0.499180 0.857150 -0.111138
O1    O     O_R   0.500010 0.316790 0.614690 -0.615063
O2    O     O_2   0.848651 0.282370 0.459446 -0.502436
O3    O     O_2   0.149252 0.283750 0.452690 -0.545874
O4    O     O_2   0.148208 0.714131 0.554445 -0.546156
O5    O     O_R   0.500000 0.316760 0.385350 -0.619802
O6    O     O_R   0.416160 0.499980 0.614700 -0.623208
O7    O     O_R   0.416150 0.499940 0.385360 -0.629160
O8    O     O_R   0.500000 0.683240 0.614650 -0.624636
O9    O     O_R   0.499990 0.683210 0.385310 -0.622599
O10   O     O_R   0.583850 0.500060 0.614640 -0.612054
O11   O     O_R   0.583840 0.500020 0.385300 -0.617586
O12   O     O_2   0.851195 0.713711 0.544922 -0.533727
Zn1   Zn    Zn3+2 0.500000 0.500020 0.653130 0.960503
Zn2   Zn    Zn3+2 0.500000 0.499980 0.346870 0.955938
C45   C     C_2   0.944677 0.159590 0.374008 1.012029
O13   O     O_2   0.911155 0.164414 0.279193 -0.564065
O14   O     O_R   0.961195 0.043809 0.426312 -0.810140
H22   H     H_    0.941447 0.971158 0.379393 0.353744
C46   C     C_2   0.603577 0.882795 0.671696 0.971456
O15   O     O_2   0.622726 0.918773 0.562975 -0.604290
O16   O     O_R   0.633466 0.794826 0.748020 -0.824915
H23   H     H_    0.670264 0.767904 0.702618 0.353921
C47   C     C_3   0.387931 0.270794 0.138688 -0.859695
H24   H     H_    0.412354 0.190956 0.095811 0.236058
H25   H     H_    0.394772 0.274865 0.249980 0.256158
H26   H     H_    0.341819 0.255068 0.119494 0.253089

loop_
_geom_bond_atom_site_label_1
_geom_bond_atom_site_label_2
_ccdc_geom_bond_type
C27   H4    S    
C37   N4    A    
C35   H9    S    
C41   C42   A    
C2    C45   S    
C19   C20   A    
C9    O3    S    
O5    Zn2   S    
C7    C8    A    
C10   N2    A    
C18   H21   S    
C5    C6    A    
C26   C27   A    
C29   C30   A    
C18   C24   A    
C1    O5    A    
C23   C29   S    
C28   C29   A    
C45   O14   S    
C30   C31   S    
C10   O4    S    
C15   C16   A    
C35   N3    A    
C18   C19   A    
C32   H8    S    
N4    Zn1   S    
C34   O11   A    
O9    Zn2   S    
C13   H18   S    
C35   C36   A    
C16   C17   A    
C24   N1    S    
C41   O2    S    
C20   C34   S    
C46   O15   D    
C25   C32   S    
C22   H3    S    
C5    C43   A    
C40   N1    A    
C21   C22   A    
O11   Zn2   S    
O7    Zn2   S    
C7    H15   S    
C17   N2    S    
C45   O13   D    
O14   H22   S    
C25   C26   A    
C39   H14   S    
C47   H26   S    
C33   C37   A    
C43   C44   A    
C9    N2    A    
C32   H7    S    
C37   C38   S    
C34   O10   A    
C38   H13   S    
C28   H5    S    
C31   C32   S    
C47   H25   S    
C33   C39   S    
C23   O8    A    
C41   N1    A    
C12   C14   S    
C12   O7    A    
C1    C26   S    
C22   C24   A    
C42   C43   A    
C31   H6    S    
C3    C4    A    
C39   C47   S    
C36   N4    A    
C21   H2    S    
C25   C30   A    
C11   C17   A    
C31   C46   S    
N3    Zn2   S    
C40   O12   S    
C8    C44   A    
C46   O16   S    
C4    C5    A    
C11   H17   S    
C6    C10   A    
O10   Zn1   S    
C19   H1    S    
O6    Zn1   S    
C6    C7    A    
C1    O1    A    
C2    C3    A    
C36   H11   S    
C8    H16   S    
C11   C13   A    
O16   H23   S    
C38   C39   S    
O8    Zn1   S    
C2    C42   A    
C47   H24   S    
C3    H10   S    
C23   O9    A    
O1    Zn1   S    
C40   C44   A    
C38   H12   S    
C20   C21   A    
C12   O6    A    
C27   C28   A    
C15   H19   S    
C14   C15   A    
C16   H20   S    
C4    C9    A    
C13   C14   A    
C33   N3    A    
