data_mof_unit_66387.cif
_audit_creation_date              2012-12-10T19:46:47-0500
_audit_creation_method            fapswitch 2.2
_symmetry_space_group_name_H-M    P1
_symmetry_Int_Tables_number       1
_space_group_crystal_system       triclinic
_cell_length_a                    18.47794
_cell_length_b                    18.477936
_cell_length_c                    32.804585
_cell_angle_alpha                 89.999906
_cell_angle_beta                  89.999916
_cell_angle_gamma                 90.0
_cell_volume                      11200.6069974

loop_
_atom_site_label
_atom_site_type_symbol
_atom_type_description
_atom_site_fract_x
_atom_site_fract_y
_atom_site_fract_z
_atom_type_partial_charge
C1    C     C_R   0.500000 0.000000 0.896017 0.487864
C2    C     C_1   0.500000 0.000000 0.768810 0.012290
C3    C     C_3   0.233421 0.291596 0.427236 -0.252579
C4    C     C_3   0.708403 0.766579 0.427236 -0.252580
C5    C     C_3   0.766574 0.291602 0.427236 -0.252577
C6    C     C_3   0.291596 0.233421 0.427236 -0.252580
C7    C     C_3   0.233424 0.708400 0.427236 -0.252579
C8    C     C_1   0.500000 1.000000 0.149184 0.018127
C9    C     C_1   1.000000 0.500000 0.149184 0.018127
C10   C     C_1   1.000000 0.500000 0.649184 0.018127
C11   C     C_1   0.500000 0.000000 0.649184 0.018127
C12   C     C_1   0.500000 1.000000 0.186788 -0.010527
C13   C     C_1   0.500000 0.000000 0.268810 0.012290
C14   C     C_1   1.000000 0.500000 0.186788 -0.010527
C15   C     C_1   0.000000 0.500000 0.686788 -0.010526
C16   C     C_1   0.500000 0.000000 0.686788 -0.010526
C17   C     C_1   0.000000 0.500000 0.268810 0.012290
C18   C     C_1   0.000000 0.500000 0.813230 -0.029759
C19   C     C_1   0.500000 0.000000 0.813230 -0.029759
C20   C     C_1   0.500000 0.000000 0.313230 -0.029759
C21   C     C_1   1.000000 0.500000 0.313230 -0.029759
C22   C     C_1   0.000000 0.500000 0.850833 -0.005752
C23   C     C_1   0.500000 0.000000 0.850833 -0.005752
C24   C     C_1   0.500000 0.000000 0.350833 -0.005752
C25   C     C_R   1.000000 0.500000 0.896017 0.487865
C26   C     C_1   1.000000 0.500000 0.350833 -0.005752
C27   C     C_R   0.500000 1.000000 0.104001 0.481903
C28   C     C_R   1.000000 0.500000 0.104001 0.481902
C29   C     C_R   1.000000 0.500000 0.604001 0.481903
C30   C     C_R   0.500000 1.000000 0.604001 0.481903
C31   C     C_R   0.641299 0.860155 0.000655 0.501467
C32   C     C_R   0.139845 0.641299 0.000655 0.501474
C33   C     C_R   0.358701 0.139845 0.000655 0.501468
C34   C     C_R   0.860155 0.358701 0.000655 0.501467
C35   C     C_R   0.641299 0.139845 0.000655 0.501467
C36   C     C_R   1.000000 0.500000 0.396017 0.487864
C37   C     C_R   0.139845 0.358701 0.000655 0.501470
C38   C     C_R   0.358701 0.860155 0.000655 0.501473
C39   C     C_R   0.860155 0.641299 0.000655 0.501467
C40   C     C_R   0.141299 0.360155 0.500655 0.501468
C41   C     C_R   0.639845 0.141299 0.500655 0.501469
C42   C     C_R   0.858701 0.639845 0.500655 0.501468
C43   C     C_R   0.360155 0.858701 0.500655 0.501468
C44   C     C_R   0.141299 0.639845 0.500655 0.501468
C45   C     C_R   0.639845 0.858701 0.500655 0.501468
C46   C     C_R   0.858701 0.360155 0.500655 0.501469
C47   C     C_R   0.500000 0.000000 0.396017 0.487864
C48   C     C_R   0.360155 0.141299 0.500655 0.501468
C49   C     C_R   0.251066 0.801574 0.971554 -0.019735
C50   C     C_R   0.198430 0.251070 0.971553 -0.019734
C51   C     C_R   0.748925 0.198435 0.971551 -0.019732
C52   C     C_R   0.801565 0.748925 0.971550 -0.019731
C53   C     C_R   0.251070 0.198430 0.971553 -0.019734
C54   C     C_R   0.198426 0.748934 0.971554 -0.019735
C55   C     C_R   0.748925 0.801565 0.971550 -0.019730
C56   C     C_R   0.801565 0.251075 0.971551 -0.019732
C57   C     C_R   0.751071 0.301569 0.471552 -0.019732
C58   C     C_1   0.500000 1.000000 0.231208 0.018150
C59   C     C_R   0.698433 0.751073 0.471552 -0.019732
C60   C     C_R   0.248928 0.698432 0.471552 -0.019732
C61   C     C_R   0.301567 0.248927 0.471551 -0.019732
C62   C     C_R   0.751073 0.698433 0.471552 -0.019732
C63   C     C_R   0.698431 0.248929 0.471552 -0.019733
C64   C     C_R   0.248927 0.301567 0.471552 -0.019732
C65   C     C_R   0.301568 0.751072 0.471552 -0.019732
C66   C     C_R   0.298195 0.809737 0.004392 -0.030031
C67   C     C_R   0.190263 0.298196 0.004392 -0.030030
C68   C     C_R   0.701804 0.190263 0.004391 -0.030029
C69   C     C_1   1.000000 0.500000 0.231208 0.018150
C70   C     C_R   0.809737 0.701804 0.004391 -0.030031
C71   C     C_R   0.298195 0.190263 0.004392 -0.030031
C72   C     C_R   0.190262 0.701804 0.004392 -0.030031
C73   C     C_R   0.701804 0.809737 0.004391 -0.030030
C74   C     C_R   0.809737 0.298196 0.004391 -0.030029
C75   C     C_R   0.798196 0.309737 0.504392 -0.030031
C76   C     C_R   0.690263 0.798196 0.504391 -0.030030
C77   C     C_R   0.201804 0.690263 0.504392 -0.030031
C78   C     C_R   0.309737 0.201804 0.504391 -0.030031
C79   C     C_R   0.798196 0.690263 0.504391 -0.030030
C80   C     C_1   1.000000 0.500000 0.731208 0.018150
C81   C     C_R   0.690262 0.201804 0.504392 -0.030031
C82   C     C_R   0.201804 0.309737 0.504391 -0.030031
C83   C     C_R   0.309737 0.798196 0.504392 -0.030031
C84   C     C_R   0.282836 0.771104 0.040929 0.274625
C85   C     C_R   0.228891 0.282832 0.040930 0.274631
C86   C     C_R   0.717173 0.228886 0.040930 0.274635
C87   C     C_R   0.771113 0.717173 0.040930 0.274633
C88   C     C_R   0.282832 0.228891 0.040930 0.274630
C89   C     C_R   0.228896 0.717163 0.040929 0.274625
C90   C     C_R   0.717173 0.771113 0.040930 0.274634
C91   C     C_1   0.500000 0.000000 0.731208 0.018150
C92   C     C_R   0.771113 0.282827 0.040930 0.274635
C93   C     C_R   0.782831 0.271109 0.540930 0.274631
C94   C     C_R   0.728889 0.782830 0.540930 0.274631
C95   C     C_R   0.217170 0.728890 0.540930 0.274631
C96   C     C_R   0.271111 0.217171 0.540930 0.274632
C97   C     C_R   0.782830 0.728889 0.540930 0.274632
C98   C     C_R   0.728890 0.217169 0.540930 0.274630
C99   C     C_R   0.217171 0.271111 0.540930 0.274632
C100  C     C_R   0.271110 0.782830 0.540930 0.274631
C101  C     C_3   0.208388 0.733437 0.927237 -0.252575
C102  C     C_1   0.000000 0.500000 0.768810 0.012290
C103  C     C_3   0.266572 0.208396 0.927237 -0.252578
C104  C     C_3   0.791592 0.266584 0.927236 -0.252582
C105  C     C_3   0.733415 0.791590 0.927235 -0.252580
C106  C     C_3   0.208396 0.266572 0.927237 -0.252579
C107  C     C_3   0.266564 0.791612 0.927237 -0.252576
C108  C     C_3   0.791591 0.733415 0.927235 -0.252581
C109  C     C_3   0.733417 0.208408 0.927236 -0.252582
C110  C     C_3   0.708399 0.233426 0.427236 -0.252578
C111  C     C_3   0.766579 0.708403 0.427236 -0.252580
C112  C     C_3   0.291600 0.766576 0.427236 -0.252579
H1    H     H_    0.229851 0.678145 0.921462 0.140956
H2    H     H_    0.821871 0.729867 0.421466 0.140955
H3    H     H_    0.270136 0.821869 0.421465 0.140955
H4    H     H_    0.178128 0.270133 0.421466 0.140955
H5    H     H_    0.729867 0.821872 0.421466 0.140955
H6    H     H_    0.821867 0.270138 0.421464 0.140955
H7    H     H_    0.270133 0.178128 0.421466 0.140955
H8    H     H_    0.178132 0.729864 0.421465 0.140955
H9    H     H_    0.159913 0.748428 0.909035 0.157205
H10   H     H_    0.251582 0.159923 0.909033 0.157205
H11   H     H_    0.840063 0.251597 0.909028 0.157206
H12   H     H_    0.321864 0.229859 0.921464 0.140956
H13   H     H_    0.748402 0.840060 0.909027 0.157205
H14   H     H_    0.159923 0.251582 0.909033 0.157206
H15   H     H_    0.251572 0.840087 0.909035 0.157205
H16   H     H_    0.840060 0.748402 0.909027 0.157205
H17   H     H_    0.748404 0.159938 0.909028 0.157206
H18   H     H_    0.659926 0.248416 0.409031 0.157205
H19   H     H_    0.751590 0.659932 0.409030 0.157205
H20   H     H_    0.340072 0.751587 0.409031 0.157205
H21   H     H_    0.248409 0.340068 0.409029 0.157205
H22   H     H_    0.659931 0.751590 0.409030 0.157205
H23   H     H_    0.770128 0.321877 0.921467 0.140955
H24   H     H_    0.751585 0.340074 0.409031 0.157205
H25   H     H_    0.340068 0.248409 0.409029 0.157205
H26   H     H_    0.248414 0.659928 0.409031 0.157205
H27   H     H_    0.333049 0.835933 0.077787 0.326713
H28   H     H_    0.164059 0.333045 0.077786 0.326713
H29   H     H_    0.666960 0.164050 0.077785 0.326712
H30   H     H_    0.835951 0.666961 0.077785 0.326710
H31   H     H_    0.333045 0.164059 0.077786 0.326712
H32   H     H_    0.164066 0.666953 0.077788 0.326710
H33   H     H_    0.666961 0.835950 0.077785 0.326711
H34   H     H_    0.678121 0.770126 0.921467 0.140955
H35   H     H_    0.835950 0.333039 0.077785 0.326713
H36   H     H_    0.833043 0.335943 0.577786 0.326711
H37   H     H_    0.664055 0.833042 0.577786 0.326712
H38   H     H_    0.166957 0.664055 0.577786 0.326712
H39   H     H_    0.335947 0.166959 0.577786 0.326711
H40   H     H_    0.833041 0.664054 0.577786 0.326711
H41   H     H_    0.664056 0.166956 0.577786 0.326711
H42   H     H_    0.166958 0.335946 0.577786 0.326713
H43   H     H_    0.335944 0.833043 0.577786 0.326712
H44   H     H_    0.229859 0.321864 0.921464 0.140956
H45   H     H_    0.321856 0.770149 0.921462 0.140956
H46   H     H_    0.770126 0.678121 0.921467 0.140954
H47   H     H_    0.678124 0.229872 0.921467 0.140955
H48   H     H_    0.729862 0.178133 0.421464 0.140955
O1    O     O_3   0.500000 0.000000 0.000010 -0.433239
O2    O     O_R   0.500000 0.939250 0.416010 -0.531297
O3    O     O_R   0.060750 0.500000 0.416010 -0.531297
O4    O     O_R   0.500000 0.060750 0.416010 -0.531297
O5    O     O_R   0.500000 0.939250 0.084010 -0.526516
O6    O     O_R   0.060750 0.500000 0.084010 -0.526515
O7    O     O_R   0.500000 0.060750 0.084010 -0.526514
O8    O     O_R   0.939250 0.500000 0.084010 -0.526514
O9    O     O_R   1.000000 0.439250 0.584010 -0.526515
O10   O     O_R   0.560750 0.000000 0.584010 -0.526515
O11   O     O_R   1.000000 0.560750 0.584010 -0.526514
O12   O     O_3   1.000000 0.500000 0.000010 -0.433239
O13   O     O_R   0.439250 0.000000 0.584010 -0.526515
O14   O     O_R   0.646150 0.914530 0.977990 -0.537680
O15   O     O_R   0.085470 0.646150 0.977990 -0.537684
O16   O     O_R   0.353850 0.085470 0.977990 -0.537682
O17   O     O_R   0.914530 0.353850 0.977990 -0.537680
O18   O     O_R   0.646150 0.085470 0.977990 -0.537680
O19   O     O_R   0.085470 0.353850 0.977990 -0.537682
O20   O     O_R   0.353850 0.914530 0.977990 -0.537683
O21   O     O_R   0.914530 0.646150 0.977990 -0.537680
O22   O     O_R   0.146150 0.414530 0.477990 -0.537680
O23   O     O_3   1.000000 0.500000 0.500010 -0.433239
O24   O     O_R   0.585470 0.146150 0.477990 -0.537681
O25   O     O_R   0.853850 0.585470 0.477990 -0.537681
O26   O     O_R   0.414530 0.853850 0.477990 -0.537681
O27   O     O_R   0.146150 0.585470 0.477990 -0.537681
O28   O     O_R   0.585470 0.853850 0.477990 -0.537681
O29   O     O_R   0.853850 0.414530 0.477990 -0.537681
O30   O     O_R   0.414530 0.146150 0.477990 -0.537681
O31   O     O_R   0.414550 0.146120 0.022030 -0.519080
O32   O     O_R   0.853880 0.414550 0.022030 -0.519083
O33   O     O_R   0.585450 0.853880 0.022030 -0.519081
O34   O     O_3   0.500000 0.000000 0.500010 -0.433239
O35   O     O_R   0.146120 0.585450 0.022030 -0.519072
O36   O     O_R   0.414550 0.853880 0.022030 -0.519077
O37   O     O_R   0.853880 0.585450 0.022030 -0.519082
O38   O     O_R   0.585450 0.146120 0.022030 -0.519081
O39   O     O_R   0.146120 0.414550 0.022030 -0.519078
O40   O     O_R   0.914550 0.646120 0.522030 -0.519080
O41   O     O_R   0.353880 0.914550 0.522030 -0.519081
O42   O     O_R   0.085450 0.353880 0.522030 -0.519082
O43   O     O_R   0.646120 0.085450 0.522030 -0.519079
O44   O     O_R   0.914550 0.353880 0.522030 -0.519080
O45   O     O_R   0.439250 0.000000 0.916010 -0.531298
O46   O     O_R   0.353880 0.085450 0.522030 -0.519081
O47   O     O_R   0.085450 0.646120 0.522030 -0.519080
O48   O     O_R   0.646120 0.914550 0.522030 -0.519080
O49   O     O_3   0.318372 0.784439 0.077170 -0.605283
O50   O     O_3   0.215552 0.318363 0.077171 -0.605283
O51   O     O_3   0.681647 0.215541 0.077173 -0.605287
O52   O     O_3   0.784459 0.681647 0.077173 -0.605286
O53   O     O_3   0.318362 0.215552 0.077172 -0.605284
O54   O     O_3   0.215562 0.681626 0.077169 -0.605277
O55   O     O_3   0.681648 0.784458 0.077173 -0.605285
O56   O     O_R   0.000000 0.439250 0.916010 -0.531297
O57   O     O_3   0.784458 0.318352 0.077173 -0.605289
O58   O     O_3   0.818361 0.284450 0.577172 -0.605283
O59   O     O_3   0.715547 0.818358 0.577172 -0.605284
O60   O     O_3   0.181641 0.715548 0.577172 -0.605284
O61   O     O_3   0.284454 0.181643 0.577173 -0.605284
O62   O     O_3   0.818358 0.715547 0.577172 -0.605283
O63   O     O_3   0.715549 0.181639 0.577172 -0.605283
O64   O     O_3   0.181644 0.284454 0.577173 -0.605286
O65   O     O_3   0.284451 0.818359 0.577172 -0.605284
O66   O     O_R   0.560750 0.000000 0.916010 -0.531297
O67   O     O_R   0.000000 0.560750 0.916010 -0.531297
O68   O     O_R   0.939250 0.500000 0.416010 -0.531297
Zn1   Zn    Zn3+2 0.500000 0.913220 0.031480 0.975024
Zn2   Zn    Zn3+2 1.000000 0.586740 0.968550 0.940089
Zn3   Zn    Zn3+2 0.413260 0.000000 0.968550 0.940087
Zn4   Zn    Zn3+2 0.000000 0.413260 0.968550 0.940090
Zn5   Zn    Zn3+2 0.086740 0.500000 0.468550 0.940090
Zn6   Zn    Zn3+2 0.500000 0.086740 0.468550 0.940090
Zn7   Zn    Zn3+2 0.913260 0.500000 0.468550 0.940089
Zn8   Zn    Zn3+2 0.500000 0.913260 0.468550 0.940090
Zn9   Zn    Zn3+2 0.086780 0.500000 0.031480 0.975027
Zn10  Zn    Zn3+2 0.500000 0.086780 0.031480 0.975023
Zn11  Zn    Zn3+2 0.913220 0.500000 0.031480 0.975021
Zn12  Zn    Zn3+2 1.000000 0.413220 0.531480 0.975023
Zn13  Zn    Zn3+2 0.586780 0.000000 0.531480 0.975023
Zn14  Zn    Zn3+2 1.000000 0.586780 0.531480 0.975024
Zn15  Zn    Zn3+2 0.413220 0.000000 0.531480 0.975023
Zn16  Zn    Zn3+2 0.586740 0.000000 0.968550 0.940091

loop_
_geom_bond_atom_site_label_1
_geom_bond_atom_site_label_2
_ccdc_geom_bond_type
C1    O66   A    
C101  C107  S    
C5    H24   S    
H32   O54   S    
C21   C26   T    
C33   C71   S    
O20   Zn3   S    
C17   C69   T    
O34   Zn13  S    
H40   O62   S    
C68   C86   A    
C82   C99   A    
C7    C60   S    
O10   Zn13  S    
O46   Zn15  S    
O33   Zn1   S    
O44   Zn12  S    
C3    C6    S    
C85   O50   S    
O17   Zn4   S    
C101  H9    S    
O12   Zn4   S    
H28   O50   S    
C32   C72   S    
C104  H11   S    
C3    C64   S    
C97   O62   S    
O6    Zn9   S    
C55   C105  S    
C45   C76   S    
O3    Zn5   S    
C6    C61   S    
C44   C77   S    
C104  H23   S    
C53   C103  S    
C73   C90   A    
H41   O63   S    
C10   C15   T    
H37   O59   S    
C104  C109  S    
C65   C83   A    
C108  H46   S    
C5    C110  S    
C103  H12   S    
C48   C78   S    
C49   C54   A    
C96   C99   A    
C43   C83   S    
C101  H1    S    
C7    C112  S    
C22   C25   S    
C51   C56   A    
C18   C102  S    
C74   C92   A    
C33   O16   A    
C30   O10   A    
O68   Zn7   S    
O38   Zn10  S    
O22   Zn5   S    
C76   C94   A    
H33   O55   S    
C47   O2    A    
O7    Zn10  S    
C62   C111  S    
C38   C66   S    
C11   C30   S    
C78   C96   A    
O1    Zn16  S    
O9    Zn12  S    
C43   O41   A    
C36   O3    A    
C41   O24   A    
O30   Zn6   S    
O23   Zn14  S    
H30   O52   S    
C52   C70   A    
C41   O43   A    
C1    O45   A    
C50   C67   A    
H29   O51   S    
C30   O13   A    
C40   O22   A    
O28   Zn8   S    
C52   C55   A    
O14   Zn16  S    
H31   O53   S    
O2    Zn8   S    
O12   Zn9   S    
C35   O18   A    
C46   O44   A    
C39   O37   A    
C42   C79   S    
C36   O68   A    
O15   Zn2   S    
O1    Zn3   S    
O5    Zn1   S    
C111  H2    S    
O34   Zn15  S    
O34   Zn6   S    
C32   O35   A    
C86   O51   S    
C70   C87   A    
O39   Zn9   S    
C46   C75   S    
C107  H45   S    
C79   C97   A    
C57   C63   A    
O8    Zn11  S    
O18   Zn16  S    
C108  H16   S    
C37   O19   A    
C32   O15   A    
C60   C77   A    
C67   C85   A    
C50   C53   A    
C38   O20   A    
C49   C66   A    
O4    Zn6   S    
O43   Zn13  S    
C20   C24   T    
C62   C79   A    
C56   C74   A    
O48   Zn13  S    
C56   C104  S    
C49   C107  S    
C88   O53   S    
O47   Zn14  S    
O34   Zn8   S    
C31   O33   A    
O12   Zn2   S    
C95   C100  A    
O32   Zn11  S    
O1    Zn10  S    
C94   C97   A    
O16   Zn3   S    
C66   C84   A    
C77   C95   A    
C44   O47   A    
C112  H20   S    
H39   O61   S    
C80   C102  T    
C93   O58   S    
C3    H21   S    
C55   C73   A    
C61   C64   A    
C19   C23   T    
C9    C14   T    
C65   C112  S    
H35   O57   S    
C40   C82   S    
O23   Zn12  S    
C11   C16   T    
O13   Zn15  S    
O66   Zn16  S    
C15   C80   S    
O21   Zn2   S    
C8    C12   T    
C41   C81   S    
C98   O63   S    
C103  H10   S    
C95   O60   S    
C87   O52   S    
O27   Zn5   S    
C105  C108  S    
C29   O11   A    
C64   C82   A    
C39   O21   A    
C54   C101  S    
C100  O65   S    
C27   O5    A    
O1    Zn1   S    
C47   O4    A    
C93   C98   A    
C42   O25   A    
C26   C36   S    
O25   Zn7   S    
C4    C111  S    
C34   C74   S    
C60   C65   A    
C1    C23   S    
C45   O48   A    
C106  H44   S    
C83   C100  A    
O11   Zn14  S    
C109  H17   S    
C14   C69   S    
C4    H5    S    
O45   Zn3   S    
C84   C89   A    
C46   O29   A    
C53   C71   A    
O40   Zn14  S    
C6    H7    S    
C35   O38   A    
C110  H48   S    
C75   C93   A    
C4    H22   S    
C85   C88   A    
C111  H19   S    
C42   O40   A    
O26   Zn8   S    
C99   O64   S    
H43   O65   S    
C59   C62   A    
C63   C81   A    
C13   C20   S    
C27   O7    A    
C2    C19   S    
C84   O49   S    
C24   C47   S    
C48   O30   A    
C7    H8    S    
O35   Zn9   S    
C25   O56   A    
C40   O42   A    
O41   Zn15  S    
C7    H26   S    
C92   O57   S    
C45   O28   A    
C13   C58   T    
C28   O6    A    
C106  H14   S    
C43   O26   A    
C5    C57   S    
C5    H6    S    
C3    H4    S    
C37   O39   A    
C105  H13   S    
C63   C110  S    
C18   C22   T    
O24   Zn6   S    
C12   C58   S    
O23   Zn5   S    
C86   C92   A    
O42   Zn12  S    
C72   C89   A    
O37   Zn11  S    
C10   C29   S    
C57   C75   A    
C90   O55   S    
C35   C68   S    
C6    H25   S    
C105  H34   S    
C37   C67   S    
C4    C59   S    
C34   O32   A    
C94   O59   S    
O56   Zn4   S    
C39   C70   S    
C25   O67   A    
C110  H18   S    
C103  C106  S    
C51   C68   A    
C38   O36   A    
H42   O64   S    
C2    C91   T    
O29   Zn7   S    
C17   C21   S    
C61   C78   A    
C31   C73   S    
C28   O8    A    
C44   O27   A    
C107  H15   S    
C71   C88   A    
C33   O31   A    
O12   Zn11  S    
O67   Zn2   S    
C54   C72   A    
O36   Zn1   S    
C52   C108  S    
C16   C91   S    
C51   C109  S    
C96   O61   S    
C81   C98   A    
C87   C90   A    
C48   O46   A    
C50   C106  S    
C8    C27   S    
H38   O60   S    
C34   O17   A    
O31   Zn10  S    
C29   O9    A    
O19   Zn4   S    
H27   O49   S    
H36   O58   S    
C59   C76   A    
C112  H3    S    
C9    C28   S    
O23   Zn7   S    
C89   O54   S    
C31   O14   A    
C109  H47   S    
