data_mof_unit_49399.cif
_audit_creation_date              2012-10-26T21:24:48-0400
_audit_creation_method            fapswitch 2.2
_symmetry_space_group_name_H-M    P1
_symmetry_Int_Tables_number       1
_space_group_crystal_system       triclinic
_cell_length_a                    9.543191
_cell_length_b                    10.825246
_cell_length_c                    15.465093
_cell_angle_alpha                 89.733431
_cell_angle_beta                  74.565564
_cell_angle_gamma                 89.789322
_cell_volume                      1540.0182489

loop_
_atom_site_label
_atom_site_type_symbol
_atom_type_description
_atom_site_fract_x
_atom_site_fract_y
_atom_site_fract_z
_atom_type_partial_charge
Br1   Br    Br    0.836105 0.375781 0.235801 -0.556334
C1    C     C_R   0.000829 0.262391 0.498585 0.553980
C2    C     C_R   0.231230 0.430561 0.045631 0.017569
C3    C     C_R   0.327501 0.476972 0.093220 0.028751
C4    C     C_R   0.918400 0.500489 0.672206 0.540452
C5    C     C_R   0.085517 0.407201 0.089810 -0.113291
C6    C     C_R   0.032359 0.428062 0.181524 0.140775
C7    C     C_R   0.269582 0.505767 0.184320 -0.155196
C8    C     C_R   0.127031 0.063379 0.498007 0.032915
C9    C     C_R   0.005034 0.129425 0.490431 0.011311
C10   C     C_R   0.888953 0.065273 0.471589 -0.146314
C11   C     C_R   0.888549 0.936560 0.472137 -0.156898
C12   C     C_R   0.675305 0.490846 0.908504 0.033049
C13   C     C_R   0.004225 0.871076 0.491266 0.006675
C14   C     C_R   0.126674 0.936128 0.498475 0.019818
C15   C     C_3   0.205995 0.929721 0.569740 -0.269121
C16   C     C_R   0.000370 0.737751 0.498882 0.546451
C17   C     C_3   0.206725 0.069902 0.568887 -0.269551
C18   C     C_R   0.605102 0.540543 0.426660 0.213529
C19   C     C_R   0.545041 0.447331 0.568218 -0.014319
C20   C     C_R   0.396158 0.447600 0.568322 -0.021266
C21   C     C_R   0.457885 0.540303 0.426551 0.181622
C22   C     C_3   0.469230 0.665465 0.384749 -0.279876
C23   C     C_R   0.775575 0.523445 0.957611 0.046553
C24   C     C_3   0.628044 0.665890 0.385279 -0.275390
C25   C     C_R   0.081198 0.495159 0.327796 0.568543
C26   C     C_R   0.873354 0.503345 0.770690 -0.002280
C27   C     C_R   0.125126 0.478895 0.229634 0.010125
C28   C     C_R   0.923097 0.541026 0.913564 -0.140347
C29   C     C_R   0.972062 0.529791 0.820671 -0.141996
C30   C     C_R   0.726901 0.483827 0.814686 -0.131089
C31   C     C_R   0.526597 0.469759 0.954320 0.036305
C32   C     C_R   0.477894 0.492097 0.048338 0.039530
C33   C     C_R   0.581936 0.524750 0.094664 -0.114274
C34   C     C_R   0.727714 0.539251 0.049996 -0.114638
C35   C     C_R   0.425787 0.424419 0.909575 -0.131874
C36   C     C_R   0.281468 0.404937 0.954636 -0.136906
Cu1   Cu    Cu3+1 0.140670 0.499980 0.500000 0.944216
Cu2   Cu    Cu3+1 0.859330 0.500020 0.500000 0.973089
H1    H     H_    0.803538 0.564284 0.088132 0.140238
H2    H     H_    0.402944 0.735842 0.429738 0.149184
H3    H     H_    0.704173 0.664379 0.316962 0.152705
H4    H     H_    0.208637 0.368580 0.917840 0.107704
H5    H     H_    0.000287 0.565241 0.950904 0.112801
H6    H     H_    0.085913 0.545332 0.787884 0.124158
H7    H     H_    0.654248 0.467098 0.773596 0.113184
H8    H     H_    0.555586 0.536455 0.166274 0.125695
H9    H     H_    0.455251 0.398397 0.839978 0.092323
H10   H     H_    0.795904 0.113914 0.460384 0.154378
H11   H     H_    0.795268 0.889237 0.461424 0.126029
H12   H     H_    0.013460 0.368647 0.053347 0.142845
H13   H     H_    0.138895 0.889499 0.633633 0.140519
H14   H     H_    0.652125 0.735865 0.431346 0.133085
H15   H     H_    0.316411 0.889099 0.544954 0.133220
H16   H     H_    0.140301 0.111371 0.632341 0.132045
H17   H     H_    0.317267 0.109729 0.542967 0.145352
H18   H     H_    0.576273 0.405975 0.624079 0.110271
H19   H     H_    0.316443 0.406994 0.624289 0.110084
H20   H     H_    0.454076 0.663461 0.316049 0.121479
H21   H     H_    0.334974 0.549413 0.222152 0.115619
N1    N     N_R   0.648210 0.500930 0.499430 -0.227665
N2    N     N_R   0.352300 0.500890 0.499430 -0.235337
O1    O     O_R   0.118810 0.319640 0.500000 -0.496171
O2    O     O_R   0.881230 0.319680 0.499990 -0.495283
O3    O     O_R   0.055580 0.499970 0.629840 -0.513124
O4    O     O_R   0.818000 0.500010 0.629830 -0.516390
O5    O     O_R   0.118770 0.680320 0.500010 -0.503718
O6    O     O_R   0.881190 0.680360 0.500000 -0.510806
O7    O     O_R   0.182000 0.499990 0.370170 -0.508292
O8    O     O_R   0.944420 0.500030 0.370160 -0.450433

loop_
_geom_bond_atom_site_label_1
_geom_bond_atom_site_label_2
_ccdc_geom_bond_type
C24   H3    S    
C36   H4    S    
Cu1   O5    S    
C11   H11   S    
C10   C11   A    
C28   C29   A    
C10   H10   S    
C24   H14   S    
C5    H12   S    
C21   N2    A    
C8    C9    A    
C12   C31   A    
C25   C27   S    
C22   H2    S    
Cu1   O3    S    
C17   H17   S    
C3    C7    A    
C2    C5    A    
C31   C32   A    
Cu1   O1    S    
C32   C33   A    
C8    C14   A    
Cu1   O7    S    
C20   H19   S    
C4    C26   S    
C7    H21   S    
C26   C29   A    
C22   H20   S    
Cu2   O2    S    
C13   C16   S    
C20   N2    A    
C5    C6    A    
C17   H16   S    
C18   N1    A    
C25   O8    A    
C31   C35   A    
C4    O3    A    
C35   C36   A    
Cu2   O8    S    
C1    O2    A    
C35   H9    S    
C22   C24   S    
C28   H5    S    
Cu1   Cu2   S    
Cu2   N1    S    
Cu2   O4    S    
C15   H15   S    
C16   O5    A    
C23   C34   A    
C9    C10   A    
C3    C32   A    
C18   C24   S    
C34   H1    S    
C2    C3    A    
C1    C9    S    
C15   H13   S    
C8    C17   S    
C23   C28   A    
C18   C21   A    
C19   C20   A    
C2    C36   A    
C7    C27   A    
C15   C17   S    
C33   C34   A    
Cu2   O6    S    
C19   N1    A    
C25   O7    A    
C13   C14   A    
C16   O6    A    
C33   H8    S    
C29   H6    S    
C1    O1    A    
C19   H18   S    
Br1   C6    S    
C26   C30   A    
C12   C30   A    
C21   C22   S    
C6    C27   A    
C14   C15   S    
C12   C23   A    
C11   C13   A    
C4    O4    A    
Cu1   N2    S    
C30   H7    S    
