data_mof_unit_13246.cif
_audit_creation_date              2012-12-10T16:50:02-0500
_audit_creation_method            fapswitch 2.2
_symmetry_space_group_name_H-M    P1
_symmetry_Int_Tables_number       1
_space_group_crystal_system       triclinic
_cell_length_a                    7.773855
_cell_length_b                    8.605033
_cell_length_c                    10.647075
_cell_angle_alpha                 90.481879
_cell_angle_beta                  86.577117
_cell_angle_gamma                 93.151096
_cell_volume                      709.873500314

loop_
_atom_site_label
_atom_site_type_symbol
_atom_type_description
_atom_site_fract_x
_atom_site_fract_y
_atom_site_fract_z
_atom_type_partial_charge
Br1   Br    Br    0.687932 0.218674 0.850346 -0.399547
Br2   Br    Br    0.244961 0.066580 0.838783 -0.421598
Br3   Br    Br    0.233987 0.079142 0.156172 -0.440109
Br4   Br    Br    0.184190 0.976465 0.468728 -0.459263
C1    C     C_R   0.544010 0.794413 0.493703 0.918527
C2    C     C_R   0.453919 0.205869 0.500111 0.955214
C3    C     C_R   0.498209 0.506994 0.260667 0.877704
C4    C     C_R   0.397942 0.775813 0.870117 -0.272744
C5    C     C_R   0.327944 0.901050 0.934512 0.292503
C6    C     C_R   0.318013 0.902596 0.065981 0.308858
C7    C     C_R   0.373346 0.775871 0.131947 -0.256319
C8    C     C_R   0.436779 0.644583 0.066779 0.042123
C9    C     C_3   0.013417 0.713052 0.688538 0.000450
C10   C     C_R   0.448261 0.644556 0.934980 0.021221
C11   C     C_R   0.513948 0.513973 0.871039 -0.135423
C12   C     C_R   0.581850 0.391588 0.934130 0.295153
C13   C     C_R   0.570441 0.392217 0.062698 -0.174454
C14   C     C_R   0.495559 0.514478 0.128214 -0.097184
C15   C     C_2   0.563277 0.957480 0.491583 -0.421907
C16   C     C_2   0.424604 0.044228 0.489787 0.135826
C17   C     C_R   0.503696 0.500981 0.739318 0.910933
H1    H     H_    0.414696 0.783817 0.768933 0.165344
H2    H     H_    0.367178 0.781976 0.233540 0.195912
H3    H     H_    0.619625 0.295926 0.112292 0.192681
H4    H     H_    0.694050 0.007515 0.498213 0.200738
H5    H     H_    0.011515 0.416123 0.385517 0.179869
H6    H     H_    0.937342 0.792260 0.634836 0.170869
H7    H     H_    0.152481 0.747484 0.677839 0.180784
H8    H     H_    0.972182 0.724862 0.789560 0.151902
N1    N     N_2   0.950330 0.457950 0.466250 -0.055625
N2    N     N_2   0.049670 0.542050 0.533750 0.125068
O1    O     O_R   0.389250 0.738570 0.508280 -0.613669
O2    O     O_R   0.678390 0.711630 0.486650 -0.615916
O3    O     O_R   0.355400 0.513470 0.694050 -0.596592
O4    O     O_R   0.644540 0.486530 0.672420 -0.546891
O5    O     O_R   0.321610 0.288370 0.513350 -0.565188
O6    O     O_R   0.610750 0.261430 0.491720 -0.626181
O7    O     O_R   0.355460 0.513470 0.327580 -0.632332
O8    O     O_R   0.644600 0.486530 0.305950 -0.626982
O9    O     O_3   0.979674 0.558454 0.651402 -0.478455
Zn1   Zn    Zn3+2 0.306930 0.517990 0.514440 1.057213
Zn2   Zn    Zn3+2 0.693070 0.482010 0.485560 1.057490

loop_
_geom_bond_atom_site_label_1
_geom_bond_atom_site_label_2
_ccdc_geom_bond_type
C4    H1    S    
O1    Zn1   S    
C9    H7    S    
C17   O4    A    
C2    C16   S    
C5    C6    A    
C15   C16   D    
C7    C8    A    
C3    C14   S    
C1    O1    A    
C13   C14   A    
C2    O6    A    
Br3   C6    S    
O5    Zn1   S    
C12   C13   A    
O3    Zn1   S    
C1    C15   S    
O2    Zn2   S    
C9    H8    S    
C3    O7    A    
C2    O5    A    
H5    N1    S    
O8    Zn2   S    
N1    N2    D    
C15   H4    S    
C13   H3    S    
C6    C7    A    
C8    C14   A    
C11   C12   A    
Br4   C16   S    
C11   C17   S    
N2    O9    S    
O7    Zn1   S    
C7    H2    S    
O6    Zn2   S    
Br1   C12   S    
O4    Zn2   S    
C3    O8    A    
C10   C11   A    
N1    Zn2   S    
C9    O9    S    
C4    C10   A    
C17   O3    A    
N2    Zn1   S    
Br2   C5    S    
C9    H6    S    
C8    C10   A    
C4    C5    A    
C1    O2    A    
