data_mof_unit_12857.cif
_audit_creation_date              2012-12-10T17:02:30-0500
_audit_creation_method            fapswitch 2.2
_symmetry_space_group_name_H-M    P1
_symmetry_Int_Tables_number       1
_space_group_crystal_system       triclinic
_cell_length_a                    10.807999
_cell_length_b                    11.043745
_cell_length_c                    10.013826
_cell_angle_alpha                 111.319456
_cell_angle_beta                  99.9574
_cell_angle_gamma                 95.492049
_cell_volume                      1080.18878388

loop_
_atom_site_label
_atom_site_type_symbol
_atom_type_description
_atom_site_fract_x
_atom_site_fract_y
_atom_site_fract_z
_atom_type_partial_charge
C1    C     C_R   0.486152 0.253340 0.439014 0.731992
C2    C     C_R   0.514099 0.746757 0.561048 0.761663
C3    C     C_2   0.462647 0.111453 0.403096 0.236881
C4    C     C_2   0.537758 0.888799 0.596981 0.240685
C5    C     C_2   0.514644 0.068573 0.506235 -0.133557
C6    C     C_2   0.489538 0.931161 0.491858 -0.134618
C7    C     C_2   0.514450 0.513945 0.081998 0.397182
C8    C     C_2   0.485473 0.486054 0.917963 0.395283
C9    C     C_R   0.263928 0.513093 0.500798 0.810418
C10   C     C_R   0.736105 0.486978 0.499216 0.830041
C11   C     C_R   0.174637 0.655854 0.767445 -0.063977
C12   C     C_R   0.825498 0.344638 0.232476 -0.074939
C13   C     C_R   0.142084 0.677470 0.901686 -0.012684
C14   C     C_R   0.858056 0.323297 0.098280 -0.015895
C15   C     C_R   0.025693 0.615404 0.905186 -0.126262
C16   C     C_R   0.974444 0.385452 0.094908 -0.135786
C17   C     C_R   0.937614 0.540311 0.774205 -0.112578
C18   C     C_R   0.062528 0.460342 0.225936 -0.128916
C19   C     C_R   0.964209 0.527495 0.636146 0.087900
C20   C     C_R   0.035898 0.472924 0.363911 0.084808
C21   C     C_R   0.090241 0.570948 0.633637 0.082795
C22   C     C_R   0.909864 0.429433 0.366371 0.081658
C23   C     C_R   0.870854 0.471486 0.501381 -0.213871
C24   C     C_R   0.129239 0.528785 0.498651 -0.208413
Cu1   Cu    Cu3+1 0.521920 0.521810 0.644910 1.060931
Cu2   Cu    Cu3+1 0.478080 0.478190 0.355090 1.061461
H1    H     H_    0.996615 0.375285 0.990504 0.158608
H2    H     H_    0.003544 0.625737 0.009647 0.158548
H3    H     H_    0.429520 0.859736 0.389888 0.211789
H4    H     H_    0.577832 0.139544 0.606245 0.207332
N1    N     N_2   0.445130 0.445420 0.137360 -0.326439
N2    N     N_2   0.554870 0.554580 0.862640 -0.333471
O1    O     O_R   0.511700 0.332340 0.577400 -0.548820
O2    O     O_R   0.488300 0.667660 0.422600 -0.551896
O3    O     O_R   0.474680 0.295500 0.332650 -0.543620
O4    O     O_R   0.525320 0.704500 0.667350 -0.555613
O5    O     O_R   0.338170 0.518410 0.622370 -0.518486
O6    O     O_R   0.661830 0.481590 0.377630 -0.517970
O7    O     O_R   0.301150 0.481570 0.377630 -0.605564
O8    O     O_R   0.698850 0.518430 0.622370 -0.590677
H5    H     H_    0.266081 0.706577 0.769289 0.157846
H6    H     H_    0.734087 0.293774 0.230518 0.160303
H7    H     H_    0.209153 0.738182 0.003125 0.216434
H8    H     H_    0.791055 0.262631 0.996772 0.215923
H9    H     H_    0.852345 0.487833 0.783827 0.174092
H10   H     H_    0.147846 0.512856 0.216452 0.179016
S1    S     S_3+6 0.642446 0.994095 0.766751 0.019700
O9    O     O_2   0.756773 0.058721 0.735652 -0.284685
O10   O     O_2   0.575139 0.099253 0.851298 -0.280548
O11   O     O_3   0.693596 0.910377 0.870372 -0.478889
H11   H     H_    0.629499 0.910711 0.930231 0.386950
S2    S     S_3+6 0.354261 0.007220 0.235710 0.016374
O12   O     O_2   0.422984 0.909069 0.142709 -0.254910
O13   O     O_2   0.246345 0.934301 0.268492 -0.328177
O14   O     O_3   0.293390 0.093773 0.140066 -0.462627
H12   H     H_    0.232083 0.139856 0.194369 0.356313
S3    S     S_3+6 0.349657 0.354422 0.810927 0.016628
O15   O     O_2   0.309936 0.310213 0.647740 -0.249075
O16   O     O_2   0.375206 0.233664 0.839539 -0.265450
O17   O     O_3   0.222201 0.403003 0.877562 -0.607206
H13   H     H_    0.155031 0.323294 0.833509 0.379243
S4    S     S_3+6 0.649557 0.646302 0.189125 0.012098
O18   O     O_2   0.622058 0.766990 0.161328 -0.299094
O19   O     O_2   0.689985 0.689821 0.352170 -0.236171
O20   O     O_3   0.777274 0.599516 0.121877 -0.601584
H14   H     H_    0.843393 0.680084 0.164956 0.380498
H15   H     H_    0.633214 0.624127 0.924943 0.264180
H16   H     H_    0.366104 0.376757 0.075298 0.266893

loop_
_geom_bond_atom_site_label_1
_geom_bond_atom_site_label_2
_ccdc_geom_bond_type
C2    C4    S    
O14   H12   S    
C7    S4    S    
S4    O18   D    
C10   C23   S    
C11   C21   A    
C14   H8    S    
C19   C23   A    
S1    O9    D    
S2    O14   S    
C9    O7    A    
C10   O6    A    
S3    O17   S    
C2    O2    A    
Cu1   N2    S    
C9    O5    A    
O11   H11   S    
C15   H2    S    
C3    C5    D    
C1    O1    A    
C7    C8    S    
S1    O10   D    
C11   C13   A    
S3    O15   D    
C5    C6    S    
C16   H1    S    
N2    H15   S    
C18   H10   S    
C4    C6    D    
C17   C19   A    
C12   C14   A    
S2    O13   D    
C11   H5    S    
S1    O11   S    
C18   C20   A    
C13   C15   A    
Cu1   O8    S    
N1    H16   S    
C8    S3    S    
C3    S2    S    
C14   C16   A    
Cu2   O7    S    
S3    O16   D    
C7    N1    D    
C20   C22   A    
Cu1   O4    S    
C12   H6    S    
C8    N2    D    
C12   C22   A    
Cu2   O3    S    
C13   H7    S    
C6    H3    S    
S2    O12   D    
C1    O3    A    
C16   C18   A    
O20   H14   S    
C5    H4    S    
C21   C24   A    
C2    O4    A    
C15   C17   A    
C22   C23   A    
Cu2   O6    S    
C10   O8    A    
S4    O19   D    
S4    O20   S    
Cu1   O5    S    
Cu1   Cu2   S    
C19   C21   A    
Cu2   N1    S    
Cu1   O1    S    
Cu2   O2    S    
C9    C24   S    
C20   C24   A    
C17   H9    S    
O17   H13   S    
C1    C3    S    
C4    S1    S    
