data_mof_unit_17849.cif
_audit_creation_date              2012-12-11T14:54:45-0500
_audit_creation_method            fapswitch 2.2
_symmetry_space_group_name_H-M    P1
_symmetry_Int_Tables_number       1
_space_group_crystal_system       triclinic
_cell_length_a                    18.803486
_cell_length_b                    10.993303
_cell_length_c                    18.702078
_cell_angle_alpha                 89.932711
_cell_angle_beta                  90.915049
_cell_angle_gamma                 89.839632
_cell_volume                      3865.44075468

loop_
_atom_site_label
_atom_site_type_symbol
_atom_type_description
_atom_site_fract_x
_atom_site_fract_y
_atom_site_fract_z
_atom_type_partial_charge
C1    C     C_R   0.710924 0.330369 0.638010 0.532095
C2    C     C_R   0.291533 0.826824 0.454317 0.170067
C3    C     C_R   0.069121 0.638193 0.439974 -0.095585
C4    C     C_1   0.627035 0.833467 0.076452 0.183638
C5    C     C_1   0.372988 0.832654 0.923666 0.185045
C6    C     C_1   0.127035 0.333467 0.076453 0.183640
C7    C     C_1   0.872988 0.332655 0.923666 0.185044
C8    C     C_R   0.201606 0.345297 0.542789 0.187786
C9    C     C_R   0.791534 0.326826 0.454318 0.170047
C10   C     C_R   0.704707 0.844534 0.468526 -0.137899
C11   C     C_R   0.282301 0.808708 0.527450 -0.142810
C12   C     C_R   0.204707 0.344533 0.468527 -0.137908
C13   C     C_R   0.782303 0.308712 0.527451 -0.142818
C14   C     C_R   0.765294 0.886159 0.434378 -0.090802
C15   C     C_R   0.220337 0.847557 0.560936 -0.094305
C16   C     C_R   0.265294 0.386159 0.434379 -0.090798
C17   C     C_R   0.273703 0.368442 0.357853 0.560628
C18   C     C_R   0.720338 0.347560 0.560937 -0.094288
C19   C     C_R   0.825715 0.917815 0.475254 -0.092139
C20   C     C_R   0.163577 0.891963 0.519313 -0.094525
C21   C     C_R   0.325715 0.417815 0.475254 -0.092144
C22   C     C_R   0.663578 0.391965 0.519313 -0.094565
C23   C     C_R   0.823512 0.924140 0.549096 0.196878
C24   C     C_R   0.170812 0.910903 0.446158 0.226429
C25   C     C_R   0.323511 0.424140 0.549096 0.196886
C26   C     C_R   0.670813 0.410904 0.446158 0.226426
C27   C     C_R   0.757864 0.900356 0.582751 -0.026422
C28   C     C_R   0.210923 0.830367 0.638010 0.532089
C29   C     C_R   0.238679 0.892512 0.414979 -0.019608
C30   C     C_R   0.257863 0.400355 0.582752 -0.026423
C31   C     C_R   0.738680 0.392513 0.414980 -0.019606
C32   C     C_R   0.501841 0.054330 0.963548 -0.140473
C33   C     C_R   0.497431 0.054205 0.036249 -0.139657
C34   C     C_R   0.001841 0.554330 0.963548 -0.140473
C35   C     C_R   0.997431 0.554205 0.036249 -0.139656
C36   C     C_R   0.492293 0.163795 0.073678 0.032200
C37   C     C_R   0.507432 0.163985 0.926187 0.029752
C38   C     C_R   0.992293 0.663795 0.073678 0.032201
C39   C     C_R   0.773703 0.868442 0.357853 0.560622
C40   C     C_R   0.007432 0.663985 0.926187 0.029752
C41   C     C_R   0.495689 0.274985 0.036885 -0.125014
C42   C     C_R   0.504340 0.275072 0.963020 -0.125885
C43   C     C_R   0.995689 0.774985 0.036885 -0.125016
C44   C     C_R   0.004340 0.775072 0.963020 -0.125885
C45   C     C_R   0.564955 0.149810 0.639657 0.525018
C46   C     C_R   0.469387 0.154514 0.352382 0.563733
C47   C     C_R   0.064955 0.649810 0.639656 0.525018
C48   C     C_R   0.969388 0.654514 0.352381 0.563729
C49   C     C_R   0.783583 0.053349 0.978891 -0.139803
C50   C     C_3   0.381713 0.117624 0.495271 -0.301919
C51   C     C_R   0.216047 0.053127 0.021009 -0.139499
C52   C     C_R   0.283583 0.553349 0.978891 -0.139804
C53   C     C_R   0.716047 0.553127 0.021009 -0.139499
C54   C     C_R   0.790825 0.024046 0.050288 -0.130997
C55   C     C_R   0.208817 0.023807 0.949656 -0.131217
C56   C     C_R   0.290825 0.524046 0.050288 -0.130998
C57   C     C_R   0.708817 0.523807 0.949656 -0.131216
C58   C     C_R   0.743994 0.941052 0.082121 0.018091
C59   C     C_R   0.255840 0.940732 0.917884 0.017854
C60   C     C_R   0.243994 0.441052 0.082121 0.018090
C61   C     C_3   0.406883 0.112719 0.572513 -0.239173
C62   C     C_R   0.755839 0.440732 0.917884 0.017854
C63   C     C_R   0.682540 0.903926 0.043867 -0.031984
C64   C     C_R   0.317359 0.903318 0.956182 -0.033158
C65   C     C_R   0.182540 0.403927 0.043867 -0.031979
C66   C     C_R   0.817359 0.403318 0.956182 -0.033158
C67   C     C_R   0.675626 0.934315 0.971588 -0.133802
C68   C     C_R   0.324243 0.933678 0.028424 -0.133788
C69   C     C_R   0.175626 0.434315 0.971588 -0.133801
C70   C     C_R   0.824243 0.433678 0.028424 -0.133787
C71   C     C_R   0.728601 0.003039 0.938046 0.007350
C72   C     C_3   0.881716 0.617613 0.495268 -0.301931
C73   C     C_R   0.271190 0.002714 0.061891 0.008644
C74   C     C_R   0.228601 0.503039 0.938046 0.007349
C75   C     C_R   0.771190 0.502714 0.061891 0.008642
C76   C     C_R   0.743120 0.963337 0.649826 0.578925
C77   C     C_R   0.256576 0.962574 0.350199 0.591946
C78   C     C_R   0.243120 0.463337 0.649826 0.578922
C79   C     C_R   0.756576 0.462574 0.350199 0.591919
C80   C     C_R   0.731607 0.382321 0.851271 0.547756
C81   C     C_R   0.268377 0.382343 0.148731 0.538313
C82   C     C_R   0.231607 0.882321 0.851271 0.547753
C83   C     C_3   0.906884 0.612711 0.572511 -0.239182
C84   C     C_R   0.768377 0.882343 0.148731 0.538306
C85   C     C_R   0.532699 0.157009 0.853545 0.550817
C86   C     C_R   0.467234 0.156915 0.146404 0.540292
C87   C     C_R   0.032699 0.657009 0.853545 0.550815
C88   C     C_R   0.967234 0.656915 0.146404 0.540288
C89   C     C_R   0.726565 0.024566 0.861028 0.555419
C90   C     C_R   0.273342 0.024555 0.138857 0.554670
C91   C     C_R   0.226565 0.524566 0.861028 0.555418
C92   C     C_R   0.773342 0.524555 0.138857 0.554655
C93   C     C_R   0.497207 0.160611 0.423835 0.094765
C94   C     C_R   0.701606 0.845299 0.542788 0.187791
C95   C     C_R   0.542860 0.155086 0.566102 0.053025
C96   C     C_R   0.997209 0.660612 0.423834 0.094747
C97   C     C_R   0.042860 0.655087 0.566101 0.053022
C98   C     C_R   0.449450 0.182348 0.478669 0.049828
C99   C     C_R   0.471960 0.177948 0.548884 0.131705
C100  C     C_R   0.949451 0.682345 0.478668 0.049810
C101  C     C_R   0.971960 0.677945 0.548883 0.131699
C102  C     C_R   0.592002 0.135590 0.511520 -0.155512
C103  C     C_R   0.569119 0.138190 0.439974 -0.095567
C104  C     C_R   0.092003 0.635593 0.511520 -0.155529
Cr1   Cr    Cr6+3 0.771950 0.169480 0.750100 1.090540
Cr2   Cr    Cr6+3 0.383410 0.010620 0.249390 1.092924
Cr3   Cr    Cr6+3 0.116590 0.510620 0.750610 1.104312
Cr4   Cr    Cr6+3 0.883410 0.510620 0.249390 1.092936
Cr5   Cr    Cr6+3 0.228050 0.169480 0.249900 1.092958
Cr6   Cr    Cr6+3 0.271950 0.669480 0.750100 1.090540
Cr7   Cr    Cr6+3 0.728050 0.669480 0.249900 1.093102
Cr8   Cr    Cr6+3 0.614930 0.323340 0.749170 1.090081
Cr9   Cr    Cr6+3 0.385070 0.323340 0.250830 1.101811
Cr10  Cr    Cr6+3 0.114930 0.823340 0.749170 1.090107
Cr11  Cr    Cr6+3 0.885070 0.823340 0.250830 1.101807
Cr12  Cr    Cr6+3 0.616590 0.010620 0.750610 1.104310
H1    H     H_    0.647288 0.116300 0.524310 0.092169
H2    H     H_    0.162743 0.059524 0.921055 0.155404
H3    H     H_    0.336805 0.559623 0.078862 0.155016
H4    H     H_    0.662743 0.559524 0.921055 0.155403
H5    H     H_    0.630425 0.900393 0.941096 0.139399
H6    H     H_    0.369510 0.899555 0.058952 0.139082
H7    H     H_    0.130425 0.400393 0.941096 0.139400
H8    H     H_    0.869510 0.399555 0.058952 0.139081
H9    H     H_    0.877985 0.527129 0.470128 0.204096
H10   H     H_    0.873806 0.668704 0.608609 0.186729
H11   H     H_    0.377976 0.027141 0.470132 0.204109
H12   H     H_    0.606656 0.120688 0.397852 0.131556
H13   H     H_    0.373807 0.168714 0.608613 0.186729
H14   H     H_    0.333636 0.174521 0.487048 0.133842
H15   H     H_    0.418140 0.018673 0.591641 0.187500
H16   H     H_    0.833638 0.674505 0.487043 0.133845
H17   H     H_    0.918144 0.518666 0.591639 0.187492
H18   H     H_    0.660696 0.807847 0.437425 0.216179
H19   H     H_    0.323941 0.764881 0.558453 0.232993
H20   H     H_    0.160695 0.307846 0.437425 0.216159
H21   H     H_    0.823942 0.264885 0.558454 0.232981
H22   H     H_    0.876090 0.933037 0.449686 0.245225
H23   H     H_    0.147289 0.616303 0.524310 0.092170
H24   H     H_    0.112934 0.909930 0.543943 0.215780
H25   H     H_    0.376090 0.433034 0.449687 0.245214
H26   H     H_    0.612935 0.409931 0.543943 0.215718
H27   H     H_    0.504799 0.966889 0.937294 0.160762
H28   H     H_    0.494211 0.966685 0.062458 0.160755
H29   H     H_    0.004799 0.466889 0.937294 0.160762
H30   H     H_    0.994211 0.466685 0.062458 0.160755
H31   H     H_    0.490449 0.360770 0.064760 0.144947
H32   H     H_    0.509892 0.360894 0.935187 0.144975
H33   H     H_    0.990449 0.860770 0.064760 0.144942
H34   H     H_    0.106658 0.620692 0.397852 0.131560
H35   H     H_    0.009892 0.860894 0.935187 0.144975
H36   H     H_    0.555863 0.630735 0.545323 0.409422
H37   H     H_    0.475527 0.808639 0.393293 0.373645
H38   H     H_    0.055816 0.130865 0.545231 0.409484
H39   H     H_    0.975535 0.308585 0.393321 0.373701
H40   H     H_    0.951313 0.122352 0.643733 0.371597
H41   H     H_    0.048051 0.119059 0.352004 0.362776
H42   H     H_    0.451315 0.622357 0.643728 0.371575
H43   H     H_    0.547895 0.619081 0.352205 0.362838
H44   H     H_    0.823293 0.110265 0.954849 0.156713
H45   H     H_    0.176242 0.110219 0.044988 0.157197
H46   H     H_    0.323293 0.610264 0.954849 0.156714
H47   H     H_    0.676242 0.610219 0.044988 0.157196
H48   H     H_    0.836805 0.059623 0.078862 0.155013
N1    N     N_1   0.582519 0.777064 0.102625 -0.302196
N2    N     N_1   0.417608 0.776089 0.897555 -0.296574
N3    N     N_1   0.082519 0.277064 0.102625 -0.302233
N4    N     N_1   0.917609 0.276089 0.897555 -0.296573
O1    O     O_R   0.787510 0.042610 0.670410 -0.441366
O2    O     O_R   0.454250 0.051070 0.169440 -0.532366
O3    O     O_R   0.045750 0.551070 0.830560 -0.524231
O4    O     O_R   0.954250 0.551070 0.169440 -0.532367
O5    O     O_R   0.681210 0.959150 0.825320 -0.491943
O6    O     O_R   0.318790 0.959150 0.174680 -0.493698
O7    O     O_R   0.181210 0.459150 0.825320 -0.491943
O8    O     O_R   0.818790 0.459150 0.174680 -0.493706
O9    O     O_3   0.667820 0.167810 0.749960 -0.353777
O10   O     O_3   0.332180 0.167810 0.250040 -0.315892
O11   O     O_3   0.167820 0.667810 0.749960 -0.353782
O12   O     O_R   0.212490 0.042610 0.329590 -0.431793
O13   O     O_3   0.832180 0.667810 0.250040 -0.315910
O14   O     O_R   0.765670 0.292090 0.675090 -0.483935
O15   O     O_R   0.234330 0.292090 0.324910 -0.498131
O16   O     O_R   0.265670 0.792090 0.675090 -0.483936
O17   O     O_R   0.734330 0.792090 0.324910 -0.498103
O18   O     O_R   0.670220 0.409020 0.668560 -0.457471
O19   O     O_R   0.329780 0.409020 0.331440 -0.468257
O20   O     O_R   0.170220 0.909020 0.668560 -0.457433
O21   O     O_R   0.829780 0.909020 0.331440 -0.468241
O22   O     O_R   0.556580 0.251590 0.674980 -0.465187
O23   O     O_R   0.287510 0.542610 0.670410 -0.441365
O24   O     O_R   0.443420 0.251590 0.325020 -0.457185
O25   O     O_R   0.056580 0.751590 0.674980 -0.465180
O26   O     O_R   0.943420 0.751590 0.325020 -0.457187
O27   O     O_R   0.545890 0.049670 0.670030 -0.452623
O28   O     O_R   0.454110 0.049670 0.329970 -0.483415
O29   O     O_R   0.045890 0.549670 0.670030 -0.452621
O30   O     O_R   0.954110 0.549670 0.329970 -0.483378
O31   O     O_R   0.681340 0.957860 0.676500 -0.456942
O32   O     O_R   0.318660 0.957860 0.323500 -0.437075
O33   O     O_R   0.181340 0.457860 0.676500 -0.456943
O34   O     O_R   0.712490 0.542610 0.329590 -0.431690
O35   O     O_R   0.818660 0.457860 0.323500 -0.437080
O36   O     O_R   0.787380 0.044010 0.830940 -0.485017
O37   O     O_R   0.212620 0.044010 0.169060 -0.485935
O38   O     O_R   0.287380 0.544010 0.830940 -0.485017
O39   O     O_R   0.712620 0.544010 0.169060 -0.485910
O40   O     O_R   0.765540 0.293390 0.823910 -0.501701
O41   O     O_R   0.234460 0.293390 0.176090 -0.508470
O42   O     O_R   0.265540 0.793390 0.823910 -0.501702
O43   O     O_R   0.734460 0.793390 0.176090 -0.508464
O44   O     O_R   0.670090 0.410410 0.829090 -0.512421
O45   O     O_R   0.556450 0.252890 0.823790 -0.493606
O46   O     O_R   0.329910 0.410410 0.170910 -0.513731
O47   O     O_R   0.170090 0.910410 0.829090 -0.512422
O48   O     O_R   0.829910 0.910410 0.170910 -0.513737
O49   O     O_2   0.647998 0.722915 0.655244 -0.252966
O50   O     O_2   0.566794 0.855588 0.586061 -0.270747
O51   O     O_3   0.604550 0.651685 0.530210 -0.481894
O52   O     O_2   0.392810 0.654524 0.460703 -0.249597
O53   O     O_2   0.348185 0.711228 0.341643 -0.267628
O54   O     O_3   0.434359 0.857281 0.409351 -0.505017
O55   O     O_2   0.147994 0.222924 0.655248 -0.252875
O56   O     O_R   0.443550 0.252890 0.176210 -0.497761
O57   O     O_2   0.066793 0.355584 0.586055 -0.270854
O58   O     O_3   0.104556 0.151671 0.530216 -0.481878
O59   O     O_2   0.892813 0.154531 0.460714 -0.249606
O60   O     O_2   0.848161 0.211173 0.341654 -0.267569
O61   O     O_3   0.934349 0.357259 0.409312 -0.505006
O62   O     O_2   0.907008 0.891261 0.666358 -0.281180
O63   O     O_2   0.968113 0.931287 0.554675 -0.275921
O64   O     O_3   0.907012 0.111013 0.615175 -0.476652
O65   O     O_2   0.094948 0.891613 0.323353 -0.292852
O66   O     O_2   0.027024 0.915925 0.432365 -0.262384
O67   O     O_R   0.056450 0.752890 0.823790 -0.493607
O68   O     O_3   0.090129 0.104667 0.383444 -0.468383
O69   O     O_2   0.407007 0.391267 0.666359 -0.281183
O70   O     O_2   0.468112 0.431285 0.554676 -0.275969
O71   O     O_3   0.407011 0.611016 0.615171 -0.476627
O72   O     O_2   0.594946 0.391606 0.323354 -0.292721
O73   O     O_2   0.527027 0.415918 0.432370 -0.262531
O74   O     O_3   0.590128 0.604659 0.383438 -0.468314
O75   O     O_R   0.943550 0.752890 0.176210 -0.497769
O76   O     O_R   0.545750 0.051070 0.830560 -0.524230
S1    S     S_3+6 0.628690 0.769590 0.581857 0.032061
S2    S     S_3+6 0.367157 0.758148 0.414947 0.020824
S3    S     S_3+6 0.128690 0.269587 0.581858 0.032071
S4    S     S_3+6 0.867150 0.258132 0.414945 0.020866
S5    S     S_3+6 0.903843 0.961231 0.597240 0.039996
S6    S     S_3+6 0.093288 0.952964 0.395140 0.047786
S7    S     S_3+6 0.403842 0.461232 0.597240 0.039976
S8    S     S_3+6 0.593288 0.452958 0.395139 0.047794

loop_
_geom_bond_atom_site_label_1
_geom_bond_atom_site_label_2
_ccdc_geom_bond_type
C3    C104  A    
O57   S3    D    
C81   O41   A    
C7    N4    T    
Cr12  O76   S    
C45   O27   A    
C16   C21   A    
C88   O4    A    
Cr10  O25   S    
C55   C59   A    
O70   S7    D    
O54   S2    S    
C41   C42   A    
Cr7   O39   S    
C78   O33   A    
C89   O5    A    
C42   H32   S    
O66   S6    D    
C88   O75   A    
O74   S8    S    
C84   O43   A    
Cr10  O20   S    
C57   C62   A    
C61   C99   S    
C1    O18   A    
C92   O8    A    
C4    C63   S    
C1    C18   S    
Cr1   O1    S    
C13   C18   A    
H38   O58   S    
C2    C29   A    
C34   C40   A    
Cr8   O44   S    
C40   C87   S    
C37   C85   S    
O49   S1    D    
C73   C90   S    
Cr3   O33   S    
Cr4   O35   S    
C58   C84   S    
C28   O20   A    
Cr8   O18   S    
C85   O45   A    
C39   O21   A    
C34   H29   S    
C95   C99   A    
O53   S2    D    
C10   C94   A    
C49   C54   A    
Cr9   O19   S    
H36   O51   S    
C96   C100  A    
Cr6   O23   S    
C58   C63   A    
C33   C36   A    
C87   O67   A    
C4    N1    T    
C34   C35   A    
C37   C42   A    
C9    S4    S    
C9    C13   A    
C24   C29   A    
C32   H27   S    
C21   C25   A    
C50   H14   S    
C51   C73   A    
C14   C39   S    
O61   S4    S    
C11   C15   A    
Cr5   O10   S    
C6    C65   S    
C20   C24   A    
C8    S3    S    
C16   C17   S    
C71   C89   S    
C12   H20   S    
O51   S1    S    
C49   H44   S    
C3    C96   A    
C23   C27   A    
Cr1   O14   S    
O62   S5    D    
C83   C101  S    
C77   O32   A    
H43   O74   S    
C67   C71   A    
C43   H33   S    
C95   C102  A    
C61   H13   S    
H42   O71   S    
C80   O44   A    
Cr3   O11   S    
Cr5   O15   S    
Cr9   O10   S    
O59   S4    D    
Cr6   O16   S    
C26   C31   A    
Cr10  O11   S    
C86   O2    A    
Cr12  O9    S    
C59   C82   S    
Cr4   O30   S    
Cr2   O2    S    
C93   C103  A    
C36   C41   A    
C53   C75   A    
O73   S8    D    
C86   O56   A    
Cr9   O46   S    
Cr5   O41   S    
C2    C11   A    
C67   H5    S    
Cr7   O34   S    
Cr11  O13   S    
O65   S6    D    
C72   H16   S    
C9    C31   A    
C33   H28   S    
Cr2   O6    S    
C15   C20   A    
C63   C67   A    
C50   C98   S    
C44   H35   S    
Cr7   O17   S    
C62   C66   A    
O71   S7    S    
C102  C103  A    
C77   O12   A    
O50   S1    D    
C12   C16   A    
O58   S3    S    
C35   C38   A    
C10   C14   A    
C68   H6    S    
Cr3   O29   S    
Cr12  O31   S    
C53   C57   A    
C53   H47   S    
Cr1   O36   S    
Cr3   O3    S    
O55   S3    D    
C68   C73   A    
C5    N2    T    
H39   O61   S    
C85   O76   A    
C56   C60   A    
C5    C64   S    
C48   O30   A    
C35   H30   S    
C13   H21   S    
C74   C91   S    
C19   C23   A    
C43   C44   A    
Cr9   O56   S    
C11   H19   S    
C90   O37   A    
C60   C81   S    
C17   O15   A    
C81   O46   A    
C41   H31   S    
C8    C12   A    
C79   O34   A    
C87   O3    A    
H40   O64   S    
C22   H26   S    
C54   C58   A    
C59   C64   A    
C91   O7    A    
C69   C74   A    
Cr6   O38   S    
C32   C37   A    
Cr6   O42   S    
Cr5   O37   S    
C103  H12   S    
C102  H1    S    
C26   S8    S    
C75   C92   S    
C57   H4    S    
Cr11  O75   S    
Cr12  O5    S    
Cr1   O9    S    
C80   O40   A    
Cr11  O26   S    
C60   C65   A    
O72   S8    D    
C79   O35   A    
Cr4   O4    S    
C22   C26   A    
C56   H3    S    
C83   H10   S    
C27   C76   S    
C45   C95   S    
C64   C68   A    
C72   C83   S    
C70   C75   A    
C91   O38   A    
C52   C56   A    
Cr1   O40   S    
Cr2   O32   S    
O68   S6    S    
C72   C100  S    
C62   C80   S    
C25   C30   A    
Cr9   O24   S    
O52   S2    D    
C6    N3    T    
C3    H34   S    
C48   C96   S    
C48   O26   A    
C18   C22   A    
C14   C19   A    
C47   O25   A    
O69   S7    D    
C38   C88   S    
C78   O23   A    
C10   H18   S    
C46   O24   A    
C50   H11   S    
C76   O31   A    
Cr2   O28   S    
C1    O14   A    
H41   O68   S    
C31   C79   S    
Cr10  O67   S    
O60   S4    D    
Cr11  O21   S    
H37   O54   S    
C90   O6    A    
C52   C74   A    
C47   C97   S    
C104  H23   S    
C72   H9    S    
C36   C86   S    
C32   C33   A    
C20   H24   S    
C24   S6    S    
C28   O16   A    
C8    C30   A    
C38   C43   A    
C23   S5    S    
C92   O39   A    
C7    C66   S    
C25   S7    S    
Cr5   O12   S    
Cr8   O45   S    
C15   C28   S    
C66   C70   A    
C46   C93   S    
Cr3   O7    S    
Cr6   O11   S    
C17   O19   A    
C19   H22   S    
C65   C69   A    
Cr4   O8    S    
C39   O17   A    
C100  C101  A    
Cr11  O48   S    
C51   H45   S    
C51   C55   A    
C2    S2    S    
C76   O1    A    
Cr10  O47   S    
C94   S1    S    
Cr7   O43   S    
C83   H17   S    
C97   C104  A    
C61   H15   S    
Cr8   O22   S    
C82   O47   A    
C30   C78   S    
C70   H8    S    
C45   O22   A    
C40   C44   A    
C89   O36   A    
C29   C77   S    
C21   H25   S    
C98   C99   A    
C49   C71   A    
Cr4   O13   S    
C46   O28   A    
Cr12  O27   S    
C50   C61   S    
C69   H7    S    
Cr7   O13   S    
C47   O29   A    
C27   C94   A    
O64   S5    S    
C54   H48   S    
C93   C98   A    
Cr2   O10   S    
C97   C101  A    
C84   O48   A    
C52   H46   S    
Cr8   O9    S    
C82   O42   A    
C55   H2    S    
O63   S5    D    
