data_mof_unit_32808.cif
_audit_creation_date              2013-03-05T16:42:22-0500
_audit_creation_method            fapswitch 2.2
_symmetry_space_group_name_H-M    P1
_symmetry_Int_Tables_number       1
_space_group_crystal_system       triclinic
_cell_length_a                    9.970549
_cell_length_b                    10.602842
_cell_length_c                    15.563721
_cell_angle_alpha                 90.763627
_cell_angle_beta                  67.307853
_cell_angle_gamma                 89.654036
_cell_volume                      1517.72655764

loop_
_atom_site_label
_atom_site_type_symbol
_atom_site_description
_atom_site_fract_x
_atom_site_fract_y
_atom_site_fract_z
_atom_type_partial_charge
O1    O     O_R   0.385310 0.683210 0.499990 -0.562912
O2    O     O_R   0.614650 0.683240 0.500000 -0.567178
C1    C     C_R   0.498639 0.739281 0.501496 0.948074
O3    O     O_R   0.319830 0.499970 0.632240 -0.600004
O4    O     O_R   0.549170 0.500000 0.632250 -0.595180
C2    C     C_R   0.408411 0.500088 0.675715 0.884570
Zn1   Zn    Zn3+2 0.346870 0.499980 0.499990 1.034905
Zn2   Zn    Zn3+2 0.653130 0.500020 0.500010 1.051262
O5    O     O_R   0.385350 0.316760 0.500000 -0.620007
O6    O     O_R   0.614690 0.316790 0.500010 -0.613830
O7    O     O_R   0.450830 0.500000 0.367750 -0.587691
O8    O     O_R   0.680170 0.500030 0.367760 -0.591768
C3    C     C_R   0.502367 0.260758 0.497264 0.850029
C4    C     C_R   0.592013 0.497383 0.324063 0.949727
C5    C     C_R   0.352405 0.504800 0.777214 -0.068067
C6    C     C_R   0.651074 0.481975 0.222225 -0.243736
C7    C     C_R   0.174584 0.567018 0.928148 -0.063769
C8    C     C_R   0.213989 0.552005 0.832178 -0.101596
C9    C     C_R   0.448779 0.471507 0.818333 -0.151299
C10   C     C_R   0.418127 0.498374 0.911934 0.125751
C11   C     C_R   0.276082 0.540888 0.968321 0.083593
C12   C     C_R   0.524140 0.481215 0.950841 0.022387
C13   C     C_R   0.482587 0.496504 0.048057 -0.045446
C14   C     C_R   0.332461 0.515169 0.104924 0.322685
C15   C     C_R   0.234442 0.548229 0.064456 -0.191415
C16   C     C_R   0.670905 0.450766 0.895384 -0.256763
C17   C     C_R   0.769087 0.415498 0.935380 0.516582
C18   C     C_R   0.725218 0.424133 0.032684 -0.093212
C19   C     C_R   0.591473 0.485633 0.085593 -0.108576
C20   C     C_R   0.812463 0.376966 0.078746 0.240622
C21   C     C_R   0.770870 0.401617 0.174620 0.102247
C22   C     C_R   0.572068 0.534633 0.174350 0.423685
H1    H     H_    0.121970 0.568863 0.108473 0.212537
H2    H     H_    0.065626 0.599847 0.970787 0.150979
H3    H     H_    0.137568 0.577757 0.801182 0.195485
H4    H     H_    0.548122 0.423912 0.775132 0.148331
H5    H     H_    0.712771 0.453084 0.820484 0.140382
C23   C     C_R   0.541945 0.937720 0.561045 0.056387
C24   C     C_R   0.500842 0.871100 0.498076 -0.214122
C25   C     C_R   0.481206 0.930622 0.424131 -0.066201
H6    H     H_    0.460305 0.876079 0.371259 0.217571
C26   C     C_R   0.488045 0.060874 0.418654 0.498128
C27   C     C_R   0.510777 0.128484 0.490663 -0.174814
C28   C     C_R   0.546713 0.066475 0.557114 0.085682
C29   C     C_3   0.480257 0.083965 0.660462 -0.500636
C30   C     C_3   0.470199 0.940732 0.665416 0.136888
H7    H     H_    0.558202 0.127937 0.686758 0.249268
H8    H     H_    0.372110 0.131872 0.684779 0.199583
H9    H     H_    0.356930 0.904944 0.692386 0.156557
C31   C     C_R   0.904126 0.596346 0.541417 -0.056220
N1    N     N_R   0.856900 0.500860 0.500610 -0.167135
C32   C     C_R   0.950742 0.400359 0.464653 0.498075
C33   C     C_R   0.092873 0.400166 0.464738 0.499505
N2    N     N_R   0.142540 0.500820 0.500610 -0.202075
C34   C     C_R   0.044644 0.595174 0.543041 -0.082586
C35   C     C_3   0.062197 0.734289 0.524018 0.601276
C36   C     C_3   0.909436 0.735669 0.522311 0.025604
H10   H     H_    0.827576 0.790261 0.580473 0.172962
N3    N     N_R   0.929403 0.289032 0.032735 0.285247
O9    O     O_R   0.056429 0.305058 0.036200 -0.315068
O10   O     O_R   0.904437 0.185544 0.995788 -0.274089
O11   O     O_3   0.469684 0.116889 0.344266 -0.661712
H11   H     H_    0.502891 0.205207 0.339537 0.332752
N4    N     N_R   0.560382 0.880476 0.708763 0.230220
O12   O     O_R   0.611959 0.944745 0.760751 -0.322599
O13   O     O_R   0.569568 0.758068 0.707643 -0.414030
O14   O     O_3   0.914933 0.301319 0.420436 -0.613214
H12   H     H_    0.847451 0.335438 0.394027 0.396633
O15   O     O_3   0.181690 0.299500 0.421969 -0.610658
H13   H     H_    0.280497 0.332610 0.391507 0.387846
N5    N     N_R   0.070414 0.808940 0.601599 0.224508
O16   O     O_R   0.060567 0.931290 0.600933 -0.308492
O17   O     O_R   0.097840 0.755569 0.668003 -0.409810
O18   O     O_3   0.480351 0.635931 0.215074 -0.714174
H14   H     H_    0.466727 0.685198 0.165303 0.350343
O19   O     O_3   0.174806 0.765255 0.438974 -0.676857
H15   H     H_    0.179874 0.700335 0.391331 0.379491
N6    N     N_R   0.909284 0.770209 0.431308 0.239727
O20   O     O_R   0.910059 0.685589 0.369800 -0.315546
O21   O     O_R   0.910423 0.888921 0.411087 -0.271561
N7    N     N_R   0.844968 0.337993 0.224012 0.228070
O22   O     O_R   0.965371 0.383933 0.224210 -0.288039
O23   O     O_R   0.809595 0.223079 0.251182 -0.328412
O24   O     O_3   0.910690 0.381418 0.879999 -0.727436
H16   H     H_    0.923468 0.380423 0.813574 0.339232
N8    N     N_R   0.274663 0.482078 0.201276 0.256112
O25   O     O_R   0.311687 0.374723 0.225692 -0.324504
O26   O     O_R   0.167693 0.546979 0.261345 -0.349058

loop_
_geom_bond_atom_site_label_1
_geom_bond_atom_site_label_2
_geom_bond_distance
_ccdc_geom_bond_type
C5    C8    1.398677 A    
C34   C35   1.506235 S    
C35   O19   1.410579 S    
C9    C10   1.393252 A    
C33   O15   1.371624 S    
N7    O22   1.299351 A    
C33   N2    1.378302 A    
C32   C33   1.417624 A    
C6    C21   1.410539 A    
C5    C9    1.390645 A    
C30   H9    1.113229 S    
C16   C17   1.399128 A    
O4    C2    1.301815 A    
C13   C19   1.422266 A    
C17   O24   1.383278 S    
C19   C22   1.410330 A    
C9    H4    1.076534 S    
C22   O18   1.383603 S    
C23   C24   1.386466 A    
O7    C4    1.305821 A    
N6    O21   1.300554 A    
C35   C36   1.533541 S    
O5    C3    1.291610 A    
C2    C5    1.458320 S    
O24   H16   0.991558 S    
C13   C14   1.425697 A    
C8    H3    1.082796 S    
C26   O11   1.381013 S    
C25   C26   1.385274 A    
C1    C24   1.399365 S    
N3    O9    1.300344 A    
O3    Zn1   1.970063 S    
N7    O23   1.300608 A    
C31   N1    1.367274 A    
C29   H7    1.110637 S    
N3    O10   1.301371 A    
O18   H14   0.991202 S    
O14   H12   0.983314 S    
C14   C15   1.396913 A    
O3    C2    1.303445 A    
C24   C25   1.397416 A    
N5    O17   1.301866 A    
N8    O25   1.300396 A    
C29   C30   1.523602 S    
C7    C11   1.407556 A    
N1    C32   1.375572 A    
C30   N4    1.464388 S    
O1    C1    1.288008 A    
N4    O13   1.299966 A    
Zn1   O7    1.914259 S    
C27   C28   1.389773 A    
C23   C28   1.367649 A    
O11   H11   0.989295 S    
Zn2   O8    1.970060 S    
C35   N5    1.463832 S    
C20   N3    1.437497 S    
C7    C8    1.396714 A    
O19   H15   0.991595 S    
Zn2   N1    2.035393 S    
C32   O14   1.370622 S    
C25   H6    1.084481 S    
O8    C4    1.302658 A    
C12   C16   1.415241 A    
C4    C6    1.468813 S    
C7    H2    1.083880 S    
C3    C27   1.404499 S    
C28   C29   1.492945 S    
C29   H8    1.112357 S    
Zn1   O5    1.977916 S    
C11   C15   1.390800 A    
N2    C34   1.364893 A    
C18   C19   1.417570 A    
O1    Zn1   1.982472 S    
C31   C36   1.507951 S    
C36   N6    1.468200 S    
O2    Zn2   1.977916 S    
C10   C12   1.418277 A    
O6    C3    1.285805 A    
O4    Zn2   1.914259 S    
C16   H5    1.076651 S    
C6    C22   1.395022 A    
C31   C34   1.410967 A    
C21   N7    1.427524 S    
N4    O12   1.301570 A    
C18   C20   1.416401 A    
O2    C1    1.289225 A    
N5    O16   1.300862 A    
N6    O20   1.301072 A    
C36   H10   1.109462 S    
C20   C21   1.406298 A    
N8    O26   1.299897 A    
O15   H13   0.983253 S    
C23   C30   1.501073 S    
C10   C11   1.414895 A    
Zn2   O6    1.982472 S    
C26   C27   1.413440 A    
C17   C18   1.406380 A    
C12   C13   1.412879 A    
Zn1   N2    2.033544 S    
C14   N8    1.433074 S    
C15   H1    1.083988 S    
