data_mof_unit_41986.cif
_audit_creation_date              2012-10-26T19:21:33-0400
_audit_creation_method            fapswitch 2.2
_symmetry_space_group_name_H-M    P1
_symmetry_Int_Tables_number       1
_space_group_crystal_system       triclinic
_cell_length_a                    9.789987
_cell_length_b                    11.071747
_cell_length_c                    15.835951
_cell_angle_alpha                 94.590454
_cell_angle_beta                  79.633648
_cell_angle_gamma                 111.346224
_cell_volume                      1572.44572289

loop_
_atom_site_label
_atom_site_type_symbol
_atom_type_description
_atom_site_fract_x
_atom_site_fract_y
_atom_site_fract_z
_atom_type_partial_charge
C1    C     C_R   0.557127 0.745308 0.504890 0.539218
C2    C     C_2   0.493662 0.061700 0.521073 0.103569
C3    C     C_2   0.922971 0.490485 0.492460 -0.009624
C4    C     C_2   0.077167 0.509745 0.507396 -0.010864
C5    C     C_R   0.412069 0.487073 0.662915 0.545346
C6    C     C_R   0.587340 0.511493 0.336696 0.553506
C7    C     C_R   0.357934 0.462457 0.755036 0.006596
C8    C     C_R   0.634509 0.506817 0.242521 0.007596
C9    C     C_R   0.161284 0.344527 0.866685 -0.121123
C10   C     C_R   0.828284 0.514978 0.121190 -0.140729
C11   C     C_R   0.209285 0.386094 0.782375 -0.185187
C12   C     C_R   0.442346 0.254675 0.496206 0.540137
C13   C     C_R   0.781443 0.518738 0.209449 -0.185109
C14   C     C_R   0.458511 0.501008 0.814527 0.123676
C15   C     C_R   0.531860 0.485722 0.184893 0.124007
C16   C     C_R   0.416163 0.441745 0.895694 0.029741
C17   C     C_R   0.574690 0.465583 0.096232 0.029840
C18   C     C_R   0.263175 0.370566 0.924013 0.056434
C19   C     C_R   0.727204 0.491943 0.063650 0.054041
C20   C     C_R   0.521133 0.454119 0.950451 0.008178
C21   C     C_R   0.470387 0.427250 0.038300 0.007744
C22   C     C_3   0.389041 0.631293 0.213719 -0.284916
C23   C     C_R   0.318677 0.354446 0.064685 -0.095250
C24   C     C_3   0.570450 0.734670 0.799402 -0.292938
C25   C     C_R   0.673310 0.480697 0.918897 -0.089522
C26   C     C_R   0.215321 0.324909 0.008583 0.094413
C27   C     C_R   0.775445 0.495290 0.974214 0.093077
C28   C     C_2   0.584272 0.882850 0.516093 -0.099443
C29   C     C_2   0.414295 0.116841 0.487234 -0.099492
C30   C     C_2   0.507197 0.939533 0.481618 0.106836
Cu1   Cu    Cu3+1 0.362980 0.479380 0.485080 0.927777
Cu2   Cu    Cu3+1 0.637020 0.520620 0.514920 0.930682
H1    H     H_    0.861895 0.534476 0.251853 0.132812
H2    H     H_    0.876969 0.423027 0.442420 0.149975
H3    H     H_    0.110915 0.385065 0.415425 0.195872
H4    H     H_    0.889041 0.614875 0.584614 0.196960
H5    H     H_    0.046977 0.214154 0.099075 0.221489
H6    H     H_    0.002647 0.313580 0.043801 0.241395
H7    H     H_    0.942823 0.503094 0.873177 0.224247
H8    H     H_    0.989476 0.615338 0.950869 0.229857
H9    H     H_    0.309882 0.433944 0.252451 0.260022
H10   H     H_    0.351225 0.658973 0.280182 0.163042
H11   H     H_    0.309086 0.632650 0.172564 0.143866
H12   H     H_    0.130045 0.356749 0.738151 0.136713
H13   H     H_    0.500148 0.703548 0.189323 0.146710
H14   H     H_    0.673345 0.602564 0.750864 0.266337
H15   H     H_    0.679553 0.815168 0.796207 0.142503
H16   H     H_    0.497730 0.746612 0.859523 0.157714
H17   H     H_    0.519962 0.740334 0.743068 0.137786
H18   H     H_    0.523848 0.046445 0.642377 0.202375
H19   H     H_    0.525699 0.190138 0.624880 0.245509
H20   H     H_    0.479740 0.958489 0.360256 0.204064
H21   H     H_    0.483253 0.816227 0.375688 0.234577
H22   H     H_    0.044735 0.287675 0.885601 0.163954
H23   H     H_    0.944372 0.530286 0.098419 0.142857
H24   H     H_    0.280405 0.313070 0.127876 0.121953
H25   H     H_    0.712723 0.481810 0.850664 0.124692
H26   H     H_    0.340750 0.064307 0.442219 0.108312
H27   H     H_    0.655519 0.933520 0.562616 0.104439
H28   H     H_    0.123246 0.577334 0.557355 0.151274
N1    N     N_2   0.842890 0.551600 0.537350 -0.351647
N2    N     N_2   0.157110 0.448400 0.462650 -0.353681
N3    N     N_3   0.061391 0.250313 0.037808 -0.641133
N4    N     N_3   0.928828 0.517647 0.939762 -0.654073
N5    N     N_2   0.392556 0.501769 0.212837 -0.522739
N6    N     N_2   0.591815 0.612071 0.799035 -0.526795
N7    N     N_3   0.563499 0.117752 0.595461 -0.615647
N8    N     N_3   0.440778 0.885369 0.405897 -0.622500
O1    O     O_R   0.426810 0.668300 0.492040 -0.474962
O2    O     O_R   0.573190 0.331700 0.507960 -0.474813
O3    O     O_R   0.658240 0.703130 0.517240 -0.493288
O4    O     O_R   0.341760 0.296870 0.482760 -0.494968
O5    O     O_R   0.319390 0.472820 0.610170 -0.502135
O6    O     O_R   0.680610 0.527180 0.389830 -0.501788
O7    O     O_R   0.550820 0.507640 0.635370 -0.500128
O8    O     O_R   0.449180 0.492360 0.364630 -0.489223

loop_
_geom_bond_atom_site_label_1
_geom_bond_atom_site_label_2
_ccdc_geom_bond_type
C8    C13   A    
C12   C29   S    
C18   C26   A    
Cu2   O7    S    
C23   H24   S    
C7    C11   A    
H7    N4    S    
C1    O3    A    
C2    C29   D    
Cu2   N1    S    
H14   N6    S    
Cu2   O6    S    
Cu1   O5    S    
C20   C25   A    
C15   N5    S    
C4    N2    D    
C23   C26   A    
H21   N8    S    
C7    C14   A    
Cu1   Cu2   S    
C1    C28   S    
C19   C27   A    
H18   N7    S    
H20   N8    S    
C24   N6    S    
C12   O4    A    
Cu1   N2    S    
C25   H25   S    
H5    N3    S    
C6    O6    A    
Cu2   O3    S    
C3    N1    D    
C24   H16   S    
C2    N7    S    
C5    C7    S    
Cu2   O2    S    
C6    C8    S    
C3    H2    S    
C1    O1    A    
C5    O7    A    
C26   N3    S    
C22   N5    S    
C13   H1    S    
C22   H11   S    
C10   C19   A    
C16   C20   A    
C4    H28   S    
C14   N6    S    
C11   H12   S    
H19   N7    S    
C20   C21   A    
C10   H23   S    
C9    C11   A    
Cu1   O4    S    
C8    C15   A    
C21   C23   A    
C14   C16   A    
H4    N1    S    
H6    N3    S    
C28   H27   S    
C24   H17   S    
C15   C17   A    
C12   O2    A    
C24   H15   S    
C10   C13   A    
H9    N5    S    
C6    O8    A    
C25   C27   A    
H8    N4    S    
C2    C30   S    
C28   C30   D    
Cu1   O8    S    
C22   H10   S    
C17   C19   A    
H3    N2    S    
C5    O5    A    
C17   C21   A    
C27   N4    S    
C9    C18   A    
Cu1   O1    S    
C22   H13   S    
C29   H26   S    
C16   C18   A    
C9    H22   S    
C30   N8    S    
C3    C4    S    
