data_mof_unit_11549.cif
_audit_creation_date              2012-12-11T15:29:46-0500
_audit_creation_method            fapswitch 2.2
_symmetry_space_group_name_H-M    P1
_symmetry_Int_Tables_number       1
_space_group_crystal_system       triclinic
_cell_length_a                    21.461132
_cell_length_b                    7.248205
_cell_length_c                    14.801184
_cell_angle_alpha                 89.995347
_cell_angle_beta                  74.138233
_cell_angle_gamma                 89.999977
_cell_volume                      2214.72734488

loop_
_atom_site_label
_atom_site_type_symbol
_atom_type_description
_atom_site_fract_x
_atom_site_fract_y
_atom_site_fract_z
_atom_type_partial_charge
O1    O     O_R   0.464160 0.506670 0.130070 -0.534749
O2    O     O_R   0.535840 0.006670 0.869930 -0.534743
O3    O     O_R   0.589710 0.179080 0.006710 -0.543906
O4    O     O_R   0.410290 0.679080 0.993290 -0.543902
C1    C     C_R   0.615363 0.344544 0.005741 0.669428
C2    C     C_R   0.384632 0.844546 0.994278 0.669444
O5    O     O_R   0.467940 0.177220 0.138010 -0.540259
O6    O     O_R   0.532060 0.677220 0.861990 -0.540245
O7    O     O_R   0.413200 0.002810 0.002170 -0.538793
O8    O     O_R   0.586800 0.502810 0.997830 -0.538796
C3    C     C_R   0.455861 0.345232 0.174461 0.686493
C4    C     C_R   0.544148 0.845245 0.825540 0.686520
O9    O     O_3   0.482180 0.337850 0.955280 -0.378569
O10   O     O_3   0.517820 0.837850 0.044720 -0.378581
V1    V     V_3+5 0.503310 0.064600 0.008300 1.408596
V2    V     V_3+5 0.496690 0.564600 0.991700 1.408597
C5    C     C_R   0.572143 0.850518 0.723640 -0.022757
C6    C     C_R   0.427865 0.350464 0.276358 -0.022733
C7    C     C_R   0.929689 0.870220 0.276295 -0.029547
C8    C     C_R   0.070327 0.370284 0.723706 -0.029631
C9    C     C_R   0.561293 0.800059 0.567697 -0.141959
C10   C     C_R   0.438709 0.300012 0.432309 -0.141935
C11   C     C_R   0.533506 0.813283 0.664050 -0.193988
C12   C     C_R   0.466499 0.313236 0.335955 -0.194056
C13   C     C_R   0.638869 0.875428 0.686770 -0.200076
C14   C     C_R   0.361138 0.375324 0.313216 -0.200100
C15   C     C_R   0.668841 0.862890 0.588757 0.036638
C16   C     C_R   0.331159 0.362760 0.411227 0.036619
C17   C     C_R   0.628628 0.822679 0.529028 0.104874
C18   C     C_R   0.371372 0.322616 0.470969 0.104922
C19   C     C_R   0.737311 0.884617 0.548843 0.011953
C20   C     C_R   0.262686 0.384438 0.451130 0.011786
C21   C     C_R   0.765145 0.852111 0.451141 0.023161
C22   C     C_R   0.234857 0.352053 0.548845 0.023189
C23   C     C_R   0.723224 0.812876 0.394740 -0.265407
C24   C     C_R   0.276779 0.312922 0.605260 -0.265399
C25   C     C_R   0.656242 0.801880 0.431925 0.271549
C26   C     C_R   0.343759 0.301895 0.568076 0.271491
C27   C     C_R   0.778476 0.940839 0.603552 -0.180711
C28   C     C_R   0.221512 0.440466 0.396394 -0.180579
C29   C     C_R   0.845296 0.963464 0.565695 -0.029259
C30   C     C_R   0.154694 0.463190 0.434251 -0.029232
C31   C     C_R   0.873329 0.930008 0.469197 0.053930
C32   C     C_R   0.126676 0.429976 0.530783 0.053781
C33   C     C_R   0.833772 0.867856 0.411852 0.096740
C34   C     C_R   0.166233 0.367833 0.588136 0.096771
C35   C     C_R   0.939764 0.965346 0.427327 -0.182233
C36   C     C_R   0.060257 0.465479 0.572673 -0.182292
C37   C     C_R   0.966953 0.939172 0.331932 -0.151257
C38   C     C_R   0.033078 0.439355 0.668075 -0.151004
C39   C     C_R   0.864400 0.829516 0.315912 -0.212398
C40   C     C_R   0.135608 0.329512 0.684084 -0.212405
H1    H     H_    0.838726 0.775410 0.268577 0.095041
H2    H     H_    0.161277 0.275330 0.731413 0.095036
H3    H     H_    0.017025 0.976952 0.300794 0.108143
H4    H     H_    0.983023 0.477250 0.699224 0.108128
H5    H     H_    0.529763 0.768069 0.523872 0.157561
H6    H     H_    0.470236 0.268047 0.476143 0.157577
H7    H     H_    0.481893 0.791368 0.692419 0.103968
H8    H     H_    0.518114 0.291345 0.307594 0.103973
H9    H     H_    0.665935 0.895499 0.737446 0.108625
H10   H     H_    0.334084 0.395419 0.262529 0.108581
H11   H     H_    0.740430 0.797056 0.319773 0.121046
H12   H     H_    0.259574 0.297227 0.680236 0.121057
H13   H     H_    0.759646 0.972073 0.676956 0.176947
H14   H     H_    0.240332 0.471471 0.322962 0.177141
H15   H     H_    0.971234 0.022560 0.465812 0.104966
H16   H     H_    0.028791 0.522783 0.534206 0.104964
C41   C     C_3   0.220237 0.664919 0.960337 0.271332
C42   C     C_3   0.779773 0.164869 0.039607 0.271503
C43   C     C_3   0.295343 0.679333 0.943474 -0.328848
C44   C     C_3   0.704665 0.179251 0.056491 -0.328816
H17   H     H_    0.320157 0.690761 0.867243 0.124857
H18   H     H_    0.679855 0.190561 0.132727 0.124833
H19   H     H_    0.315224 0.549858 0.964579 0.173171
H20   H     H_    0.684790 0.049806 0.035351 0.173204
H21   H     H_    0.169182 0.772653 0.147674 0.171422
H22   H     H_    0.830827 0.273005 0.852275 0.171484
H23   H     H_    0.277955 0.733112 0.135608 0.160287
H24   H     H_    0.722044 0.233264 0.864393 0.160284
C45   C     C_3   0.197273 0.882884 0.102693 0.100585
C46   C     C_3   0.802708 0.383091 0.897325 0.100769
C47   C     C_3   0.226539 0.024507 0.942142 -0.298344
C48   C     C_3   0.773448 0.524427 0.057928 -0.298342
C49   C     C_3   0.187894 0.859711 0.000722 -0.026345
C50   C     C_3   0.812102 0.359728 0.999283 -0.026451
H25   H     H_    0.205223 0.157109 0.972709 0.175837
H26   H     H_    0.794755 0.657098 0.027421 0.175696
H27   H     H_    0.222671 0.031052 0.869540 0.119999
H28   H     H_    0.777316 0.530832 0.130531 0.120026
C51   C     C_3   0.313865 0.850883 0.994202 0.008232
C52   C     C_3   0.686128 0.350874 0.005821 0.008251
C53   C     C_3   0.270839 0.859695 0.097199 -0.265352
C54   C     C_3   0.729144 0.359814 0.902828 -0.265421
C55   C     C_3   0.298758 0.023041 0.941796 -0.325814
C56   C     C_3   0.701229 0.522961 0.058272 -0.325802
H29   H     H_    0.329945 0.024370 0.868098 0.116633
H30   H     H_    0.670042 0.524189 0.131970 0.116597
H31   H     H_    0.309687 0.151145 0.976053 0.189220
H32   H     H_    0.690294 0.651111 0.024048 0.189176
H33   H     H_    0.288236 0.976718 0.132344 0.158133
H34   H     H_    0.711721 0.476853 0.867715 0.158184
O11   O     O_R   0.913210 0.208550 0.002110 -0.529888
O12   O     O_R   0.086790 0.708550 0.997890 -0.529903
O13   O     O_R   0.032060 0.539960 0.861980 -0.532985
O14   O     O_R   0.967940 0.039960 0.138020 -0.532962
C57   C     C_R   0.044040 0.372974 0.825562 0.703109
C58   C     C_R   0.955971 0.872956 0.174439 0.703135
O15   O     O_R   0.910290 0.538020 0.993280 -0.556519
O16   O     O_R   0.089710 0.038020 0.006720 -0.556525
O17   O     O_R   0.964160 0.712340 0.130090 -0.539526
O18   O     O_R   0.035840 0.212340 0.869910 -0.539544
C59   C     C_R   0.883943 0.369390 0.997580 0.645673
C60   C     C_R   0.116057 0.869386 0.002416 0.645649
O19   O     O_3   0.017820 0.379210 0.044690 -0.382398
O20   O     O_3   0.982180 0.879210 0.955310 -0.382439
V3    V     V_3+5 0.996690 0.652500 0.991710 1.405281
V4    V     V_3+5 0.003310 0.152500 0.008290 1.405303
N1    N     N_2   0.616833 0.766739 0.370366 -0.528671
H35   H     H_    0.637541 0.676913 0.316414 0.249484
C61   C     C_3   0.592693 0.931765 0.336476 -0.574499
H36   H     H_    0.559764 0.892957 0.293324 0.206620
H37   H     H_    0.633569 0.013791 0.292360 0.188860
H38   H     H_    0.565049 0.017575 0.396228 0.207194
N2    N     N_2   0.383168 0.266839 0.629646 -0.528707
H39   H     H_    0.362469 0.176997 0.683588 0.249545
C62   C     C_3   0.407244 0.431880 0.663565 -0.574880
H40   H     H_    0.440156 0.393180 0.706758 0.206645
H41   H     H_    0.366343 0.513785 0.707627 0.188972
H42   H     H_    0.434878 0.517721 0.603853 0.207318
C63   C     C_2   0.193608 0.511207 0.032247 0.260223
H43   H     H_    0.146647 0.451017 0.036759 0.113686
O21   O     O_2   0.223703 0.451441 0.085138 -0.534379
C64   C     C_2   0.806409 0.011285 0.967638 0.259905
H44   H     H_    0.853381 0.951120 0.963087 0.113645
O22   O     O_2   0.776306 0.951586 0.914745 -0.534575
N3    N     N_2   0.205769 0.602340 0.873618 -0.532938
H45   H     H_    0.222954 0.471308 0.853244 0.230890
C65   C     C_3   0.210995 0.722238 0.793626 -0.527047
H46   H     H_    0.205460 0.639470 0.733214 0.196759
H47   H     H_    0.259162 0.789694 0.771557 0.181274
H48   H     H_    0.170929 0.824002 0.809161 0.198433
N4    N     N_2   0.794254 0.102150 0.126299 -0.532893
H49   H     H_    0.777087 0.971075 0.146626 0.230892
C66   C     C_3   0.789013 0.221912 0.206334 -0.527039
H50   H     H_    0.794544 0.139046 0.266721 0.196748
H51   H     H_    0.740842 0.289335 0.228420 0.181270
H52   H     H_    0.829072 0.323698 0.190843 0.198456
N5    N     N_2   0.173438 0.058752 0.147343 -0.480102
H53   H     H_    0.132904 0.110065 0.132047 0.268516
C67   C     C_3   0.166039 0.068532 0.247591 -0.482795
H54   H     H_    0.147932 0.206888 0.273477 0.212467
H55   H     H_    0.212829 0.046650 0.264247 0.203606
H56   H     H_    0.130500 0.964354 0.285375 0.193776
N6    N     N_2   0.826475 0.559105 0.852777 -0.480231
H57   H     H_    0.866977 0.610555 0.868108 0.268541
C68   C     C_3   0.833842 0.569197 0.752545 -0.482878
H58   H     H_    0.851366 0.708082 0.726919 0.212829
H59   H     H_    0.787196 0.545779 0.735791 0.203553
H60   H     H_    0.869772 0.466247 0.714621 0.193626
C69   C     C_2   0.884680 0.019509 0.629934 0.310135
H61   H     H_    0.936002 0.990356 0.613667 0.053114
O23   O     O_2   0.859441 0.095088 0.704535 -0.545911
C70   C     C_2   0.115298 0.518986 0.369971 0.309754
H62   H     H_    0.063925 0.490456 0.386435 0.053188
O24   O     O_2   0.140583 0.593562 0.295086 -0.545755

loop_
_geom_bond_atom_site_label_1
_geom_bond_atom_site_label_2
_ccdc_geom_bond_type
C47   H25   S    
C3    C6    S    
C68   H58   S    
C46   C54   S    
C29   C69   S    
N6    C68   S    
C44   H18   S    
C21   C33   A    
C57   O18   A    
O1    C3    A    
C44   H20   S    
O2    C4    A    
O16   V4    S    
C2    O7    A    
C69   H61   S    
O15   V3    S    
C35   C37   A    
C11   H7    S    
O13   C57   A    
C42   N4    S    
C5    C11   A    
C48   H28   S    
C50   C59   S    
C6    C12   A    
C70   H62   S    
O11   C59   A    
C48   C50   S    
H23   C53   S    
N5    C67   S    
C44   C52   S    
C65   H48   S    
C30   C70   S    
C15   C17   A    
C33   C39   A    
C55   H31   S    
C2    C51   S    
C34   C40   A    
C52   C56   S    
C45   C53   S    
O20   V3    S    
C18   C26   A    
C48   C56   S    
C67   H56   S    
C41   C43   S    
H22   C46   S    
C61   H38   S    
C8    C38   A    
C66   H51   S    
C32   C34   A    
C56   H30   S    
C4    C5    S    
C67   H54   S    
C19   C21   A    
C62   H40   S    
C22   C34   A    
O16   C60   A    
O6    C4    A    
C8    C57   S    
C7    C58   S    
C46   C50   S    
C36   C38   A    
C68   H59   S    
C28   H14   S    
O14   V4    S    
C67   H55   S    
C29   C31   A    
O13   V3    S    
C30   C32   A    
C35   H15   S    
C69   O23   D    
C40   H2    S    
C66   H50   S    
N1    C61   S    
C41   N3    S    
C47   H27   S    
C65   H46   S    
C15   C19   A    
C16   C20   A    
C27   C29   A    
C53   H33   S    
C43   H17   S    
C64   O22   D    
C63   O21   D    
C37   H3    S    
C9    C17   A    
C51   C53   S    
C38   H4    S    
C39   H1    S    
C20   C22   A    
O4    V2    S    
O5    C3    A    
C62   H41   S    
C9    H5    S    
C7    C39   A    
O18   V4    S    
N3    C65   S    
C7    C37   A    
C25   N1    S    
H21   C45   S    
C41   C63   S    
O19   V4    S    
C47   C55   S    
C6    C14   A    
C52   C54   S    
O1    V2    S    
C13   H9    S    
C36   H16   S    
O2    V1    S    
C31   C33   A    
C61   H36   S    
O12   C60   A    
C46   N6    S    
O4    C2    A    
C47   C49   S    
C68   H60   S    
C9    C11   A    
N2    H39   S    
C10   C12   A    
O11   V4    S    
H24   C54   S    
C63   H43   S    
C42   C50   S    
C26   N2    S    
C41   C49   S    
C66   H52   S    
C42   C64   S    
O12   V3    S    
N4    C66   S    
C49   C60   S    
C10   C18   A    
C23   C25   A    
C48   H26   S    
C28   C30   A    
O3    C1    A    
C10   H6    S    
C42   C44   S    
N1    H35   S    
C55   H29   S    
C64   H44   S    
O15   C59   A    
C13   C15   A    
N3    H45   S    
C27   H13   S    
C14   C16   A    
C58   O17   A    
O17   V3    S    
C5    C13   A    
C70   O24   D    
C14   H10   S    
C62   H42   S    
C16   C18   A    
C8    C40   A    
O8    V2    S    
N5    H53   S    
C24   C26   A    
C43   H19   S    
C65   H47   S    
O14   C58   A    
C45   N5    S    
C56   H32   S    
O5    V1    S    
C21   C23   A    
C19   C27   A    
C22   C24   A    
C20   C28   A    
O7    V1    S    
C61   H37   S    
C1    C52   S    
C51   C55   S    
C32   C36   A    
C1    O8    A    
C43   C51   S    
C54   H34   S    
O6    V2    S    
O9    V2    S    
C17   C25   A    
N6    H57   S    
N2    C62   S    
O10   V1    S    
O3    V1    S    
C23   H11   S    
C12   H8    S    
C24   H12   S    
C31   C35   A    
C45   C49   S    
N4    H49   S    
