data_mof_unit_62540.cif
_audit_creation_date              2012-12-10T18:59:17-0500
_audit_creation_method            fapswitch 2.2
_symmetry_space_group_name_H-M    P1
_symmetry_Int_Tables_number       1
_space_group_crystal_system       triclinic
_cell_length_a                    43.986179
_cell_length_b                    30.258033
_cell_length_c                    30.266118
_cell_angle_alpha                 89.999638
_cell_angle_beta                  133.541385
_cell_angle_gamma                 89.998772
_cell_volume                      29199.6710057

loop_
_atom_site_label
_atom_site_type_symbol
_atom_type_description
_atom_site_fract_x
_atom_site_fract_y
_atom_site_fract_z
_atom_type_partial_charge
C1    C     C_R   0.499968 0.999961 0.586321 0.880414
C2    C     C_R   0.500033 0.999961 0.413679 0.881820
C3    C     C_R   0.999969 0.499961 0.586322 0.879963
C4    C     C_R   0.000031 0.499961 0.413677 0.881523
C5    C     C_3   0.226156 0.006293 0.179255 0.095602
C6    C     C_3   0.773818 0.011611 0.819712 0.095447
C7    C     C_3   0.726118 0.499135 0.178830 0.095701
C8    C     C_3   0.273850 0.505166 0.820889 0.095627
C9    C     C_3   0.274326 0.012210 0.228614 -0.413901
C10   C     C_3   0.725649 0.017370 0.769652 -0.413818
C11   C     C_3   0.774291 0.505139 0.227240 -0.413719
C12   C     C_3   0.225678 0.511105 0.771679 -0.413857
C13   C     C_1   0.162934 0.001307 0.163512 -0.021661
C14   C     C_1   0.837065 0.001221 0.836394 -0.021600
C15   C     C_1   0.662934 0.501399 0.163382 -0.021734
C16   C     C_1   0.337065 0.501322 0.836507 -0.021656
C17   C     C_1   0.337034 0.000938 0.337751 0.003953
C18   C     C_1   0.662965 0.000875 0.662095 0.004018
C19   C     C_1   0.837033 0.500996 0.337535 0.003940
C20   C     C_1   0.162966 0.500945 0.662282 0.003949
C21   C     C_1   0.374520 0.000201 0.374833 -0.136732
C22   C     C_1   0.625479 0.000185 0.625102 -0.136790
C23   C     C_1   0.874520 0.500214 0.374742 -0.136671
C24   C     C_1   0.125480 0.500200 0.625181 -0.136739
C25   C     C_R   0.506379 0.038588 0.709995 -0.216191
C26   C     C_R   0.493625 0.038592 0.290009 -0.215310
C27   C     C_R   0.006393 0.538586 0.710009 -0.216583
C28   C     C_R   0.993604 0.538589 0.289989 -0.215670
C29   C     C_R   0.506202 0.039084 0.664034 -0.169427
C30   C     C_R   0.493802 0.039087 0.335970 -0.167682
C31   C     C_R   0.006215 0.539082 0.664047 -0.169792
C32   C     C_R   0.993783 0.539084 0.335951 -0.167793
C33   C     C_R   0.499897 0.999691 0.634302 -0.088336
C34   C     C_R   0.500104 0.999692 0.365699 -0.088447
C35   C     C_R   0.999901 0.499691 0.634306 -0.088476
C36   C     C_R   0.000099 0.499692 0.365694 -0.088676
C37   C     C_R   0.493711 0.959833 0.650878 -0.214035
C38   C     C_R   0.506289 0.959835 0.349121 -0.213488
C39   C     C_R   0.993708 0.459834 0.650875 -0.214280
C40   C     C_R   0.006294 0.459836 0.349126 -0.213770
C41   C     C_R   0.493621 0.959236 0.696632 0.291213
C42   C     C_R   0.506380 0.959238 0.303368 0.291479
C43   C     C_R   0.993618 0.459237 0.696629 0.291360
C44   C     C_R   0.006383 0.459240 0.303372 0.291650
C45   C     C_R   0.418942 0.000015 0.418944 0.900833
C46   C     C_R   0.581058 0.000013 0.581058 0.901243
C47   C     C_R   0.918942 0.500016 0.418947 0.900549
C48   C     C_R   0.081058 0.500014 0.581055 0.900780
C49   C     C_R   0.499922 0.998866 0.726071 0.017613
C50   C     C_R   0.500081 0.998870 0.273931 0.017406
C51   C     C_R   0.999927 0.498866 0.726076 0.017649
C52   C     C_R   0.000073 0.498869 0.273923 0.017396
C53   C     C_R   0.462153 0.994019 0.758789 -0.107644
C54   C     C_R   0.537849 0.994025 0.241213 -0.107191
C55   C     C_R   0.962155 0.494025 0.758790 -0.108366
C56   C     C_R   0.037845 0.494028 0.241210 -0.107955
C57   C     C_R   0.462132 0.994327 0.804563 -0.176139
C58   C     C_R   0.537869 0.994331 0.195438 -0.176109
C59   C     C_R   0.962133 0.494332 0.804563 -0.176044
C60   C     C_R   0.037867 0.494335 0.195438 -0.176015
C61   C     C_R   0.499935 0.999962 0.865456 -0.046483
C62   C     C_R   0.500066 0.999963 0.134544 -0.046632
C63   C     C_R   0.999936 0.499963 0.865457 -0.046557
C64   C     C_R   0.000064 0.499964 0.134543 -0.046710
C65   C     C_R   0.537681 0.005576 0.880082 -0.186809
C66   C     C_R   0.462319 0.005576 0.119918 -0.186611
C67   C     C_R   0.037683 0.505572 0.880085 -0.186789
C68   C     C_R   0.962316 0.505574 0.119914 -0.186588
C69   C     C_R   0.537589 0.005500 0.834184 -0.143276
C70   C     C_R   0.462412 0.005501 0.165817 -0.142963
C71   C     C_R   0.037593 0.505495 0.834189 -0.142658
C72   C     C_R   0.962407 0.505498 0.165810 -0.142263
C73   C     C_R   0.499889 0.999415 0.773779 0.137189
C74   C     C_R   0.500113 0.999420 0.226223 0.136906
C75   C     C_R   0.999893 0.499415 0.773783 0.137069
C76   C     C_R   0.000107 0.499419 0.226217 0.136792
C77   C     C_R   0.999999 0.913833 0.999999 0.851938
C78   C     C_R   0.499999 0.413831 0.999999 0.852561
C79   C     C_R   0.081046 0.000104 0.081093 0.903483
C80   C     C_R   0.918954 0.000106 0.918905 0.904197
C81   C     C_R   0.581046 0.500104 0.081092 0.902640
C82   C     C_R   0.418954 0.500104 0.918907 0.903261
C83   C     C_R   0.000002 0.086381 0.000001 0.909037
C84   C     C_R   0.499999 0.586382 0.999999 0.906714
C85   C     C_3   0.274551 0.956638 0.291185 -0.481236
C86   C     C_3   0.725454 0.955032 0.713867 -0.481235
C87   C     C_3   0.774561 0.459630 0.297537 -0.481383
C88   C     C_3   0.225452 0.457038 0.707785 -0.481192
C89   C     C_R   0.499999 0.086444 0.999999 0.871698
C90   C     C_R   0.999999 0.586446 0.999999 0.871613
C91   C     C_R   0.499983 0.999977 0.913520 0.873165
C92   C     C_R   0.500017 0.999977 0.086480 0.873242
C93   C     C_R   0.999983 0.499977 0.913520 0.873164
C94   C     C_R   0.000017 0.499977 0.086480 0.873287
C95   C     C_R   0.500001 0.913658 0.000001 0.906150
C96   C     C_R   0.000001 0.413657 0.000011 0.906178
C97   C     C_R   0.987697 0.796996 0.025686 -0.171200
C98   C     C_R   0.012292 0.796994 0.974306 -0.171265
C99   C     C_R   0.487928 0.296988 0.025999 -0.170992
C100  C     C_R   0.512060 0.296986 0.973992 -0.171014
C101  C     C_R   0.987947 0.842807 0.026047 -0.184595
C102  C     C_R   0.012044 0.842804 0.973946 -0.184243
C103  C     C_R   0.488176 0.342798 0.026354 -0.184019
C104  C     C_R   0.511815 0.342795 0.973637 -0.183468
C105  C     C_R   0.999997 0.865864 0.999997 -0.030528
C106  C     C_R   0.499997 0.365858 0.999997 -0.031176
C107  C     C_R   0.999995 0.774097 0.999996 0.106371
C108  C     C_R   0.499994 0.274088 0.999996 0.106096
C109  C     C_R   0.536212 0.203260 0.023761 -0.169126
C110  C     C_R   0.463780 0.203260 0.976236 -0.169261
C111  C     C_R   0.036291 0.703269 0.024090 -0.169419
C112  C     C_R   0.963702 0.703269 0.975908 -0.169518
C113  C     C_R   0.536315 0.157450 0.024127 -0.185188
C114  C     C_R   0.463680 0.157450 0.975870 -0.185190
C115  C     C_R   0.036391 0.657459 0.024451 -0.185289
C116  C     C_R   0.963604 0.657459 0.975546 -0.185280
C117  C     C_R   0.499998 0.134400 0.999998 -0.035656
C118  C     C_R   0.999998 0.634406 0.999998 -0.035759
C119  C     C_3   0.274938 0.038256 0.308846 0.135680
C120  C     C_3   0.725082 0.034141 0.687005 0.135414
C121  C     C_3   0.774966 0.542923 0.302685 0.136043
C122  C     C_3   0.225054 0.539056 0.692071 0.135688
C123  C     C_R   0.499996 0.226159 0.999998 0.107397
C124  C     C_R   0.999996 0.726168 0.999999 0.107471
C125  C     C_R   0.018537 0.202959 0.053888 0.266553
C126  C     C_R   0.981506 0.202958 0.946125 0.266752
C127  C     C_R   0.518529 0.702959 0.053885 0.265866
C128  C     C_R   0.481468 0.702960 0.946110 0.266072
C129  C     C_R   0.018036 0.157128 0.053387 -0.205237
C130  C     C_R   0.981992 0.157127 0.946624 -0.204366
C131  C     C_R   0.518033 0.657128 0.053384 -0.206683
C132  C     C_R   0.481964 0.657128 0.946612 -0.206252
C133  C     C_R   0.000008 0.134226 0.000004 -0.136760
C134  C     C_R   0.499999 0.634227 0.999998 -0.137251
C135  C     C_R   0.000023 0.226005 0.000006 -0.052555
C136  C     C_R   0.499999 0.726008 0.999997 -0.052343
C137  C     C_R   0.476123 0.796582 0.007300 -0.073703
C138  C     C_R   0.523876 0.796580 0.992697 -0.074607
C139  C     C_R   0.976072 0.296567 0.007184 -0.073167
C140  C     C_R   0.023938 0.296582 0.992795 -0.074103
C141  C     C_R   0.476123 0.842565 0.008029 0.122884
C142  C     C_R   0.523878 0.842564 0.991973 0.123388
C143  C     C_R   0.976058 0.342552 0.007905 0.122650
C144  C     C_R   0.023936 0.342565 0.992072 0.123094
C145  C     C_R   0.500001 0.865698 0.000002 -0.060441
C146  C     C_R   0.000001 0.365694 0.000003 -0.060489
C147  C     C_R   0.499999 0.773928 0.999997 0.078063
C148  C     C_R   0.000013 0.273923 0.999998 0.077702
C149  C     C_3   0.225778 0.041028 0.257010 -0.065352
C150  C     C_3   0.774240 0.037196 0.738545 -0.065817
C151  C     C_3   0.725803 0.545273 0.250512 -0.064695
C152  C     C_3   0.274214 0.541767 0.743964 -0.065232
C153  C     C_1   0.125452 0.000612 0.125647 -0.151721
C154  C     C_1   0.874547 0.000576 0.874332 -0.151818
C155  C     C_1   0.625452 0.500652 0.125621 -0.151511
C156  C     C_1   0.374547 0.500619 0.874356 -0.151601
C157  C     C_3   0.291308 0.002277 0.292617 0.148434
C158  C     C_3   0.708692 0.002130 0.707103 0.148589
C159  C     C_3   0.791308 0.502422 0.292224 0.148179
C160  C     C_3   0.208692 0.502300 0.707443 0.148426
C161  C     C_3   0.225831 0.957208 0.245492 -0.069824
C162  C     C_3   0.774175 0.955243 0.759545 -0.069373
C163  C     C_3   0.725844 0.460667 0.251766 -0.070236
C164  C     C_3   0.274171 0.457684 0.753484 -0.069904
C165  C     C_3   0.208752 0.002363 0.210046 0.199877
C166  C     C_3   0.791248 0.002197 0.789720 0.199918
C167  C     C_3   0.708752 0.502536 0.209716 0.199706
C168  C     C_3   0.291248 0.502392 0.790003 0.199750
H1    H     H_    0.284424 0.930739 0.277082 0.181873
H2    H     H_    0.715567 0.932046 0.730755 0.181640
H3    H     H_    0.784416 0.430399 0.287596 0.182173
H4    H     H_    0.215584 0.430567 0.721271 0.181922
H5    H     H_    0.213695 0.930156 0.211841 0.171476
H6    H     H_    0.786299 0.930821 0.796138 0.171469
H7    H     H_    0.713690 0.430679 0.222437 0.171612
H8    H     H_    0.286313 0.430121 0.786488 0.171470
H9    H     H_    0.511301 0.069150 0.732861 0.157657
H10   H     H_    0.488705 0.069155 0.267145 0.157852
H11   H     H_    0.011321 0.569147 0.732881 0.157569
H12   H     H_    0.988675 0.569150 0.267115 0.157817
H13   H     H_    0.511211 0.070145 0.652065 0.173048
H14   H     H_    0.488794 0.070148 0.347941 0.173429
H15   H     H_    0.011231 0.570142 0.652084 0.173149
H16   H     H_    0.988765 0.570143 0.347913 0.173658
H17   H     H_    0.488876 0.929142 0.628338 0.190942
H18   H     H_    0.511123 0.929142 0.371660 0.190939
H19   H     H_    0.988866 0.429144 0.628328 0.190970
H20   H     H_    0.011137 0.429145 0.371675 0.190968
H21   H     H_    0.432930 0.989529 0.711815 0.152055
H22   H     H_    0.567073 0.989537 0.288187 0.152434
H23   H     H_    0.932932 0.489539 0.711815 0.151626
H24   H     H_    0.067068 0.489542 0.288185 0.151958
H25   H     H_    0.432684 0.989917 0.792363 0.164780
H26   H     H_    0.567318 0.989922 0.207638 0.164847
H27   H     H_    0.932684 0.489927 0.792361 0.164719
H28   H     H_    0.067316 0.489929 0.207640 0.164778
H29   H     H_    0.567150 0.010143 0.926787 0.162141
H30   H     H_    0.432849 0.010140 0.073213 0.162310
H31   H     H_    0.067153 0.510134 0.926792 0.162356
H32   H     H_    0.932847 0.510136 0.073207 0.162543
H33   H     H_    0.288975 0.947641 0.337923 0.204283
H34   H     H_    0.711045 0.942401 0.668376 0.204480
H35   H     H_    0.789010 0.455617 0.345277 0.203971
H36   H     H_    0.211024 0.448816 0.660835 0.204216
H37   H     H_    0.566787 0.009803 0.845609 0.145786
H38   H     H_    0.433213 0.009802 0.154392 0.146223
H39   H     H_    0.066792 0.509793 0.845616 0.146366
H40   H     H_    0.933207 0.509797 0.154382 0.146871
H41   H     H_    0.978358 0.779391 0.045919 0.139433
H42   H     H_    0.021631 0.779387 0.954073 0.139489
H43   H     H_    0.478772 0.279382 0.046477 0.139661
H44   H     H_    0.521216 0.279378 0.953513 0.139778
H45   H     H_    0.978396 0.860131 0.046146 0.160493
H46   H     H_    0.021597 0.860127 0.953848 0.160834
H47   H     H_    0.478807 0.360117 0.046702 0.161114
H48   H     H_    0.521185 0.360113 0.953291 0.161585
H49   H     H_    0.564401 0.220866 0.042504 0.138590
H50   H     H_    0.435591 0.220866 0.957494 0.138445
H51   H     H_    0.064540 0.720876 0.043091 0.138403
H52   H     H_    0.935453 0.720876 0.956908 0.138315
H53   H     H_    0.564580 0.140116 0.042736 0.157918
H54   H     H_    0.435416 0.140115 0.957261 0.157909
H55   H     H_    0.064719 0.640129 0.043320 0.158012
H56   H     H_    0.935276 0.640129 0.956677 0.158020
H57   H     H_    0.032452 0.139414 0.094976 0.191843
H58   H     H_    0.967570 0.139413 0.905034 0.191950
H59   H     H_    0.532461 0.639413 0.094976 0.191981
H60   H     H_    0.467536 0.639415 0.905020 0.192051
H61   H     H_    0.457821 0.778147 0.012898 0.164133
H62   H     H_    0.542177 0.778144 0.987097 0.163620
H63   H     H_    0.957735 0.278120 0.012711 0.164499
H64   H     H_    0.042282 0.278152 0.987271 0.164058
H65   H     H_    0.283331 0.027582 0.351334 0.118491
H66   H     H_    0.716714 0.019636 0.645979 0.118567
H67   H     H_    0.783392 0.537527 0.346420 0.118512
H68   H     H_    0.216657 0.529201 0.649330 0.118469
H69   H     H_    0.213443 0.035781 0.278617 0.157262
H70   H     H_    0.786600 0.028110 0.717792 0.157148
H71   H     H_    0.713502 0.545212 0.272568 0.157406
H72   H     H_    0.286544 0.537334 0.722231 0.157278
H73   H     H_    0.288920 0.989558 0.218642 0.169330
H74   H     H_    0.711038 0.997681 0.782027 0.168975
H75   H     H_    0.788860 0.479025 0.220937 0.169864
H76   H     H_    0.211091 0.487867 0.781113 0.169437
H77   H     H_    0.282923 0.046463 0.227505 0.248974
H78   H     H_    0.717054 0.052514 0.766777 0.249231
H79   H     H_    0.782886 0.537528 0.221055 0.248680
H80   H     H_    0.217080 0.545120 0.773606 0.248898
H81   H     H_    0.219378 0.974768 0.154868 0.130940
H82   H     H_    0.780579 0.982300 0.847571 0.131153
H83   H     H_    0.719321 0.465315 0.159389 0.130657
H84   H     H_    0.280633 0.473224 0.844524 0.130907
O1    O     O_R   0.500000 0.963030 0.565470 -0.623409
O2    O     O_R   0.500000 0.963030 0.434530 -0.623408
O3    O     O_R   0.000000 0.463030 0.565470 -0.623252
O4    O     O_R   0.000000 0.463030 0.434530 -0.623257
O5    O     O_R   0.465320 0.999980 0.899860 -0.620698
O6    O     O_R   0.534680 0.999980 0.100140 -0.620684
O7    O     O_R   0.965320 0.499980 0.899860 -0.620736
O8    O     O_R   0.034680 0.499980 0.100140 -0.620740
O9    O     O_R   0.534680 0.999980 0.969230 -0.626836
O10   O     O_R   0.465320 0.999980 0.030770 -0.626774
O11   O     O_R   0.034680 0.499980 0.969230 -0.626736
O12   O     O_R   0.965320 0.499980 0.030770 -0.626672
O13   O     O_R   0.465320 0.934500 0.965310 -0.615889
O14   O     O_R   0.534680 0.934500 0.034690 -0.615978
O15   O     O_R   0.965320 0.434500 0.965310 -0.615892
O16   O     O_R   0.034680 0.434500 0.034690 -0.615918
O17   O     O_R   0.499990 0.036970 0.565490 -0.621525
O18   O     O_R   0.500010 0.036970 0.434510 -0.620643
O19   O     O_R   0.999990 0.536970 0.565490 -0.621850
O20   O     O_R   0.000010 0.536970 0.434510 -0.620757
O21   O     O_R   0.438570 0.963030 0.438570 -0.619942
O22   O     O_R   0.561430 0.963030 0.561430 -0.619877
O23   O     O_R   0.938570 0.463030 0.438570 -0.619837
O24   O     O_R   0.061430 0.463030 0.561430 -0.619915
O25   O     O_R   0.438570 0.036970 0.438590 -0.594100
O26   O     O_R   0.561430 0.036970 0.561410 -0.594724
O27   O     O_R   0.938570 0.536970 0.438590 -0.593780
O28   O     O_R   0.061430 0.536970 0.561410 -0.594013
O29   O     O_R   0.000000 0.934650 0.036980 -0.625874
O30   O     O_R   0.000000 0.934650 0.963020 -0.625599
O31   O     O_R   0.500000 0.434650 0.036980 -0.625556
O32   O     O_R   0.500000 0.434650 0.963020 -0.625172
O33   O     O_R   0.061420 0.000140 0.098400 -0.621636
O34   O     O_R   0.938580 0.000140 0.901600 -0.621156
O35   O     O_R   0.561420 0.500140 0.098400 -0.622111
O36   O     O_R   0.438580 0.500140 0.901600 -0.621667
O37   O     O_R   0.061430 0.000120 0.024480 -0.597101
O38   O     O_R   0.938570 0.000120 0.975520 -0.598558
O39   O     O_R   0.561430 0.500120 0.024480 -0.595463
O40   O     O_R   0.438570 0.500120 0.975520 -0.596784
O41   O     O_R   0.999990 0.065630 0.036960 -0.615198
O42   O     O_R   0.000010 0.065630 0.963040 -0.615589
O43   O     O_R   0.499990 0.565630 0.036960 -0.615386
O44   O     O_R   0.500010 0.565630 0.963040 -0.615993
O45   O     O_R   0.465320 0.065470 0.965350 -0.623900
O46   O     O_R   0.534680 0.065470 0.034650 -0.623876
O47   O     O_R   0.965320 0.565470 0.965350 -0.623974
O48   O     O_R   0.034680 0.565470 0.034650 -0.623954
Zn1   Zn    Zn3+2 0.500000 0.950630 0.500000 0.989507
Zn2   Zn    Zn3+2 0.000000 0.450630 0.500000 0.989759
Zn3   Zn    Zn3+2 0.500000 0.049370 0.500000 1.018857
Zn4   Zn    Zn3+2 0.000000 0.549370 0.500000 1.019313
Zn5   Zn    Zn3+2 0.000000 0.000140 0.049370 0.997911
Zn6   Zn    Zn3+2 1.000000 0.000140 0.950630 0.999481
Zn7   Zn    Zn3+2 0.500000 0.500140 0.049370 0.999305
Zn8   Zn    Zn3+2 0.500000 0.500140 0.950630 1.000734
Zn9   Zn    Zn3+2 0.453690 0.999980 0.953700 0.970303
Zn10  Zn    Zn3+2 0.546310 0.999980 0.046300 0.970128
Zn11  Zn    Zn3+2 0.953690 0.499980 0.953700 0.970479
Zn12  Zn    Zn3+2 0.046310 0.499980 0.046300 0.970307
C169  C     C_3   0.211055 0.945727 0.277888 -0.894384
H85   H     H_    0.220216 0.911212 0.295029 0.254978
H86   H     H_    0.225667 0.967624 0.317562 0.244343
H87   H     H_    0.176423 0.947978 0.246025 0.252105
C170  C     C_3   0.788975 0.938446 0.728798 -0.895477
H88   H     H_    0.779812 0.903247 0.715640 0.254791
H89   H     H_    0.774380 0.957344 0.686796 0.244574
H90   H     H_    0.823609 0.940354 0.760446 0.251464
C171  C     C_3   0.711103 0.456446 0.285403 -0.892842
H91   H     H_    0.720265 0.423526 0.307654 0.255179
H92   H     H_    0.725738 0.481869 0.321498 0.244012
H93   H     H_    0.676474 0.459106 0.253200 0.252922
C172  C     C_3   0.288942 0.447335 0.720814 -0.893833
H94   H     H_    0.279784 0.413016 0.702853 0.254987
H95   H     H_    0.274323 0.469827 0.681663 0.244263
H96   H     H_    0.323573 0.449655 0.752725 0.252242
Br1   Br    Br    0.199336 0.050680 0.114874 -0.502088
Br2   Br    Br    0.800625 0.059990 0.878787 -0.501703
Br3   Br    Br    0.699276 0.537354 0.108180 -0.502457
Br4   Br    Br    0.300669 0.548647 0.886322 -0.502061
Br5   Br    Br    0.486017 0.903662 0.718595 -0.485008
Br6   Br    Br    0.513982 0.903665 0.281404 -0.484469
Br7   Br    Br    0.986004 0.403665 0.718582 -0.484435
Br8   Br    Br    0.013999 0.403668 0.281421 -0.483908
Br9   Br    Br    0.046147 0.232492 0.129621 -0.475865
Br10  Br    Br    0.953902 0.232488 0.870390 -0.474639
Br11  Br    Br    0.546164 0.732484 0.129632 -0.477723
Br12  Br    Br    0.453832 0.732487 0.870361 -0.476703
C173  C     C_3   0.451624 0.866076 0.019145 -0.818319
H97   H     H_    0.472455 0.889214 0.058170 0.237663
H98   H     H_    0.425169 0.884684 0.977801 0.253885
H99   H     H_    0.438255 0.842525 0.030144 0.244372
C174  C     C_3   0.548379 0.866073 0.980859 -0.819007
H100  H     H_    0.527549 0.889214 0.941835 0.237794
H101  H     H_    0.574834 0.884678 0.022204 0.253779
H102  H     H_    0.561748 0.842522 0.969861 0.244170
C175  C     C_3   0.951477 0.366047 0.018888 -0.817666
H103  H     H_    0.972297 0.389071 0.058058 0.237708
H104  H     H_    0.925126 0.384757 0.977587 0.254101
H105  H     H_    0.937937 0.342475 0.029580 0.244479
C176  C     C_3   0.048490 0.366079 0.981056 -0.818025
H106  H     H_    0.027688 0.389225 0.942033 0.237690
H107  H     H_    0.074926 0.384675 0.022428 0.253912
H108  H     H_    0.061889 0.342531 0.970105 0.244344
Br13  Br    Br    0.304652 0.094927 0.331711 -0.509543
Br14  Br    Br    0.695361 0.091228 0.657579 -0.509624
Br15  Br    Br    0.804669 0.597900 0.317018 -0.509973
Br16  Br    Br    0.195336 0.595552 0.670562 -0.509637
C177  C     C_3   0.209045 0.087167 0.227490 -0.706464
H109  H     H_    0.223864 0.099638 0.211688 0.303648
H110  H     H_    0.174506 0.086793 0.188498 0.239304
H111  H     H_    0.215909 0.111047 0.261287 0.252316
C178  C     C_3   0.790960 0.084494 0.762722 -0.705395
H112  H     H_    0.776113 0.100379 0.776860 0.303758
H113  H     H_    0.825496 0.084628 0.801760 0.239535
H114  H     H_    0.784119 0.105146 0.726393 0.252109
C179  C     C_3   0.709054 0.588959 0.214182 -0.707932
H115  H     H_    0.723837 0.596662 0.196794 0.303583
H116  H     H_    0.674509 0.587927 0.175335 0.239183
H117  H     H_    0.715946 0.616629 0.244089 0.252317
C180  C     C_3   0.290944 0.587592 0.774580 -0.706490
H118  H     H_    0.276129 0.599328 0.790682 0.303581
H119  H     H_    0.325485 0.587113 0.813558 0.239294
H120  H     H_    0.284074 0.612113 0.741354 0.252327

loop_
_geom_bond_atom_site_label_1
_geom_bond_atom_site_label_2
_ccdc_geom_bond_type
C4    O20   A    
C94   O12   A    
C4    C36   S    
C119  C149  S    
C55   C59   A    
C122  H68   S    
O1    Zn1   S    
O29   Zn5   S    
C56   H24   S    
C11   C159  S    
C46   O22   A    
C112  C124  A    
C26   C50   A    
C29   C33   A    
C100  C104  A    
C85   C161  S    
C141  C173  S    
C8    C168  S    
C54   C74   A    
C37   H17   S    
C101  H45   S    
C70   C74   A    
C149  H69   S    
C10   H78   S    
C77   O30   A    
C86   H34   S    
O4    Zn2   S    
C141  C145  A    
C179  H117  S    
C125  C135  A    
C71   H39   S    
C120  C158  S    
C30   H14   S    
C107  C124  S    
C2    O2    A    
O12   Zn11  S    
C127  Br11  S    
C176  H107  S    
C47   O27   A    
C48   O28   A    
C5    Br1   S    
C177  H111  S    
C6    H82   S    
C89   O45   A    
C164  C168  S    
C127  C136  A    
C104  H48   S    
O6    Zn10  S    
C180  H120  S    
C62   C66   A    
C95   O14   A    
C59   H27   S    
C98   C102  A    
C85   H1    S    
C55   H23   S    
C170  H90   S    
C19   C23   T    
C110  C123  A    
O48   Zn12  S    
C68   C72   A    
C115  C118  A    
C87   H3    S    
C174  H102  S    
C28   H12   S    
C113  H53   S    
O16   Zn12  S    
C129  C133  A    
C45   O25   A    
C49   C73   S    
O13   Zn9   S    
C43   Br7   S    
O15   Zn11  S    
C90   O48   A    
O27   Zn4   S    
C111  C124  A    
C80   O34   A    
C162  C170  S    
C57   C61   A    
O18   Zn3   S    
O42   Zn6   S    
C151  C179  S    
C59   C63   A    
C78   C106  S    
C60   C64   A    
C150  C178  S    
C132  H60   S    
C64   C94   S    
C38   H18   S    
C178  H112  S    
O46   Zn10  S    
C80   O38   A    
C66   C70   A    
C151  C167  S    
C116  C118  A    
C6    Br2   S    
C88   C160  S    
C127  C131  A    
C78   O31   A    
C97   C107  A    
C61   C65   A    
C130  H58   S    
C132  C134  A    
C171  H91   S    
C20   C160  S    
O39   Zn8   S    
C139  H63   S    
C161  C165  S    
C96   O16   A    
C175  H103  S    
C11   H75   S    
C9    H73   S    
O20   Zn4   S    
C72   H40   S    
C84   O43   A    
C99   H43   S    
C99   C108  A    
C97   H41   S    
C64   C68   A    
C42   Br6   S    
C79   O33   A    
C50   C74   S    
C169  H86   S    
C1    O17   A    
C150  C166  S    
C3    O19   A    
C120  Br14  S    
C172  H95   S    
O36   Zn8   S    
C93   O7    A    
C139  C143  A    
C119  H65   S    
C94   O8    A    
C87   C159  S    
C12   H76   S    
C121  Br15  S    
C14   C166  S    
C17   C157  S    
C110  C114  A    
C15   C155  T    
C91   O9    A    
C8    C12   S    
C55   C75   A    
C44   C52   A    
O26   Zn3   S    
O8    Zn12  S    
C15   C167  S    
C111  H51   S    
C27   C51   A    
C21   C45   S    
C173  H98   S    
C139  C148  A    
C100  C108  A    
C23   C47   S    
C30   C34   A    
C24   C48   S    
C138  H62   S    
C149  C165  S    
C99   C103  A    
C178  H114  S    
C109  C123  A    
C88   C164  S    
C121  C151  S    
C7    H83   S    
C122  C152  S    
C5    C9    S    
C125  C129  A    
C79   C153  S    
C3    C35   S    
C119  C157  S    
C171  H93   S    
C112  H52   S    
C88   H36   S    
C66   H30   S    
O40   Zn7   S    
C42   C50   A    
C113  C117  A    
C48   O24   A    
C89   C117  S    
C26   C30   A    
C175  H105  S    
C41   Br5   S    
C119  Br13  S    
C112  C116  A    
C163  C171  S    
C9    H77   S    
C126  Br10  S    
C7    C167  S    
C8    H84   S    
C54   H22   S    
C18   C22   T    
C52   C76   S    
C32   C36   A    
C40   H20   S    
C96   C146  S    
C69   H37   S    
C81   C155  S    
C14   C154  T    
O32   Zn8   S    
C2    C34   S    
C45   O21   A    
C37   C41   A    
O14   Zn10  S    
C114  C117  A    
C109  H49   S    
C40   C44   A    
C129  H57   S    
C4    O4    A    
C7    Br3   S    
C77   O29   A    
C53   H21   S    
C179  H116  S    
C58   C62   A    
C143  C146  A    
O43   Zn7   S    
C6    C166  S    
C122  Br16  S    
C95   C145  S    
C131  C134  A    
C104  C106  A    
C176  H106  S    
O23   Zn2   S    
O33   Zn5   S    
C177  H110  S    
C84   C134  S    
C56   C76   A    
C90   C118  S    
C115  H55   S    
C27   H11   S    
C67   H31   S    
C128  C136  A    
C83   O42   A    
C25   H9    S    
C95   O13   A    
C126  C130  A    
C102  C105  A    
C41   C49   A    
C170  H89   S    
C125  Br9   S    
C162  C166  S    
C102  H46   S    
C149  C177  S    
C16   C156  T    
C69   C73   A    
C81   O35   A    
C174  H101  S    
C82   O36   A    
C85   H33   S    
C163  H7    S    
C86   H2    S    
C25   C29   A    
C142  C145  A    
C152  C180  S    
C85   C157  S    
O19   Zn4   S    
C87   H35   S    
C152  C168  S    
C1    O1    A    
C89   O46   A    
C2    O18   A    
C5    H81   S    
O9    Zn10  S    
C137  H61   S    
C138  C142  A    
O17   Zn3   S    
C53   C57   A    
O37   Zn6   S    
C12   H80   S    
C27   C31   A    
C58   H26   S    
C33   C37   A    
C98   C107  A    
C56   C60   A    
C116  H56   S    
C35   C39   A    
C18   C158  S    
C161  H5    S    
C97   C101  A    
C13   C165  S    
C28   C32   A    
C12   C160  S    
C81   O39   A    
C13   C153  T    
C82   O40   A    
C144  C146  A    
C22   C46   S    
C126  C135  A    
C140  H64   S    
C31   C35   A    
C130  C133  A    
C108  C123  S    
O22   Zn1   S    
C103  H47   S    
C8    Br4   S    
C176  H108  S    
C137  C141  A    
C137  C147  A    
C140  C144  A    
O35   Zn7   S    
C6    C10   S    
C92   O6    A    
C142  C174  S    
C80   C154  S    
C84   O44   A    
C151  H71   S    
C63   C93   S    
C120  C150  S    
C19   C159  S    
C77   C105  S    
O44   Zn8   S    
C43   C51   A    
C169  H85   S    
C65   C69   A    
C46   O26   A    
C164  H8    S    
C67   C71   A    
C172  H94   S    
C25   C49   A    
C131  H59   S    
C164  C172  S    
O24   Zn2   S    
O25   Zn3   S    
C17   C21   T    
C90   O47   A    
C143  C175  S    
C87   C163  S    
C88   H4    S    
C28   C52   A    
C10   H74   S    
C72   C76   A    
C140  C148  A    
C121  H67   S    
C1    C33   S    
C173  H97   S    
C7    C11   S    
C98   H42   S    
C29   H13   S    
C91   O5    A    
O21   Zn1   S    
C38   C42   A    
C178  H113  S    
C47   O23   A    
O5    Zn9   S    
C120  H66   S    
C78   O32   A    
O7    Zn11  S    
C20   C24   T    
C171  H92   S    
C62   C92   S    
C86   C162  S    
C9    C157  S    
C109  C113  A    
C39   H19   S    
C96   O15   A    
O34   Zn6   S    
C175  H104  S    
O11   Zn12  S    
C128  C132  A    
O31   Zn7   S    
C26   H10   S    
C101  C105  A    
C63   C67   A    
C144  C176  S    
O28   Zn4   S    
C36   C40   A    
C169  H87   S    
C39   C43   A    
C150  H70   S    
C100  H44   S    
C114  H54   S    
C57   H25   S    
C172  H96   S    
C163  C167  S    
O41   Zn5   S    
C152  H72   S    
C138  C147  A    
O45   Zn9   S    
C128  Br12  S    
C86   C158  S    
O2    Zn1   S    
O30   Zn6   S    
C79   O37   A    
C65   H29   S    
O47   Zn11  S    
C5    C165  S    
O10   Zn9   S    
C51   C75   S    
C60   H28   S    
C179  H115  S    
C54   C58   A    
C173  H99   S    
C10   C158  S    
O38   Zn5   S    
C31   H15   S    
C34   C38   A    
C32   H16   S    
C53   C73   A    
C161  C169  S    
C162  H6    S    
C70   H38   S    
C177  H109  S    
C68   H32   S    
C11   H79   S    
O3    Zn2   S    
C82   C156  S    
C180  H118  S    
C71   C75   A    
C83   O41   A    
C16   C168  S    
C180  H119  S    
C103  C106  A    
C170  H88   S    
C110  H50   S    
C3    O3    A    
C83   C133  S    
C136  C147  S    
C44   Br8   S    
C135  C148  S    
C121  C159  S    
C122  C160  S    
C111  C115  A    
C174  H100  S    
C92   O10   A    
C61   C91   S    
C93   O11   A    
