data_mof_unit_35674.cif
_audit_creation_date              2012-12-11T15:08:36-0500
_audit_creation_method            fapswitch 2.2
_symmetry_space_group_name_H-M    P1
_symmetry_Int_Tables_number       1
_space_group_crystal_system       triclinic
_cell_length_a                    26.795497
_cell_length_b                    7.087185
_cell_length_c                    12.001498
_cell_angle_alpha                 90.000257
_cell_angle_beta                  103.581932
_cell_angle_gamma                 90.000769
_cell_volume                      2215.40428944

loop_
_atom_site_label
_atom_site_type_symbol
_atom_type_description
_atom_site_fract_x
_atom_site_fract_y
_atom_site_fract_z
_atom_type_partial_charge
O1    O     O_R   0.437360 0.505910 0.042120 -0.538831
O2    O     O_R   0.562640 0.005910 0.957880 -0.538828
O3    O     O_R   0.542480 0.176660 0.157100 -0.542993
O4    O     O_R   0.457520 0.676660 0.842900 -0.542994
C1    C     C_R   0.556518 0.344997 0.197950 0.690102
C2    C     C_R   0.443482 0.844994 0.802050 0.690102
O5    O     O_R   0.436520 0.176250 0.054800 -0.540726
O6    O     O_R   0.563480 0.676250 0.945200 -0.540725
O7    O     O_R   0.455920 0.005040 0.854840 -0.536729
O8    O     O_R   0.544080 0.505040 0.145160 -0.536730
C3    C     C_R   0.417497 0.344654 0.063150 0.688263
C4    C     C_R   0.582503 0.844657 0.936850 0.688260
O9    O     O_3   0.506490 0.338900 0.934520 -0.373548
O10   O     O_3   0.493510 0.838900 0.065480 -0.373550
V1    V     V_3+5 0.498800 0.064400 0.012150 1.421264
V2    V     V_3+5 0.501200 0.564400 0.987850 1.421263
C5    C     C_R   0.680835 0.847226 0.759896 -0.163612
C6    C     C_R   0.319165 0.347048 0.240113 -0.163592
H1    H     H_    0.598547 0.845498 0.722948 0.102611
H2    H     H_    0.401453 0.345252 0.277067 0.102604
H3    H     H_    0.774363 0.834140 0.722822 0.142472
H4    H     H_    0.225636 0.333961 0.277187 0.142460
H5    H     H_    0.681401 0.844562 0.669897 0.130717
H6    H     H_    0.318598 0.344288 0.330118 0.130708
C7    C     C_R   0.631884 0.851804 0.904909 -0.025069
C8    C     C_R   0.368115 0.351791 0.095089 -0.025062
C9    C     C_R   0.868425 0.865871 0.211845 -0.184589
C10   C     C_R   0.131573 0.365890 0.788147 -0.184586
C11   C     C_R   0.822675 0.865810 0.247259 -0.117814
C12   C     C_R   0.177323 0.365831 0.752728 -0.117802
C13   C     C_R   0.775730 0.864321 0.167014 -0.176441
C14   C     C_R   0.224268 0.364351 0.832973 -0.176414
C15   C     C_R   0.773375 0.856775 0.047874 0.072505
C16   C     C_R   0.226624 0.356801 0.952120 0.072496
C17   C     C_R   0.820567 0.853511 0.012192 0.075604
C18   C     C_R   0.179433 0.353511 0.987807 0.075589
C19   C     C_R   0.725898 0.853237 0.963068 0.069699
C20   C     C_R   0.274102 0.353247 0.036928 0.069682
C21   C     C_R   0.726801 0.846756 0.845083 0.139511
C22   C     C_R   0.273198 0.346663 0.154920 0.139512
C23   C     C_R   0.773482 0.840516 0.812608 -0.222543
C24   C     C_R   0.226517 0.340402 0.187398 -0.222528
C25   C     C_R   0.819623 0.844378 0.894568 -0.225237
C26   C     C_R   0.180376 0.344322 0.105436 -0.225225
C27   C     C_R   0.677381 0.855344 0.990830 -0.221671
C28   C     C_R   0.322619 0.355428 0.009161 -0.221666
C29   C     C_R   0.633671 0.848451 0.789695 -0.191486
C30   C     C_R   0.366328 0.348293 0.210314 -0.191480
C31   C     C_R   0.867915 0.860614 0.095229 -0.070972
C32   C     C_R   0.132084 0.360625 0.904768 -0.070977
H7    H     H_    0.673406 0.857334 0.078096 0.094241
H8    H     H_    0.326595 0.357553 0.921887 0.094231
H9    H     H_    0.904482 0.870850 0.275723 0.100422
H10   H     H_    0.095515 0.370864 0.724268 0.100423
H11   H     H_    0.742096 0.868064 0.201452 0.118471
H12   H     H_    0.257902 0.368078 0.798528 0.118467
H13   H     H_    0.823544 0.869651 0.337893 0.135759
H14   H     H_    0.176453 0.369660 0.662089 0.135751
H15   H     H_    0.854692 0.840650 0.864590 0.129124
H16   H     H_    0.145308 0.340577 0.135416 0.129125
C33   C     C_R   0.090960 0.854507 0.311881 -0.042710
C34   C     C_R   0.909039 0.354499 0.688119 -0.042720
C35   C     C_R   0.409147 0.858622 0.687881 -0.042563
C36   C     C_R   0.590853 0.358636 0.312119 -0.042569
C37   C     C_R   0.106738 0.754876 0.509134 -0.158291
C38   C     C_R   0.893255 0.254840 0.490873 -0.158295
C39   C     C_R   0.073178 0.777180 0.402288 -0.166703
C40   C     C_R   0.926816 0.277143 0.597718 -0.166703
C41   C     C_R   0.142965 0.899906 0.327327 -0.221437
C42   C     C_R   0.857036 0.399930 0.672670 -0.221432
C43   C     C_R   0.179075 0.850738 0.429483 0.087241
C44   C     C_R   0.820924 0.350761 0.570517 0.087244
C45   C     C_R   0.159229 0.794804 0.523765 0.090566
C46   C     C_R   0.840766 0.294796 0.476238 0.090565
C47   C     C_R   0.233656 0.863000 0.443093 -0.005280
C48   C     C_R   0.766343 0.363046 0.556906 -0.005271
C49   C     C_R   0.266278 0.856850 0.557317 -0.002905
C50   C     C_R   0.733722 0.356879 0.442684 -0.002899
C51   C     C_R   0.242577 0.842420 0.652428 0.155764
C52   C     C_R   0.757421 0.342429 0.347574 0.155762
C53   C     C_R   0.190918 0.792683 0.633280 -0.211873
C54   C     C_R   0.809078 0.292675 0.366723 -0.211881
C55   C     C_R   0.257332 0.877450 0.347955 0.150152
C56   C     C_R   0.742669 0.377537 0.652041 0.150151
C57   C     C_R   0.309078 0.925711 0.367054 -0.214468
C58   C     C_R   0.690924 0.425812 0.632936 -0.214450
C59   C     C_R   0.340841 0.922181 0.476470 0.091558
C60   C     C_R   0.659161 0.422250 0.523522 0.091558
C61   C     C_R   0.320887 0.867771 0.570903 0.087486
C62   C     C_R   0.679113 0.367804 0.429097 0.087482
C63   C     C_R   0.393495 0.958684 0.490731 -0.156278
C64   C     C_R   0.606507 0.458759 0.509256 -0.156282
C65   C     C_R   0.427129 0.934068 0.597261 -0.168007
C66   C     C_R   0.572873 0.434117 0.402729 -0.168008
C67   C     C_R   0.356903 0.817730 0.673051 -0.215926
C68   C     C_R   0.643096 0.317736 0.326955 -0.215932
H17   H     H_    0.174113 0.768968 0.706054 0.148336
H18   H     H_    0.825881 0.268946 0.293950 0.148339
H19   H     H_    0.345550 0.745649 0.742044 0.124690
H20   H     H_    0.654450 0.245636 0.257970 0.124698
H21   H     H_    0.467375 0.968786 0.608269 0.102111
H22   H     H_    0.532628 0.468845 0.391717 0.102118
H23   H     H_    0.325900 0.948567 0.294219 0.147231
H24   H     H_    0.674104 0.448703 0.705767 0.147234
H25   H     H_    0.091698 0.706336 0.580449 0.113114
H26   H     H_    0.908293 0.206280 0.419562 0.113116
H27   H     H_    0.033099 0.739607 0.390932 0.102895
H28   H     H_    0.966893 0.239547 0.609077 0.102901
H29   H     H_    0.154164 0.973754 0.258658 0.129261
H30   H     H_    0.845841 0.473803 0.741332 0.129270
H31   H     H_    0.408632 0.005951 0.419284 0.112776
H32   H     H_    0.591371 0.506056 0.580695 0.112785
O11   O     O_R   0.955980 0.206520 0.854760 -0.536704
O12   O     O_R   0.044020 0.706520 0.145240 -0.536701
O13   O     O_R   0.063490 0.536770 0.945200 -0.539532
O14   O     O_R   0.936510 0.036770 0.054800 -0.539530
C69   C     C_R   0.082694 0.368404 0.937609 0.680221
C70   C     C_R   0.917306 0.868402 0.062390 0.680216
O15   O     O_R   0.957530 0.536190 0.842880 -0.543672
O16   O     O_R   0.042470 0.036190 0.157120 -0.543674
O17   O     O_R   0.937350 0.707210 0.042130 -0.538756
O18   O     O_R   0.062650 0.207210 0.957870 -0.538757
C71   C     C_R   0.943316 0.367383 0.802373 0.690789
C72   C     C_R   0.056684 0.867385 0.197627 0.690790
O19   O     O_3   0.993540 0.373870 0.065440 -0.373418
O20   O     O_3   0.006460 0.873870 0.934560 -0.373419
V3    V     V_3+5 0.001200 0.648440 0.987860 1.418994
V4    V     V_3+5 0.998800 0.148440 0.012140 1.418993
C73   C     C_3   0.267274 0.902779 0.773796 -0.788351
H33   H     H_    0.238755 0.974977 0.812837 0.222254
H34   H     H_    0.281113 0.777638 0.827927 0.205692
H35   H     H_    0.298348 0.007381 0.776668 0.208406
C74   C     C_3   0.732725 0.402787 0.226207 -0.788363
H36   H     H_    0.761245 0.474995 0.187172 0.222262
H37   H     H_    0.718888 0.277646 0.172075 0.205699
H38   H     H_    0.701650 0.507382 0.223334 0.208402
C75   C     C_3   0.232603 0.817264 0.226623 -0.775828
H39   H     H_    0.200909 0.715692 0.223573 0.219001
H40   H     H_    0.219308 0.942005 0.171979 0.215196
H41   H     H_    0.260871 0.742132 0.188208 0.220450
C76   C     C_3   0.767395 0.317382 0.773377 -0.775865
H42   H     H_    0.799086 0.215798 0.776438 0.219000
H43   H     H_    0.780694 0.442130 0.828009 0.215209
H44   H     H_    0.739125 0.242276 0.811796 0.220452

loop_
_geom_bond_atom_site_label_1
_geom_bond_atom_site_label_2
_ccdc_geom_bond_type
C38   C40   A    
O4    V2    S    
O20   V3    S    
C59   C63   A    
C9    C11   A    
C32   C69   S    
C23   C25   A    
O1    C3    A    
C44   C48   A    
C58   H24   S    
C48   C56   A    
C2    O7    A    
O13   V3    S    
C21   C23   A    
O11   V4    S    
C50   C62   A    
O5    C3    A    
C75   H40   S    
C49   C61   A    
C5    H5    S    
C68   H20   S    
C33   C72   S    
C6    H6    S    
C10   C32   A    
C20   C22   A    
C38   H26   S    
O17   V3    S    
C76   H43   S    
C67   H19   S    
C27   H7    S    
C51   C73   S    
C35   C67   A    
C37   C45   A    
C34   C42   A    
C5    C21   A    
C63   H31   S    
C41   C43   A    
C6    C22   A    
C42   H30   S    
C41   H29   S    
C47   C55   A    
C60   C64   A    
C37   C39   A    
C17   C31   A    
O19   V4    S    
C13   C15   A    
C17   C25   A    
C7    C29   A    
C16   C18   A    
C57   H23   S    
C25   H15   S    
C73   H35   S    
O12   C72   A    
C22   C24   A    
O2    C4    A    
O6    V2    S    
C9    H9    S    
C54   H18   S    
C24   C26   A    
C46   C54   A    
C45   C53   A    
C34   C71   S    
C49   C51   A    
C75   H41   S    
C43   C47   A    
C11   H13   S    
C58   C60   A    
C36   C68   A    
C44   C46   A    
C76   H44   S    
C65   H21   S    
C51   C53   A    
C10   H10   S    
C64   H32   S    
C3    C8    S    
O13   C69   A    
C15   C19   A    
C52   C74   S    
C1    C36   S    
C70   O17   A    
C14   C16   A    
C2    C35   S    
C61   C67   A    
C69   O18   A    
C63   C65   A    
C38   C46   A    
C33   C39   A    
C31   C70   S    
O11   C71   A    
O6    C4    A    
O16   V4    S    
C50   C52   A    
O1    V2    S    
O19   V3    S    
O2    V1    S    
C47   C49   A    
H2    C30   S    
C74   H38   S    
H3    C23   S    
C52   C54   A    
C55   C57   A    
C60   C62   A    
O15   C71   A    
C59   C61   A    
C74   H36   S    
C18   C26   A    
O4    C2    A    
C19   C27   A    
C7    C27   A    
C55   C75   S    
C18   C32   A    
C43   C45   A    
C73   H33   S    
C33   C41   A    
O20   V4    S    
C16   C20   A    
C5    C29   A    
C48   C50   A    
O3    C1    A    
C6    C30   A    
C37   H25   S    
C62   C68   A    
C8    C30   A    
C75   H39   S    
C35   C65   A    
C34   C40   A    
C4    C7    S    
C10   C12   A    
O7    V1    S    
C36   C66   A    
C1    O8    A    
C11   C13   A    
O8    V2    S    
C76   H42   S    
C28   H8    S    
C12   C14   A    
O12   V3    S    
C39   H27   S    
C64   C66   A    
H4    C24   S    
C53   H17   S    
C56   C76   S    
C26   H16   S    
C12   H14   S    
O5    V1    S    
C15   C17   A    
O14   C70   A    
H1    C29   S    
O18   V4    S    
C20   C28   A    
C8    C28   A    
O16   C72   A    
C57   C59   A    
C66   H22   S    
C19   C21   A    
O14   V4    S    
O9    V2    S    
C74   H37   S    
O10   V1    S    
C56   C58   A    
O3    V1    S    
C42   C44   A    
C40   H28   S    
C13   H11   S    
C14   H12   S    
C9    C31   A    
C73   H34   S    
O15   V3    S    
