data_mof_unit_39920.cif
_audit_creation_date              2012-12-11T14:06:54-0500
_audit_creation_method            fapswitch 2.2
_symmetry_space_group_name_H-M    P1
_symmetry_Int_Tables_number       1
_space_group_crystal_system       triclinic
_cell_length_a                    27.68448
_cell_length_b                    27.735484
_cell_length_c                    27.528485
_cell_angle_alpha                 89.974226
_cell_angle_beta                  90.024476
_cell_angle_gamma                 89.89447
_cell_volume                      21137.4994964

loop_
_atom_site_label
_atom_site_type_symbol
_atom_type_description
_atom_site_fract_x
_atom_site_fract_y
_atom_site_fract_z
_atom_type_partial_charge
C1    C     C_R   0.788554 0.271984 0.276127 0.124119
C2    C     C_R   0.205080 0.267761 0.270579 0.127519
C3    C     C_R   0.283326 0.138662 0.672718 -0.281218
C4    C     C_R   0.193311 0.687752 0.350646 -0.278535
C5    C     C_R   0.815057 0.300922 0.647054 -0.226567
C6    C     C_R   0.299981 0.184630 0.353313 -0.271630
C7    C     C_R   0.706220 0.820605 0.646714 -0.245580
C8    C     C_R   0.802993 0.682208 0.652262 -0.276491
C9    C     C_R   0.182098 0.298420 0.351984 -0.227661
C10   C     C_R   0.701839 0.182168 0.646050 -0.271673
C11   C     C_R   0.296991 0.817586 0.353872 -0.245990
C12   C     C_R   0.199326 0.315400 0.646698 -0.275689
C13   C     C_R   0.730348 0.207487 0.727626 0.128007
C14   C     C_R   0.818309 0.702361 0.352423 -0.243781
C15   C     C_R   0.302818 0.814742 0.647832 -0.273624
C16   C     C_R   0.714085 0.140376 0.326327 -0.280958
C17   C     C_R   0.330677 0.854191 0.282204 -0.262536
C18   C     C_R   0.671351 0.140146 0.716527 -0.284211
C19   C     C_R   0.355204 0.691107 0.805288 -0.277633
C20   C     C_R   0.676528 0.287580 0.137989 -0.281725
C21   C     C_R   0.353017 0.182476 0.701688 -0.272004
C22   C     C_R   0.671556 0.860484 0.282813 -0.245085
C23   C     C_R   0.327492 0.284680 0.141824 -0.255744
C24   C     C_R   0.269800 0.788222 0.272954 0.124040
C25   C     C_R   0.647314 0.697613 0.813141 -0.250395
C26   C     C_R   0.673015 0.858318 0.717986 -0.266686
C27   C     C_R   0.330859 0.142887 0.282816 -0.281948
C28   C     C_R   0.672221 0.716023 0.140984 -0.253878
C29   C     C_R   0.351369 0.302791 0.813221 -0.226543
C30   C     C_R   0.644404 0.186993 0.301496 -0.275714
C31   C     C_R   0.325300 0.864012 0.716639 -0.246408
C32   C     C_R   0.646325 0.311124 0.804870 -0.274619
C33   C     C_R   0.324258 0.711931 0.141475 -0.243533
C34   C     C_R   0.283428 0.326628 0.862641 -0.257792
C35   C     C_R   0.214019 0.273728 0.724953 0.119984
C36   C     C_R   0.699315 0.646362 0.186042 -0.248818
C37   C     C_R   0.858793 0.329184 0.717270 -0.262844
C38   C     C_R   0.131207 0.681010 0.288933 -0.280007
C39   C     C_R   0.694421 0.354665 0.191116 -0.277699
C40   C     C_R   0.287459 0.672911 0.857639 -0.279457
C41   C     C_R   0.137043 0.326347 0.282417 -0.266195
C42   C     C_R   0.868803 0.681768 0.710407 -0.280755
C43   C     C_R   0.716822 0.671094 0.858980 -0.252926
C44   C     C_R   0.300801 0.354444 0.186877 -0.247519
C45   C     C_R   0.143012 0.669872 0.718162 -0.255240
C46   C     C_R   0.793670 0.732431 0.271006 0.123399
C47   C     C_R   0.864472 0.318014 0.291791 -0.279974
C48   C     C_R   0.309338 0.644275 0.194809 -0.275726
C49   C     C_R   0.713801 0.325835 0.858581 -0.242522
C50   C     C_R   0.861733 0.673617 0.282182 -0.264688
C51   C     C_R   0.139351 0.322356 0.710349 -0.278151
C52   C     C_R   0.828438 0.346221 0.382945 0.159610
C53   C     C_R   0.156058 0.670766 0.617105 0.173891
C54   C     C_R   0.663273 0.837368 0.381863 0.168096
C55   C     C_R   0.312860 0.111744 0.641348 0.171737
C56   C     C_R   0.168443 0.655923 0.380705 0.158691
C57   C     C_R   0.270022 0.793552 0.728502 0.124889
C58   C     C_R   0.839866 0.332924 0.617032 0.179040
C59   C     C_R   0.331643 0.159355 0.383468 0.161769
C60   C     C_R   0.675566 0.847637 0.616926 0.169171
C61   C     C_R   0.828631 0.651467 0.621577 0.161257
C62   C     C_R   0.158162 0.331026 0.382135 0.178618
C63   C     C_R   0.669565 0.157628 0.616090 0.161253
C64   C     C_R   0.326554 0.845712 0.383522 0.171230
C65   C     C_R   0.172632 0.346381 0.616956 0.159125
C66   C     C_R   0.844012 0.670916 0.382481 0.170708
C67   C     C_R   0.335257 0.839369 0.618174 0.168327
C68   C     C_R   0.725332 0.211429 0.271302 0.126355
C69   C     C_R   0.685172 0.113042 0.357735 0.170495
C70   C     C_R   0.363246 0.880384 0.310875 0.186750
C71   C     C_R   0.638965 0.114558 0.687198 0.178150
C72   C     C_R   0.384531 0.659214 0.831254 0.158839
C73   C     C_R   0.644347 0.316522 0.111455 0.165742
C74   C     C_R   0.382995 0.157083 0.670023 0.161276
C75   C     C_R   0.640821 0.887956 0.312553 0.167304
C76   C     C_R   0.358920 0.313640 0.114415 0.175593
C77   C     C_R   0.616985 0.669567 0.842001 0.173816
C78   C     C_R   0.638931 0.882710 0.689344 0.188472
C79   C     C_R   0.275576 0.727836 0.786648 0.124149
C80   C     C_R   0.362479 0.116396 0.312353 0.178238
C81   C     C_R   0.641037 0.686870 0.113489 0.175072
C82   C     C_R   0.381934 0.333464 0.838884 0.180713
C83   C     C_R   0.614974 0.160776 0.332976 0.160336
C84   C     C_R   0.356859 0.890697 0.687083 0.166737
C85   C     C_R   0.617391 0.342565 0.831727 0.172086
C86   C     C_R   0.355532 0.683609 0.113110 0.171790
C87   C     C_R   0.313241 0.358386 0.888803 0.189542
C88   C     C_R   0.670739 0.616305 0.157405 0.173218
C89   C     C_R   0.883550 0.362570 0.688303 0.190887
C90   C     C_R   0.730109 0.274902 0.210364 0.124275
C91   C     C_R   0.104440 0.650842 0.319595 0.169499
C92   C     C_R   0.661755 0.383855 0.166020 0.158021
C93   C     C_R   0.316501 0.641725 0.885131 0.166549
C94   C     C_R   0.113421 0.360587 0.311455 0.190219
C95   C     C_R   0.896012 0.652534 0.679067 0.167842
C96   C     C_R   0.687382 0.640404 0.886726 0.174462
C97   C     C_R   0.329755 0.384341 0.158388 0.172665
C98   C     C_R   0.117432 0.636978 0.689291 0.168833
C99   C     C_R   0.892093 0.348471 0.321402 0.168410
C100  C     C_R   0.341612 0.615807 0.168421 0.171830
C101  C     C_R   0.270601 0.273698 0.211817 0.122233
C102  C     C_R   0.685029 0.356388 0.887365 0.172996
C103  C     C_R   0.885905 0.639559 0.311043 0.177416
C104  C     C_R   0.110937 0.351804 0.680302 0.168651
C105  C     C_R   0.873265 0.363891 0.366549 0.001691
C106  C     C_R   0.123127 0.637669 0.637936 -0.028301
C107  C     C_R   0.636398 0.876222 0.362510 -0.013869
C108  C     C_R   0.363119 0.121464 0.639245 0.012280
C109  C     C_R   0.123961 0.636924 0.365014 0.001232
C110  C     C_R   0.874915 0.364166 0.637388 -0.039101
C111  C     C_R   0.363241 0.124639 0.363266 0.010627
C112  C     C_R   0.209750 0.729939 0.728087 0.122439
C113  C     C_R   0.728421 0.727146 0.788380 0.120990
C114  C     C_R   0.640241 0.878388 0.637871 -0.022058
C115  C     C_R   0.875217 0.636160 0.635183 0.005161
C116  C     C_R   0.123208 0.362711 0.362115 -0.037733
C117  C     C_R   0.637618 0.123403 0.636441 0.010169
C118  C     C_R   0.361239 0.876948 0.362430 -0.023301
C119  C     C_R   0.128247 0.364957 0.633798 0.002636
C120  C     C_R   0.877851 0.638498 0.362016 -0.020735
C121  C     C_R   0.362289 0.878009 0.637512 -0.014809
C122  C     C_R   0.635254 0.123624 0.361678 0.012667
C123  C     C_R   0.365511 0.634880 0.872049 0.013941
C124  C     C_R   0.728929 0.727200 0.211190 0.124353
C125  C     C_R   0.636873 0.365081 0.125463 0.013683
C126  C     C_R   0.360656 0.364016 0.122903 -0.030232
C127  C     C_R   0.636924 0.639052 0.877987 -0.029840
C128  C     C_R   0.639671 0.636459 0.121950 -0.029630
C129  C     C_R   0.362953 0.362325 0.876788 -0.050738
C130  C     C_R   0.636330 0.364909 0.873689 -0.026346
C131  C     C_R   0.364451 0.635136 0.126858 -0.025210
C132  C     C_R   0.819944 0.300573 0.308070 0.106603
C133  C     C_R   0.176470 0.701424 0.697461 0.090298
C134  C     C_R   0.699125 0.823010 0.302474 0.094663
C135  C     C_R   0.270925 0.270560 0.792107 0.124033
C136  C     C_R   0.303096 0.174209 0.702812 0.109485
C137  C     C_R   0.175327 0.699740 0.304614 0.108004
C138  C     C_R   0.824108 0.298764 0.697055 0.075048
C139  C     C_R   0.299508 0.176963 0.302970 0.110759
C140  C     C_R   0.705627 0.825750 0.697331 0.094517
C141  C     C_R   0.822572 0.696814 0.696796 0.108445
C142  C     C_R   0.172154 0.295845 0.302138 0.075388
C143  C     C_R   0.702597 0.174264 0.696357 0.109708
C144  C     C_R   0.298266 0.821880 0.303236 0.093807
C145  C     C_R   0.183216 0.303714 0.693479 0.107933
C146  C     C_R   0.725226 0.273087 0.786008 0.121928
C147  C     C_R   0.826976 0.704317 0.302287 0.091022
C148  C     C_R   0.297983 0.826329 0.697111 0.093145
C149  C     C_R   0.694077 0.177648 0.298407 0.109082
C150  C     C_R   0.306737 0.698069 0.818106 0.111225
C151  C     C_R   0.701813 0.306457 0.177729 0.111271
C152  C     C_R   0.299143 0.304667 0.178807 0.086101
C153  C     C_R   0.697182 0.698994 0.821460 0.086720
C154  C     C_R   0.700620 0.696175 0.178043 0.086295
C155  C     C_R   0.302246 0.299172 0.824528 0.069138
C156  C     C_R   0.694454 0.302730 0.817905 0.088307
C157  C     C_R   0.271316 0.722956 0.213855 0.121814
C158  C     C_R   0.300761 0.692292 0.181784 0.089283
C159  C     C_R   0.902590 0.396701 0.605020 0.050028
C160  C     C_R   0.097931 0.603572 0.396805 0.101582
C161  C     C_R   0.605685 0.904721 0.605567 0.072074
C162  C     C_R   0.396465 0.097886 0.395715 0.067140
C163  C     C_R   0.096020 0.604410 0.605524 0.073065
C164  C     C_R   0.900615 0.396998 0.397603 0.102450
C165  C     C_R   0.395250 0.095614 0.605147 0.067144
C166  C     C_R   0.604087 0.903760 0.394897 0.074422
C167  C     C_R   0.903877 0.604530 0.394590 0.065276
C168  C     C_R   0.766099 0.230618 0.294400 -0.236749
C169  C     C_R   0.100139 0.397411 0.602396 0.100176
C170  C     C_R   0.603848 0.096804 0.395412 0.068332
C171  C     C_R   0.395385 0.904632 0.605256 0.074031
C172  C     C_R   0.096633 0.396045 0.394702 0.046728
C173  C     C_R   0.901808 0.603417 0.603207 0.093213
C174  C     C_R   0.394862 0.904309 0.394599 0.072726
C175  C     C_R   0.603778 0.097462 0.604171 0.067777
C176  C     C_R   0.604906 0.605462 0.904758 0.070791
C177  C     C_R   0.394579 0.395637 0.095956 0.071665
C178  C     C_R   0.603663 0.396651 0.098293 0.071554
C179  C     C_R   0.226469 0.774575 0.711265 -0.237971
C180  C     C_R   0.397075 0.602644 0.900342 0.072276
C181  C     C_R   0.396445 0.603859 0.097902 0.075560
C182  C     C_R   0.604569 0.396449 0.902720 0.077611
C183  C     C_R   0.395242 0.395446 0.903687 0.054034
C184  C     C_R   0.605721 0.604666 0.095278 0.070763
C185  C     C_3   0.785893 0.407559 0.428198 -0.904745
C186  C     C_3   0.153876 0.715310 0.541487 -0.970333
C187  C     C_3   0.614637 0.794002 0.440049 -0.897223
C188  C     C_3   0.297170 0.027000 0.629369 -0.932892
C189  C     C_3   0.213155 0.596782 0.426862 -0.899189
C190  C     C_R   0.773339 0.775157 0.288729 -0.238044
C191  C     C_3   0.829119 0.293717 0.537560 -0.964920
C192  C     C_3   0.370697 0.203458 0.447990 -0.906657
C193  C     C_3   0.723394 0.857620 0.544412 -0.970294
C194  C     C_3   0.785720 0.588834 0.578845 -0.895305
C195  C     C_3   0.169849 0.292283 0.461742 -0.964173
C196  C     C_3   0.630358 0.203018 0.552414 -0.908120
C197  C     C_3   0.277360 0.857130 0.454841 -0.972365
C198  C     C_3   0.213892 0.405442 0.567742 -0.900710
C199  C     C_3   0.841319 0.712163 0.460044 -0.964615
C200  C     C_3   0.384675 0.794346 0.561859 -0.899605
C201  C     C_R   0.233542 0.230796 0.706515 -0.232983
C202  C     C_3   0.700181 0.027743 0.366307 -0.931561
C203  C     C_3   0.436208 0.884477 0.263748 -0.988808
C204  C     C_3   0.620482 0.031335 0.704910 -0.957195
C205  C     C_3   0.439302 0.605970 0.788833 -0.894023
C206  C     C_3   0.640075 0.306506 0.024579 -0.906968
C207  C     C_3   0.445365 0.202344 0.629288 -0.908785
C208  C     C_3   0.639959 0.961651 0.264088 -0.933151
C209  C     C_3   0.422657 0.258111 0.092294 -0.972856
C210  C     C_3   0.544376 0.716881 0.848081 -0.965616
C211  C     C_3   0.565228 0.882833 0.735250 -0.993001
C212  C     C_R   0.225191 0.771433 0.289883 -0.239355
C213  C     C_3   0.379159 0.032863 0.294104 -0.957861
C214  C     C_3   0.577171 0.742239 0.091114 -0.972151
C215  C     C_3   0.460055 0.293526 0.826990 -0.963737
C216  C     C_3   0.554088 0.204676 0.377565 -0.905414
C217  C     C_3   0.358141 0.964628 0.735248 -0.930029
C218  C     C_3   0.564196 0.398046 0.790225 -0.896814
C219  C     C_3   0.351607 0.736944 0.041731 -0.942538
C220  C     C_3   0.257549 0.419938 0.916057 -0.968836
C221  C     C_3   0.718054 0.543840 0.150489 -0.966391
C222  C     C_3   0.894551 0.432029 0.739479 -0.973703
C223  C     C_R   0.728665 0.791365 0.271363 0.123582
C224  C     C_R   0.774501 0.225763 0.711178 -0.244525
C225  C     C_3   0.017958 0.656963 0.333582 -0.922700
C226  C     C_3   0.608353 0.436877 0.210441 -0.895663
C227  C     C_3   0.305463 0.639568 0.971947 -0.911955
C228  C     C_3   0.102921 0.429968 0.259991 -0.977394
C229  C     C_3   0.979090 0.673016 0.665555 -0.918822
C230  C     C_3   0.742833 0.577102 0.910510 -0.971296
C231  C     C_3   0.283286 0.457515 0.152434 -0.967088
C232  C     C_3   0.110684 0.565613 0.738606 -0.969765
C233  C     C_3   0.978769 0.341513 0.334445 -0.919524
C234  C     C_3   0.397542 0.563017 0.209992 -0.893297
C235  C     C_R   0.225104 0.224816 0.288148 -0.243679
C236  C     C_3   0.739597 0.352782 0.958035 -0.944135
C237  C     C_3   0.893538 0.569168 0.260572 -0.976621
C238  C     C_3   0.023724 0.345646 0.670599 -0.919402
C239  C     C_R   0.776266 0.771027 0.710428 -0.237811
C240  C     C_R   0.291840 0.764759 0.233593 -0.231108
C241  C     C_R   0.707070 0.230069 0.766654 -0.230160
C242  C     C_R   0.293139 0.771388 0.767824 -0.233930
C243  C     C_R   0.708705 0.232682 0.228131 -0.233153
C244  C     C_R   0.288018 0.226158 0.774888 -0.242589
C245  C     C_R   0.707296 0.768264 0.231559 -0.232093
C246  C     C_R   0.292169 0.232706 0.232431 -0.230806
C247  C     C_R   0.271933 0.207868 0.730328 0.126107
C248  C     C_R   0.711477 0.770873 0.769008 -0.229374
C249  C     C_R   0.232310 0.293183 0.768209 -0.225135
C250  C     C_R   0.772928 0.710390 0.230250 -0.230075
C251  C     C_R   0.767799 0.292756 0.767011 -0.227659
C252  C     C_R   0.227893 0.705268 0.232883 -0.228684
C253  C     C_R   0.771669 0.292886 0.233123 -0.236126
C254  C     C_R   0.233468 0.707616 0.767125 -0.229703
C255  C     C_R   0.226370 0.290325 0.230403 -0.227001
C256  C     C_R   0.769776 0.705684 0.768381 -0.228203
C257  C     C_R   0.921468 0.385311 0.559804 -0.143321
C258  C     C_R   0.206113 0.728257 0.272329 0.120220
C259  C     C_R   0.080208 0.614220 0.442169 -0.100427
C260  C     C_R   0.615492 0.922751 0.559667 -0.112252
C261  C     C_R   0.385324 0.079101 0.440895 -0.106556
C262  C     C_R   0.077748 0.615050 0.559862 -0.103338
C263  C     C_R   0.919066 0.386124 0.442633 -0.103454
C264  C     C_R   0.385067 0.078941 0.558953 -0.113364
C265  C     C_R   0.614864 0.921163 0.440719 -0.082377
C266  C     C_R   0.922061 0.615069 0.440239 -0.098699
C267  C     C_R   0.081404 0.386272 0.557442 -0.103876
C268  C     C_R   0.614568 0.079504 0.441265 -0.111955
C269  C     C_R   0.791455 0.270202 0.728120 0.127687
C270  C     C_R   0.384938 0.921742 0.559312 -0.080673
C271  C     C_R   0.078111 0.385028 0.440115 -0.143545
C272  C     C_R   0.919435 0.614149 0.557793 -0.107543
C273  C     C_R   0.384712 0.922520 0.440375 -0.112744
C274  C     C_R   0.614756 0.078740 0.559015 -0.106050
C275  C     C_R   0.558494 0.921097 0.384804 -0.134972
C276  C     C_R   0.440707 0.077830 0.615503 -0.096470
C277  C     C_R   0.559304 0.615402 0.922466 -0.100388
C278  C     C_R   0.440630 0.385221 0.078970 -0.130315
C279  C     C_R   0.557981 0.080313 0.614472 -0.112040
C280  C     C_R   0.270318 0.209110 0.271749 0.126915
C281  C     C_R   0.440930 0.921409 0.384771 -0.133222
C282  C     C_R   0.558555 0.385595 0.079996 -0.124975
C283  C     C_R   0.441976 0.613896 0.919025 -0.095632
C284  C     C_R   0.441146 0.921537 0.615391 -0.136767
C285  C     C_R   0.558759 0.078616 0.384810 -0.097677
C286  C     C_R   0.441698 0.614447 0.079926 -0.141828
C287  C     C_R   0.559083 0.385497 0.920411 -0.083682
C288  C     C_R   0.442163 0.080442 0.385535 -0.110582
C289  C     C_R   0.559412 0.921677 0.615379 -0.134134
C290  C     C_R   0.440669 0.384904 0.921770 -0.142102
C291  C     C_R   0.733458 0.791517 0.728078 0.123225
C292  C     C_R   0.559572 0.614941 0.078543 -0.130790
C293  C     C_R   0.385890 0.557934 0.919218 -0.126022
C294  C     C_R   0.614391 0.441772 0.080166 -0.094626
C295  C     C_R   0.920669 0.558871 0.614890 -0.126880
C296  C     C_R   0.079354 0.441814 0.384965 -0.123227
C297  C     C_R   0.615511 0.559141 0.077520 -0.100856
C298  C     C_R   0.385068 0.441145 0.920970 -0.113215
C299  C     C_R   0.079392 0.558880 0.385151 -0.132715
C300  C     C_R   0.920183 0.442225 0.614811 -0.124601
C301  C     C_R   0.614730 0.441774 0.920406 -0.143767
C302  C     C_R   0.792805 0.726950 0.728596 0.117214
C303  C     C_R   0.385540 0.558637 0.079920 -0.078395
C304  C     C_R   0.080693 0.441760 0.614301 -0.130356
C305  C     C_R   0.920989 0.558611 0.384819 -0.144309
C306  C     C_R   0.384657 0.441044 0.077901 -0.100604
C307  C     C_R   0.615057 0.559411 0.921479 -0.130661
C308  C     C_R   0.919736 0.441434 0.385538 -0.130375
C309  C     C_R   0.078909 0.558533 0.615203 -0.125327
C310  C     C_R   0.802561 0.314177 0.353847 -0.278657
C311  C     C_R   0.182984 0.701166 0.647025 -0.242201
C312  C     C_R   0.694892 0.811899 0.351929 -0.273108
H1    H     H_    0.777237 0.216752 0.329492 0.119861
H2    H     H_    0.672130 0.217185 0.778660 0.116376
H3    H     H_    0.366007 0.283147 0.782535 0.142337
H4    H     H_    0.628614 0.216889 0.281709 0.131309
H5    H     H_    0.322556 0.872055 0.755023 0.138810
H6    H     H_    0.631721 0.294947 0.772192 0.131344
H7    H     H_    0.318339 0.749495 0.132543 0.142681
H8    H     H_    0.245501 0.323619 0.871778 0.134298
H9    H     H_    0.720026 0.630338 0.215287 0.134084
H10   H     H_    0.865551 0.328160 0.756034 0.130775
H11   H     H_    0.117228 0.690753 0.253484 0.128657
H12   H     H_    0.711824 0.369047 0.223245 0.131812
H13   H     H_    0.327707 0.784985 0.780178 0.117786
H14   H     H_    0.249829 0.677786 0.867333 0.127871
H15   H     H_    0.129326 0.325028 0.243852 0.131604
H16   H     H_    0.884183 0.694011 0.744425 0.129676
H17   H     H_    0.755204 0.672817 0.866401 0.133496
H18   H     H_    0.280118 0.370502 0.216094 0.134711
H19   H     H_    0.137937 0.669515 0.757186 0.129625
H20   H     H_    0.878072 0.307121 0.256552 0.129071
H21   H     H_    0.292799 0.629514 0.227235 0.131533
H22   H     H_    0.751437 0.320039 0.867553 0.142811
H23   H     H_    0.868621 0.674464 0.243456 0.130780
H24   H     H_    0.675676 0.219643 0.211649 0.115692
H25   H     H_    0.126623 0.312806 0.746302 0.127623
H26   H     H_    0.787447 0.334960 0.444616 0.174829
H27   H     H_    0.773943 0.416811 0.465555 0.247759
H28   H     H_    0.753822 0.407050 0.403896 0.245426
H29   H     H_    0.811333 0.435886 0.415772 0.258394
H30   H     H_    0.199611 0.658339 0.557885 0.174193
H31   H     H_    0.154984 0.709387 0.501660 0.250300
H32   H     H_    0.180431 0.743785 0.550951 0.248620
H33   H     H_    0.116956 0.727715 0.551312 0.257499
H34   H     H_    0.687867 0.806175 0.445441 0.163799
H35   H     H_    0.318564 0.209282 0.792820 0.119736
H36   H     H_    0.611878 0.786015 0.479476 0.243238
H37   H     H_    0.616630 0.759405 0.419777 0.244243
H38   H     H_    0.581603 0.813911 0.428962 0.260638
H39   H     H_    0.256274 0.083073 0.601647 0.164153
H40   H     H_    0.283144 0.001213 0.601963 0.245955
H41   H     H_    0.276422 0.022415 0.663583 0.250484
H42   H     H_    0.335864 0.018479 0.635862 0.271736
H43   H     H_    0.209439 0.669590 0.441938 0.164688
H44   H     H_    0.225617 0.588560 0.464312 0.246090
H45   H     H_    0.245044 0.597855 0.402365 0.243595
H46   H     H_    0.671279 0.778778 0.220246 0.122182
H47   H     H_    0.188528 0.567472 0.415109 0.258044
H48   H     H_    0.828293 0.369176 0.549868 0.184251
H49   H     H_    0.854604 0.300401 0.507185 0.244318
H50   H     H_    0.793110 0.284938 0.522274 0.252392
H51   H     H_    0.842439 0.262100 0.558533 0.256275
H52   H     H_    0.299589 0.180750 0.447876 0.162216
H53   H     H_    0.370552 0.207914 0.488077 0.246846
H54   H     H_    0.364832 0.239259 0.430786 0.248356
H55   H     H_    0.406611 0.189214 0.437091 0.260801
H56   H     H_    0.669904 0.806532 0.555022 0.171992
H57   H     H_    0.328421 0.222612 0.221576 0.121105
H58   H     H_    0.719572 0.859328 0.504388 0.248670
H59   H     H_    0.753414 0.832542 0.553493 0.251568
H60   H     H_    0.732439 0.894397 0.557593 0.257492
H61   H     H_    0.784437 0.661357 0.561855 0.163618
H62   H     H_    0.772264 0.578961 0.542178 0.246236
H63   H     H_    0.754846 0.588760 0.604647 0.243963
H64   H     H_    0.812549 0.561269 0.590264 0.257809
H65   H     H_    0.171300 0.367618 0.448768 0.183831
H66   H     H_    0.144769 0.299505 0.492345 0.244396
H67   H     H_    0.205968 0.283208 0.476675 0.252050
H68   H     H_    0.678046 0.785816 0.782728 0.117088
H69   H     H_    0.156038 0.260648 0.441228 0.256408
H70   H     H_    0.701133 0.179051 0.551463 0.162426
H71   H     H_    0.630093 0.207847 0.512365 0.247062
H72   H     H_    0.636923 0.238548 0.569850 0.248227
H73   H     H_    0.594381 0.189298 0.563621 0.260857
H74   H     H_    0.331350 0.805999 0.446455 0.172701
H75   H     H_    0.280389 0.859759 0.494880 0.248719
H76   H     H_    0.247701 0.831742 0.445763 0.251427
H77   H     H_    0.268307 0.893567 0.440618 0.257762
H78   H     H_    0.211823 0.332208 0.554714 0.174116
H79   H     H_    0.220701 0.328762 0.779657 0.125345
H80   H     H_    0.224751 0.412978 0.529665 0.246625
H81   H     H_    0.246659 0.405812 0.591086 0.246748
H82   H     H_    0.188852 0.434434 0.579608 0.258378
H83   H     H_    0.797839 0.655194 0.438785 0.173539
H84   H     H_    0.837944 0.704443 0.499448 0.250936
H85   H     H_    0.814826 0.740688 0.450249 0.247312
H86   H     H_    0.878504 0.725452 0.452985 0.256103
H87   H     H_    0.311730 0.807471 0.554616 0.164254
H88   H     H_    0.388195 0.785631 0.522656 0.243727
H89   H     H_    0.381864 0.760139 0.582715 0.243729
H90   H     H_    0.788099 0.677037 0.216625 0.118082
H91   H     H_    0.417682 0.813969 0.573301 0.260472
H92   H     H_    0.742338 0.082183 0.394995 0.164124
H93   H     H_    0.714734 0.000768 0.392314 0.246492
H94   H     H_    0.719901 0.024234 0.331349 0.250000
H95   H     H_    0.661241 0.019946 0.360621 0.271586
H96   H     H_    0.380562 0.933518 0.262732 0.177852
H97   H     H_    0.463596 0.910522 0.250444 0.250809
H98   H     H_    0.422474 0.863411 0.232318 0.257500
H99   H     H_    0.453978 0.859539 0.289875 0.261053
H100  H     H_    0.597312 0.090228 0.744627 0.164670
H101  H     H_    0.778985 0.328413 0.778482 0.122936
H102  H     H_    0.590028 0.008798 0.717753 0.251561
H103  H     H_    0.653019 0.023729 0.727312 0.251303
H104  H     H_    0.627980 0.021722 0.666479 0.265647
H105  H     H_    0.447396 0.679398 0.796371 0.166543
H106  H     H_    0.478090 0.601422 0.779618 0.243949
H107  H     H_    0.417938 0.606511 0.754640 0.244564
H108  H     H_    0.428088 0.574646 0.811222 0.259005
H109  H     H_    0.611188 0.260097 0.075547 0.163109
H110  H     H_    0.616136 0.292598 0.995426 0.244764
H111  H     H_    0.675789 0.288476 0.021670 0.250219
H112  H     H_    0.209048 0.791486 0.680349 0.121527
H113  H     H_    0.214139 0.670731 0.220730 0.121259
H114  H     H_    0.644348 0.345967 0.019210 0.272099
H115  H     H_    0.447186 0.179818 0.700877 0.162595
H116  H     H_    0.485119 0.207567 0.628587 0.247485
H117  H     H_    0.427647 0.237820 0.635407 0.248079
H118  H     H_    0.434050 0.187827 0.593458 0.260967
H119  H     H_    0.582630 0.914741 0.274650 0.160609
H120  H     H_    0.618457 0.995377 0.261550 0.252653
H121  H     H_    0.646645 0.947987 0.226766 0.241936
H122  H     H_    0.674996 0.970030 0.281688 0.265338
H123  H     H_    0.365073 0.278741 0.048990 0.170265
H124  H     H_    0.787195 0.326618 0.220835 0.120897
H125  H     H_    0.446094 0.248337 0.061088 0.252466
H126  H     H_    0.405367 0.224783 0.106319 0.250971
H127  H     H_    0.445689 0.274077 0.121169 0.256988
H128  H     H_    0.556719 0.661674 0.799015 0.173520
H129  H     H_    0.504587 0.713003 0.848951 0.249442
H130  H     H_    0.553956 0.745800 0.821860 0.251277
H131  H     H_    0.556481 0.727567 0.885047 0.254995
H132  H     H_    0.618661 0.933855 0.738560 0.178287
H133  H     H_    0.536653 0.907411 0.749026 0.251532
H134  H     H_    0.579479 0.861262 0.766162 0.257379
H135  H     H_    0.222746 0.671753 0.778388 0.121807
H136  H     H_    0.548781 0.858105 0.708145 0.260514
H137  H     H_    0.404219 0.091478 0.255224 0.164976
H138  H     H_    0.408853 0.009563 0.280667 0.251756
H139  H     H_    0.346277 0.026582 0.271836 0.251677
H140  H     H_    0.371690 0.022923 0.332457 0.265436
H141  H     H_    0.634742 0.721500 0.047893 0.169695
H142  H     H_    0.553644 0.751781 0.059875 0.251473
H143  H     H_    0.594408 0.775687 0.104891 0.252651
H144  H     H_    0.554236 0.726380 0.120122 0.257328
H145  H     H_    0.448937 0.369062 0.828078 0.182529
H146  H     H_    0.211370 0.323859 0.216966 0.118689
H147  H     H_    0.489473 0.298904 0.853844 0.244145
H148  H     H_    0.476073 0.285528 0.790949 0.252142
H149  H     H_    0.438490 0.261780 0.838668 0.255213
H150  H     H_    0.550259 0.185849 0.304990 0.163194
H151  H     H_    0.514423 0.210389 0.379513 0.248056
H152  H     H_    0.572047 0.240179 0.372835 0.246945
H153  H     H_    0.566081 0.188197 0.412324 0.260337
H154  H     H_    0.415228 0.917140 0.724810 0.159460
H155  H     H_    0.380044 0.998005 0.737920 0.252098
H156  H     H_    0.351057 0.951061 0.772534 0.242039
H157  H     H_    0.780568 0.669827 0.779787 0.125343
H158  H     H_    0.323345 0.973609 0.717400 0.264889
H159  H     H_    0.554512 0.324622 0.795870 0.172644
H160  H     H_    0.525635 0.403629 0.780608 0.246135
H161  H     H_    0.585969 0.397951 0.756307 0.246331
H162  H     H_    0.575776 0.428525 0.813574 0.259689
H163  H     H_    0.413403 0.715775 0.078877 0.160412
H164  H     H_    0.367792 0.738234 0.004870 0.256258
H165  H     H_    0.352770 0.773761 0.057555 0.242507
H166  H     H_    0.313456 0.725118 0.038392 0.263356
H167  H     H_    0.282273 0.361969 0.956424 0.169031
H168  H     H_    0.922203 0.349948 0.543438 0.117182
H169  H     H_    0.249209 0.442339 0.948407 0.251884
H170  H     H_    0.223774 0.402134 0.903775 0.251327
H171  H     H_    0.271070 0.443995 0.886786 0.256964
H172  H     H_    0.663159 0.555899 0.200108 0.173754
H173  H     H_    0.714079 0.504147 0.149236 0.249394
H174  H     H_    0.747224 0.553080 0.176602 0.251772
H175  H     H_    0.728532 0.556261 0.113567 0.255209
H176  H     H_    0.942682 0.376107 0.730999 0.178060
H177  H     H_    0.922559 0.458111 0.751307 0.252532
H178  H     H_    0.876931 0.416629 0.772256 0.253601
H179  H     H_    0.080993 0.649041 0.459722 0.094728
H180  H     H_    0.867107 0.451707 0.717602 0.259152
H181  H     H_    0.050785 0.635822 0.268578 0.159672
H182  H     H_    0.995275 0.627436 0.348105 0.262389
H183  H     H_    0.995510 0.680769 0.310213 0.237200
H184  H     H_    0.031086 0.678834 0.364758 0.249932
H185  H     H_    0.681572 0.446401 0.201501 0.166809
H186  H     H_    0.603302 0.475354 0.220382 0.244535
H187  H     H_    0.610002 0.415026 0.244262 0.243889
H188  H     H_    0.576714 0.425465 0.188537 0.259245
H189  H     H_    0.259955 0.608835 0.921205 0.164000
H190  H     H_    0.650462 0.925225 0.542694 0.125887
H191  H     H_    0.291141 0.616449 0.001543 0.246272
H192  H     H_    0.287276 0.675251 0.973562 0.249697
H193  H     H_    0.344891 0.644113 0.977825 0.272132
H194  H     H_    0.053905 0.375151 0.269506 0.179837
H195  H     H_    0.075214 0.456543 0.248307 0.253489
H196  H     H_    0.119891 0.414001 0.227124 0.253637
H197  H     H_    0.130956 0.449217 0.281384 0.257944
H198  H     H_    0.952014 0.639892 0.727108 0.161282
H199  H     H_    0.016408 0.661105 0.673405 0.245117
H200  H     H_    0.974758 0.710868 0.678088 0.247803
H201  H     H_    0.350001 0.078476 0.457530 0.098882
H202  H     H_    0.973854 0.671439 0.625614 0.253538
H203  H     H_    0.721305 0.634981 0.952811 0.169660
H204  H     H_    0.752007 0.553954 0.942118 0.251388
H205  H     H_    0.776492 0.594261 0.897047 0.252648
H206  H     H_    0.727420 0.553880 0.881510 0.257269
H207  H     H_    0.338658 0.444373 0.201304 0.173830
H208  H     H_    0.287775 0.497172 0.151504 0.249184
H209  H     H_    0.254291 0.448421 0.178776 0.251852
H210  H     H_    0.272230 0.445576 0.115526 0.255408
H211  H     H_    0.060714 0.620479 0.734272 0.171775
H212  H     H_    0.075972 0.650231 0.543275 0.118921
H213  H     H_    0.083920 0.538555 0.751107 0.251054
H214  H     H_    0.129742 0.580402 0.770851 0.252908
H215  H     H_    0.137269 0.547221 0.714660 0.259249
H216  H     H_    0.945277 0.361620 0.269399 0.159823
H217  H     H_    0.001800 0.371074 0.348410 0.263095
H218  H     H_    0.000904 0.317334 0.311198 0.236116
H219  H     H_    0.965773 0.320059 0.365978 0.250370
H220  H     H_    0.324083 0.552743 0.204302 0.165813
H221  H     H_    0.403445 0.524514 0.219394 0.244367
H222  H     H_    0.397229 0.584576 0.244019 0.243843
H223  H     H_    0.789082 0.792426 0.320299 0.121266
H224  H     H_    0.918075 0.351348 0.460255 0.085925
H225  H     H_    0.428015 0.574945 0.186754 0.260145
H226  H     H_    0.715474 0.414434 0.922794 0.160766
H227  H     H_    0.740693 0.368073 0.995276 0.256951
H228  H     H_    0.776196 0.355853 0.941805 0.242703
H229  H     H_    0.729385 0.314171 0.960565 0.262076
H230  H     H_    0.943691 0.623359 0.267344 0.180235
H231  H     H_    0.920429 0.542039 0.248313 0.253129
H232  H     H_    0.875530 0.584852 0.228097 0.253796
H233  H     H_    0.866102 0.550634 0.283344 0.258344
H234  H     H_    0.059692 0.367835 0.733533 0.160755
H235  H     H_    0.350673 0.080417 0.540569 0.116137
H236  H     H_    0.999923 0.374988 0.657233 0.262003
H237  H     H_    0.002845 0.321861 0.695321 0.235392
H238  H     H_    0.035304 0.323683 0.638856 0.250951
H239  H     H_    0.649898 0.920603 0.458043 0.099190
H240  H     H_    0.923742 0.650281 0.456754 0.115747
H241  H     H_    0.082740 0.351490 0.539877 0.087084
H242  H     H_    0.649062 0.081111 0.459457 0.114138
H243  H     H_    0.349922 0.921602 0.541944 0.098141
H244  H     H_    0.077069 0.349674 0.456522 0.117769
H245  H     H_    0.918282 0.648952 0.540189 0.095090
H246  H     H_    0.349721 0.924727 0.457347 0.126396
H247  H     H_    0.222221 0.218273 0.671001 0.119175
H248  H     H_    0.650078 0.077711 0.542388 0.098514
H249  H     H_    0.540085 0.919748 0.350340 0.095819
H250  H     H_    0.457454 0.076689 0.650932 0.097702
H251  H     H_    0.542279 0.650345 0.924235 0.119540
H252  H     H_    0.458902 0.350968 0.080509 0.128784
H253  H     H_    0.539215 0.082511 0.648707 0.121797
H254  H     H_    0.459606 0.920608 0.350660 0.137141
H255  H     H_    0.540976 0.350906 0.081200 0.110646
H256  H     H_    0.459296 0.648747 0.917761 0.100421
H257  H     H_    0.459410 0.920310 0.649967 0.095339
H258  H     H_    0.208347 0.788243 0.321140 0.123150
H259  H     H_    0.541997 0.077962 0.349388 0.096203
H260  H     H_    0.460215 0.648507 0.082040 0.088206
H261  H     H_    0.541760 0.350642 0.919223 0.088205
H262  H     H_    0.460987 0.082613 0.351354 0.121075
H263  H     H_    0.540827 0.921143 0.649570 0.137594
H264  H     H_    0.457688 0.349840 0.922347 0.115246
H265  H     H_    0.541422 0.649254 0.079816 0.129024
H266  H     H_    0.351251 0.540232 0.917682 0.110669
H267  H     H_    0.649299 0.459105 0.080978 0.099739
H268  H     H_    0.920603 0.542381 0.650435 0.099057
H269  H     H_    0.792355 0.208731 0.680612 0.118431
H270  H     H_    0.080702 0.460787 0.350956 0.133156
H271  H     H_    0.650459 0.542052 0.075641 0.120520
H272  H     H_    0.350712 0.459335 0.919740 0.123410
H273  H     H_    0.079617 0.542324 0.349650 0.104035
H274  H     H_    0.918527 0.461360 0.648678 0.133347
H275  H     H_    0.648695 0.460508 0.918278 0.087425
H276  H     H_    0.350666 0.541258 0.081118 0.095850
H277  H     H_    0.081619 0.458591 0.649647 0.105384
H278  H     H_    0.919952 0.539849 0.350701 0.137684
H279  H     H_    0.349716 0.458179 0.076207 0.120078
H280  H     H_    0.208603 0.207188 0.319115 0.118160
H281  H     H_    0.649405 0.541246 0.920227 0.128662
H282  H     H_    0.918959 0.458103 0.350083 0.103771
H283  H     H_    0.080076 0.539585 0.649198 0.134620
H284  H     H_    0.767574 0.301580 0.366093 0.134022
H285  H     H_    0.210640 0.723364 0.630575 0.126728
H286  H     H_    0.714382 0.781436 0.366978 0.123546
H287  H     H_    0.244768 0.132053 0.673346 0.128139
H288  H     H_    0.228048 0.701521 0.362366 0.130012
H289  H     H_    0.786236 0.279643 0.631339 0.141426
H290  H     H_    0.277528 0.212431 0.369286 0.125300
H291  H     H_    0.793644 0.786019 0.678566 0.122604
H292  H     H_    0.729333 0.794060 0.629653 0.127062
H293  H     H_    0.766962 0.693751 0.641983 0.131413
H294  H     H_    0.211162 0.277207 0.367464 0.140917
H295  H     H_    0.724166 0.209954 0.630000 0.125308
H296  H     H_    0.273805 0.791193 0.371008 0.126229
H297  H     H_    0.233737 0.301726 0.633871 0.133149
H298  H     H_    0.789632 0.723669 0.368384 0.127249
H299  H     H_    0.283640 0.784128 0.632865 0.124024
H300  H     H_    0.752430 0.132799 0.324088 0.128678
H301  H     H_    0.331971 0.858003 0.243052 0.129291
H302  H     H_    0.327678 0.775428 0.222052 0.121538
H303  H     H_    0.671538 0.133901 0.755386 0.127144
H304  H     H_    0.369791 0.708720 0.773367 0.131231
H305  H     H_    0.681554 0.250181 0.127773 0.128426
H306  H     H_    0.368701 0.211132 0.723225 0.125637
H307  H     H_    0.673915 0.868165 0.244319 0.137382
H308  H     H_    0.325611 0.246339 0.134617 0.133225
H309  H     H_    0.631450 0.717912 0.783526 0.134055
H310  H     H_    0.672125 0.863200 0.757006 0.129106
H311  H     H_    0.330904 0.136941 0.243911 0.125784
H312  H     H_    0.673867 0.754382 0.133788 0.133233
N1    N     N_R   0.946030 0.423710 0.543310 -0.040516
N2    N     N_R   0.053970 0.423710 0.543310 -0.044292
N3    N     N_R   0.576290 0.053970 0.456690 -0.046033
N4    N     N_R   0.423710 0.946030 0.543310 -0.046984
N5    N     N_R   0.053970 0.423710 0.456690 -0.040456
N6    N     N_R   0.946030 0.576290 0.543310 -0.044889
N7    N     N_R   0.423710 0.946030 0.456690 -0.047309
N8    N     N_R   0.576290 0.053970 0.543310 -0.047245
N9    N     N_R   0.543310 0.946030 0.423710 -0.043033
N10   N     N_R   0.456690 0.053970 0.576290 -0.046410
N11   N     N_R   0.543310 0.576290 0.946030 -0.047015
N12   N     N_R   0.053970 0.576290 0.456690 -0.046321
N13   N     N_R   0.456690 0.423710 0.053970 -0.045349
N14   N     N_R   0.543310 0.053970 0.576290 -0.045743
N15   N     N_R   0.456690 0.946030 0.423710 -0.044555
N16   N     N_R   0.543310 0.423710 0.053970 -0.044699
N17   N     N_R   0.456690 0.576290 0.946030 -0.046565
N18   N     N_R   0.456690 0.946030 0.576290 -0.042706
N19   N     N_R   0.543310 0.053970 0.423710 -0.046241
N20   N     N_R   0.456690 0.576290 0.053970 -0.042070
N21   N     N_R   0.543310 0.423710 0.946030 -0.045376
N22   N     N_R   0.456690 0.053970 0.423710 -0.045768
N23   N     N_R   0.576290 0.946030 0.543310 -0.047223
N24   N     N_R   0.543310 0.946030 0.576290 -0.044436
N25   N     N_R   0.456690 0.423710 0.946030 -0.041159
N26   N     N_R   0.543310 0.576290 0.053970 -0.045241
N27   N     N_R   0.423710 0.543310 0.946030 -0.045935
N28   N     N_R   0.576290 0.456690 0.053970 -0.046524
N29   N     N_R   0.946030 0.543310 0.576290 -0.042309
N30   N     N_R   0.053970 0.456690 0.423710 -0.043127
N31   N     N_R   0.576290 0.543310 0.053970 -0.046973
N32   N     N_R   0.423710 0.456690 0.946030 -0.045343
N33   N     N_R   0.053970 0.543310 0.423710 -0.044014
N34   N     N_R   0.423710 0.053970 0.456690 -0.047254
N35   N     N_R   0.946030 0.456690 0.576290 -0.043388
N36   N     N_R   0.576290 0.456690 0.946030 -0.042028
N37   N     N_R   0.423710 0.543310 0.053970 -0.046905
N38   N     N_R   0.053970 0.456690 0.576290 -0.044545
N39   N     N_R   0.946030 0.543310 0.423710 -0.043819
N40   N     N_R   0.423710 0.456690 0.053970 -0.047440
N41   N     N_R   0.576290 0.543310 0.946030 -0.045488
N42   N     N_R   0.946030 0.456690 0.423710 -0.043262
N43   N     N_R   0.053970 0.543310 0.576290 -0.045085
N44   N     N_2   0.809011 0.360739 0.428581 -0.111827
N45   N     N_R   0.053970 0.576290 0.543310 -0.047416
N46   N     N_2   0.165454 0.670681 0.566266 -0.106850
N47   N     N_2   0.657508 0.822410 0.431056 -0.114319
N48   N     N_2   0.291488 0.075709 0.611499 -0.121228
N49   N     N_2   0.188589 0.642865 0.426510 -0.111231
N50   N     N_2   0.825172 0.336530 0.567469 -0.106933
N51   N     N_2   0.332673 0.170552 0.433970 -0.117888
N52   N     N_2   0.678550 0.841072 0.565770 -0.108255
N53   N     N_2   0.807445 0.636196 0.577012 -0.110603
N54   N     N_2   0.173778 0.334804 0.431394 -0.107224
N55   N     N_2   0.668079 0.169320 0.565697 -0.117841
N56   N     N_R   0.946030 0.423710 0.456690 -0.044036
N57   N     N_2   0.322728 0.840280 0.434753 -0.108052
N58   N     N_2   0.190738 0.358784 0.570167 -0.112859
N59   N     N_2   0.832058 0.668536 0.432731 -0.105907
N60   N     N_2   0.341938 0.823520 0.569385 -0.113791
N61   N     N_2   0.706812 0.075667 0.385793 -0.120609
N62   N     N_2   0.397141 0.910518 0.287011 -0.117114
N63   N     N_2   0.606791 0.081381 0.709489 -0.119777
N64   N     N_2   0.432691 0.650714 0.815049 -0.113362
N65   N     N_2   0.618935 0.296244 0.071438 -0.121718
N66   N     N_2   0.432935 0.169238 0.667927 -0.118046
N67   N     N_R   0.423710 0.053970 0.543310 -0.046001
N68   N     N_2   0.613391 0.926436 0.292150 -0.111595
N69   N     N_2   0.386431 0.292391 0.076414 -0.112334
N70   N     N_2   0.566304 0.671572 0.833814 -0.105994
N71   N     N_2   0.603473 0.911010 0.713307 -0.116697
N72   N     N_2   0.394150 0.082555 0.290175 -0.119620
N73   N     N_2   0.613445 0.707954 0.075409 -0.113609
N74   N     N_2   0.430961 0.336895 0.823498 -0.106264
N75   N     N_2   0.565230 0.173442 0.336983 -0.117089
N76   N     N_2   0.384457 0.929011 0.707365 -0.111605
N77   N     N_2   0.569573 0.352525 0.815381 -0.114354
N78   N     N_R   0.576290 0.946030 0.456690 -0.047078
N79   N     N_2   0.378965 0.703718 0.071637 -0.106701
N80   N     N_2   0.293701 0.384321 0.928792 -0.111609
N81   N     N_2   0.672803 0.565673 0.165289 -0.106286
N82   N     N_2   0.916964 0.394254 0.710956 -0.116561
N83   N     N_2   0.057195 0.636275 0.305500 -0.112457
N84   N     N_2   0.652723 0.431511 0.183176 -0.113125
N85   N     N_2   0.296019 0.617118 0.925545 -0.121033
N86   N     N_2   0.080232 0.392835 0.289066 -0.115051
N87   N     N_2   0.945061 0.641984 0.690343 -0.111426
N88   N     N_2   0.708174 0.613370 0.925360 -0.113508
N89   N     N_R   0.946030 0.576290 0.456690 -0.046739
N90   N     N_2   0.328408 0.434949 0.166563 -0.106346
N91   N     N_2   0.085964 0.603717 0.712490 -0.115895
N92   N     N_2   0.939374 0.362054 0.306401 -0.112624
N93   N     N_2   0.351908 0.568125 0.184833 -0.112924
N94   N     N_2   0.704849 0.379435 0.929216 -0.106572
N95   N     N_2   0.917805 0.606430 0.288137 -0.115664
N96   N     N_2   0.064317 0.366611 0.696365 -0.113044
Ni1   Ni    Ni4+2 1.000000 0.424390 0.500000 0.208355
Ni2   Ni    Ni4+2 0.575610 0.500000 0.000000 0.210239
Ni3   Ni    Ni4+2 1.000000 0.500000 0.575610 0.217685
Ni4   Ni    Ni4+2 1.000000 0.500000 0.424390 0.214108
Ni5   Ni    Ni4+2 0.000000 0.575610 0.500000 0.204379
Ni6   Ni    Ni4+2 0.575610 0.000000 0.500000 0.207462
Ni7   Ni    Ni4+2 0.424390 0.000000 0.500000 0.207346
Ni8   Ni    Ni4+2 0.500000 0.000000 0.424390 0.213280
Ni9   Ni    Ni4+2 0.500000 0.000000 0.575610 0.212627
Ni10  Ni    Ni4+2 0.500000 0.575610 0.000000 0.210319
Ni11  Ni    Ni4+2 0.500000 0.424390 0.000000 0.214312
Ni12  Ni    Ni4+2 0.424390 0.500000 0.000000 0.213189

loop_
_geom_bond_atom_site_label_1
_geom_bond_atom_site_label_2
_ccdc_geom_bond_type
C48   H21   S    
C50   C147  A    
C229  N87   S    
C75   C107  A    
C157  C158  S    
C180  C293  A    
C39   C92   A    
C192  N51   S    
C10   C63   A    
C289  N24   A    
C40   C93   A    
N6    N29   A    
C233  H217  S    
C293  H266  S    
C251  C269  A    
C290  H264  S    
C198  N58   S    
C220  H170  S    
C282  N16   A    
C34   C155  A    
C49   H22   S    
C54   C107  A    
N2    Ni1   S    
C169  C304  A    
C252  C258  A    
C231  H209  S    
N8    N14   A    
C206  H110  S    
N43   N45   A    
C51   C145  A    
C196  N55   S    
C67   C121  A    
C127  C176  S    
C19   C150  A    
N22   Ni8   S    
C208  H120  S    
C278  H252  S    
C78   N71   S    
C194  H62   S    
C17   H301  S    
C46   C250  A    
C261  N34   A    
C251  H101  S    
C232  H214  S    
N27   Ni12  S    
H154  N76   S    
C122  C170  S    
C242  H13   S    
C274  H248  S    
C61   C115  A    
C59   C111  A    
C16   C149  A    
C206  N65   S    
C26   H310  S    
C256  C302  A    
C21   H306  S    
C24   C240  A    
C25   H309  S    
C29   C155  A    
C234  H225  S    
C253  H124  S    
C129  C183  S    
C27   H311  S    
C50   C103  A    
H43   N49   S    
C4    C56   A    
C219  H166  S    
C238  H237  S    
N42   N56   A    
H226  N94   S    
N39   N89   A    
C172  C271  A    
C189  N49   S    
C101  C246  A    
C200  N60   S    
C81   N73   S    
C230  H204  S    
C14   H298  S    
N31   Ni2   S    
C195  H69   S    
N10   N67   A    
C48   C100  A    
C202  H95   S    
C209  H127  S    
C3    H287  S    
C228  H197  S    
C102  C130  A    
C98   N91   S    
C293  N27   A    
C49   C102  A    
C225  H184  S    
C232  H213  S    
C16   H300  S    
C114  C161  S    
C162  C261  A    
H234  N96   S    
C51   C104  A    
C48   C158  A    
C96   C127  A    
C192  H54   S    
C94   N86   S    
C93   N85   S    
C263  N56   A    
C185  H27   S    
C222  H177  S    
C57   C242  A    
C234  H222  S    
C239  C302  A    
H30   N46   S    
C39   H12   S    
C287  H261  S    
C41   C94   A    
C164  C308  A    
C310  H284  S    
C43   C96   A    
C192  H53   S    
C105  C164  S    
C40   C150  A    
H211  N91   S    
C106  C163  S    
C294  H267  S    
C180  C283  A    
H65   N54   S    
C70   N62   S    
C181  C286  A    
H128  N70   S    
C62   N54   S    
C297  N31   A    
C81   C128  A    
C262  H212  S    
C254  H135  S    
C218  H162  S    
C13   C224  A    
C263  H224  S    
C233  H219  S    
C33   C158  A    
C198  H81   S    
C266  H240  S    
N11   N41   A    
C18   C71   A    
C96   N88   S    
C174  C281  A    
C268  H242  S    
H150  N75   S    
N19   Ni8   S    
C58   C110  A    
C227  H193  S    
C295  N29   A    
C15   H299  S    
C97   C126  A    
C205  H107  S    
C189  H45   S    
C100  N93   S    
C20   C151  A    
H83   N59   S    
C207  H117  S    
C45   C133  A    
C98   C106  A    
C244  C247  A    
C146  C251  A    
C45   C98   A    
C268  N3    A    
N38   Ni3   S    
N5    N30   A    
C167  C266  A    
C29   C82   A    
C197  N57   S    
C243  H24   S    
C140  C291  S    
C204  H102  S    
C91   N83   S    
C236  H227  S    
C257  N1    A    
C178  C282  A    
C283  N17   A    
C89   C110  A    
C52   C310  A    
C20   C73   A    
C61   N53   S    
C34   C87   A    
C53   C311  A    
C224  H269  S    
H56   N52   S    
H52   N51   S    
C189  H44   S    
C59   N51   S    
C241  H2    S    
C281  H254  S    
H70   N55   S    
C219  H164  S    
C292  H265  S    
C215  H149  S    
C9    H294  S    
C252  H113  S    
C271  N5    A    
C264  H235  S    
C195  H67   S    
C11   H296  S    
C277  N11   A    
C202  H93   S    
C201  C247  A    
C99   N92   S    
C275  H249  S    
C60   C114  A    
C256  H157  S    
H159  N77   S    
C92   C125  A    
C225  N83   S    
H132  N71   S    
C298  H272  S    
C232  H215  S    
C64   C118  A    
C36   C88   A    
C300  H274  S    
C181  C303  A    
C179  H112  S    
C26   C78   A    
C5    C58   A    
C216  H152  S    
C17   C144  A    
C18   C143  A    
C101  C255  A    
C185  H29   S    
N32   Ni12  S    
H207  N90   S    
C35   C145  S    
N41   Ni2   S    
C186  H33   S    
N15   Ni8   S    
H230  N95   S    
C85   N77   S    
C265  N78   A    
C237  H231  S    
C39   C151  A    
C245  H46   S    
C229  H200  S    
C47   C99   A    
C80   C111  A    
C3    C136  A    
C6    C139  A    
C124  C250  A    
C60   N52   S    
C182  C287  A    
C32   C156  A    
C3    C55   A    
C166  C265  A    
C222  H178  S    
C220  N80   S    
C228  N86   S    
C207  H116  S    
C8    C141  A    
C68   C149  S    
C205  N64   S    
C187  H37   S    
N29   Ni3   S    
C183  C298  A    
N20   Ni10  S    
C77   C127  A    
C246  H57   S    
C45   H19   S    
C104  C119  A    
C117  C175  S    
C80   N72   S    
C281  N15   A    
C288  H262  S    
C159  C257  A    
C113  C256  A    
H194  N86   S    
C238  H238  S    
C2    C255  A    
C226  H187  S    
C69   N61   S    
H220  N93   S    
C208  N68   S    
C261  H201  S    
C189  H47   S    
H203  N88   S    
C284  N18   A    
N12   Ni5   S    
C14   C66   A    
H185  N84   S    
N39   Ni4   S    
C71   C117  A    
N9    Ni8   S    
C306  N40   A    
C215  H148  S    
C27   C80   A    
C221  H173  S    
N9    N78   A    
C200  H88   S    
C204  H104  S    
C197  H77   S    
C236  H229  S    
C84   C121  A    
C292  N26   A    
C14   C147  A    
C211  H133  S    
C160  C259  A    
C27   C139  A    
C31   C84   A    
C270  H243  S    
C228  H196  S    
N37   Ni12  S    
C12   C145  A    
C161  C289  A    
C231  H208  S    
C230  H206  S    
N13   N40   A    
C296  N30   A    
C193  H59   S    
C157  C240  A    
C112  C254  A    
C74   N66   S    
C287  N21   A    
C15   C67   A    
C208  H121  S    
N25   Ni11  S    
C42   C141  A    
C77   N70   S    
N21   N36   A    
C82   C129  A    
C75   N68   S    
N78   Ni6   S    
C203  H98   S    
C222  H180  S    
C296  H270  S    
C177  C278  A    
C119  C169  S    
C197  H76   S    
N13   Ni11  S    
N25   N32   A    
C52   C105  A    
C260  H190  S    
C37   C138  A    
C250  H90   S    
C196  H73   S    
C2    C142  S    
C84   N76   S    
C170  C285  A    
H74   N57   S    
C308  N42   A    
C171  C284  A    
C58   N50   S    
C68   C168  A    
C56   C109  A    
C210  H130  S    
C188  H41   S    
C186  N46   S    
C267  N2    A    
H176  N82   S    
C276  H250  S    
C283  H256  S    
C219  N79   S    
C6    C59   A    
C8    H293  S    
C285  H259  S    
C214  H144  S    
C217  H158  S    
C92   N84   S    
C30   H4    S    
H87   N60   S    
C9    C142  A    
C103  N95   S    
C43   H17   S    
C307  H281  S    
C65   N58   S    
C297  H271  S    
C132  C310  A    
C229  H202  S    
C87   C129  A    
C5    H289  S    
N5    Ni1   S    
N16   N28   A    
N1    Ni1   S    
C41   C142  A    
C115  C173  S    
H216  N92   S    
C191  H50   S    
C206  H111  S    
C69   C122  A    
C70   C118  A    
C73   C125  A    
C89   N82   S    
C188  H40   S    
C195  N54   S    
C212  C258  A    
C167  C305  A    
C71   N63   S    
C279  H253  S    
C18   H303  S    
C83   C122  A    
C56   N49   S    
C54   C312  A    
H39   N48   S    
C239  C291  A    
C118  C174  S    
C125  C178  S    
H105  N64   S    
C238  H236  S    
C171  C270  A    
C186  H32   S    
N7    N15   A    
C304  H277  S    
C23   C152  A    
N10   Ni9   S    
C219  H165  S    
C76   C126  A    
C103  C120  A    
C199  H85   S    
C83   N75   S    
C37   H10   S    
C221  H175  S    
C42   H16   S    
N28   Ni2   S    
C231  N90   S    
C36   C154  A    
N23   N24   A    
C285  N19   A    
C223  C245  A    
C198  H80   S    
C173  C295  A    
C86   N79   S    
N21   Ni11  S    
C209  H126  S    
C279  N14   A    
C160  C299  A    
C175  C279  A    
C309  N43   A    
C26   C140  A    
N26   N31   A    
C199  H86   S    
C7    C140  A    
C225  H183  S    
C270  N4    A    
N23   Ni6   S    
C68   C243  A    
C22   H307  S    
C274  N8    A    
C277  H251  S    
C262  N45   A    
C116  C172  S    
C214  N73   S    
C177  C306  A    
C308  H282  S    
C30   C83   A    
C213  H139  S    
N42   Ni4   S    
H96   N62   S    
C259  H179  S    
C224  C269  A    
C226  H188  S    
C307  N41   A    
C198  H82   S    
H119  N68   S    
C97   N90   S    
C290  N25   A    
N34   Ni7   S    
C301  H275  S    
N33   Ni4   S    
C73   N65   S    
C194  H63   S    
C63   N55   S    
C288  N22   A    
N20   N37   A    
C78   C114  A    
C111  C162  S    
H167  N80   S    
C214  H142  S    
C286  N20   A    
C233  H218  S    
C1    C253  A    
C220  H169  S    
C267  H241  S    
C141  C302  S    
N22   N34   A    
C169  C267  A    
C25   C153  A    
C303  N37   A    
C139  C280  S    
C191  H51   S    
H78   N58   S    
C231  H210  S    
C205  H106  S    
C237  N95   S    
C294  N28   A    
N24   Ni9   S    
C1    C168  A    
C6    H290  S    
C227  H191  S    
C38   C91   A    
C216  N75   S    
C42   C95   A    
C135  C244  A    
C201  H247  S    
N17   Ni10  S    
C187  H38   S    
C304  N38   A    
C85   C130  A    
C301  N36   A    
C19   H304  S    
C66   N59   S    
C64   N57   S    
C46   C147  S    
C236  H228  S    
C210  H131  S    
C306  H279  S    
C65   C119  A    
C63   C117  A    
C44   C152  A    
C246  C280  A    
N89   Ni5   S    
C55   C108  A    
C79   C150  S    
C31   C148  A    
C161  C260  A    
N11   Ni10  S    
C82   N74   S    
C47   H20   S    
C215  N74   S    
C257  H168  S    
C72   C123  A    
H48   N50   S    
C185  N44   S    
N2    N38   A    
C227  N85   S    
C76   N69   S    
C232  N91   S    
C203  H99   S    
C7    C60   A    
C265  H239  S    
C300  N35   A    
C305  H278  S    
C182  C301  A    
C202  N61   S    
C57   C179  A    
C172  C296  A    
C271  H244  S    
C202  H94   S    
C192  H55   S    
C94   C116  A    
C248  C291  A    
C227  H192  S    
C276  N10   A    
C88   N81   S    
N56   Ni1   S    
H61   N53   S    
C90   C151  S    
C30   C149  A    
H137  N72   S    
H198  N87   S    
H115  N66   S    
C4    H288  S    
C209  H125  S    
C67   N60   S    
C52   N44   S    
C12   C65   A    
C51   H25   S    
C101  C152  S    
C37   C89   A    
C47   C132  A    
N1    N35   A    
C218  H160  S    
H145  N74   S    
C185  H28   S    
C226  N84   S    
C217  H155  S    
C234  H221  S    
C190  C223  A    
C131  C181  S    
C196  H71   S    
C15   C148  A    
C187  N47   S    
C10   H295  S    
C24   C144  S    
C275  N9    A    
C32   C85   A    
C163  C262  A    
C229  H199  S    
C38   C137  A    
N6    Ni5   S    
C13   C143  S    
C165  C276  A    
C217  N76   S    
C166  C275  A    
C230  H205  S    
C305  N39   A    
C74   C108  A    
C206  H114  S    
N4    N18   A    
C136  C247  S    
C95   N87   S    
C134  C223  S    
C135  C249  A    
C57   C148  S    
C50   H23   S    
C218  H161  S    
C168  H1    S    
C194  N53   S    
H123  N69   S    
C43   C153  A    
N8    Ni6   S    
C133  C311  A    
C204  N63   S    
C221  N81   S    
C188  N48   S    
C220  H171  S    
C138  C269  S    
C124  C154  S    
C311  H285  S    
C108  C165  S    
N7    Ni7   S    
C299  N33   A    
C272  N6    A    
C210  N70   S    
C49   C156  A    
C312  H286  S    
C128  C184  S    
N30   Ni4   S    
C112  C133  S    
C33   H7    S    
C1    C132  S    
C205  H108  S    
C34   H8    S    
C24   C212  A    
C100  C131  A    
C5    C138  A    
C213  H140  S    
N3    N19   A    
C137  C258  S    
C28   H312  S    
C244  H35   S    
C207  H118  S    
C53   N46   S    
C199  H84   S    
C22   C134  A    
C260  N23   A    
C25   C77   A    
C235  C280  A    
C193  N52   S    
C215  H147  S    
C187  H36   S    
C298  N32   A    
C86   C131  A    
C174  C273  A    
C23   H308  S    
C210  H129  S    
C233  N92   S    
C200  H91   S    
C164  C263  A    
N40   Ni12  S    
C211  H136  S    
C35   C249  A    
C135  C155  S    
C259  N12   A    
C126  C177  S    
C295  H268  S    
C79   C242  A    
C124  C245  A    
C31   H5    S    
H163  N79   S    
C13   C241  A    
C248  H68   S    
C95   C115  A    
C218  N77   S    
C93   C123  A    
C272  H245  S    
C178  C294  A    
C191  N50   S    
C238  N96   S    
C163  C309  A    
C11   C144  A    
C203  H97   S    
C21   C136  A    
H92   N61   S    
C214  H143  S    
C209  N69   S    
C8    C61   A    
C309  H283  S    
C186  H31   S    
C234  N93   S    
C104  N96   S    
C4    C137  A    
C107  C166  S    
C32   H6    S    
C17   C70   A    
C66   C120  A    
C90   C243  A    
C28   C154  A    
C264  N67   A    
C19   C72   A    
C239  H291  S    
C22   C75   A    
C46   C190  A    
C188  H42   S    
C216  H153  S    
C99   C105  A    
C266  N89   A    
C165  C264  A    
C29   H3    S    
C273  N7    A    
C216  H151  S    
C9    C62   A    
H141  N73   S    
H189  N85   S    
C38   H11   S    
C11   C64   A    
C130  C182  S    
H109  N65   S    
C237  H232  S    
C21   C74   A    
C176  C307  A    
C200  H89   S    
N3    Ni6   S    
C208  H122  S    
C299  H273  S    
N18   Ni9   S    
C33   C86   A    
H100  N63   S    
C62   C116  A    
C54   N47   S    
N36   Ni2   S    
C184  C297  A    
C191  H49   S    
C102  N94   S    
C44   C97   A    
C217  H156  S    
N17   N27   A    
C35   C201  A    
C282  H255  S    
N4    Ni7   S    
C235  H280  S    
C176  C277  A    
C194  H64   S    
C284  H257  S    
C53   C106  A    
N26   Ni10  S    
C12   H297  S    
C40   H14   S    
C112  C179  A    
C55   N48   S    
C121  C171  S    
C90   C253  A    
H181  N83   S    
C255  H146  S    
C203  N62   S    
C226  H186  S    
C159  C300  A    
C289  H263  S    
C157  C252  A    
C79   C254  A    
C212  H258  S    
C240  H302  S    
C120  C167  S    
C236  N94   S    
C20   H305  S    
C193  H58   S    
H34   N47   S    
C28   C81   A    
C16   C69   A    
C183  C290  A    
C113  C153  S    
C123  C180  S    
C286  H260  S    
C221  H174  S    
C303  H276  S    
C173  C272  A    
N14   Ni9   S    
C204  H103  S    
C230  N88   S    
C196  H72   S    
C113  C248  A    
N12   N33   A    
C211  H134  S    
N45   Ni5   S    
C197  H75   S    
C41   H15   S    
C228  H195  S    
H26   N44   S    
C91   C109  A    
N43   Ni3   S    
C175  C274  A    
C211  N71   S    
C88   C128  A    
C170  C268  A    
C222  N82   S    
H172  N81   S    
C225  H182  S    
N16   Ni11  S    
C207  N66   S    
C7    H292  S    
C146  C241  A    
C213  N72   S    
C10   C143  A    
C72   N64   S    
C184  C292  A    
C193  H60   S    
C199  N59   S    
C213  H138  S    
N35   Ni3   S    
C190  H223  S    
C195  H66   S    
C2    C235  A    
C146  C156  S    
C273  H246  S    
N67   Ni7   S    
C23   C76   A    
C36   H9    S    
C278  N13   A    
C237  H233  S    
C44   H18   S    
C109  C160  S    
C249  H79   S    
C110  C159  S    
C134  C312  A    
C87   N80   S    
C162  C288  A    
