data_mof_unit_61732.cif
_audit_creation_date              2012-12-10T18:46:44-0500
_audit_creation_method            fapswitch 2.2
_symmetry_space_group_name_H-M    P1
_symmetry_Int_Tables_number       1
_space_group_crystal_system       triclinic
_cell_length_a                    18.120451
_cell_length_b                    18.095859
_cell_length_c                    51.436524
_cell_angle_alpha                 90.065353
_cell_angle_beta                  89.947675
_cell_angle_gamma                 90.030822
_cell_volume                      16866.2794632

loop_
_atom_site_label
_atom_site_type_symbol
_atom_type_description
_atom_site_fract_x
_atom_site_fract_y
_atom_site_fract_z
_atom_type_partial_charge
C1    C     C_R   0.000033 0.500038 0.820810 0.828147
C2    C     C_R   0.471875 0.866532 0.013676 -0.071392
C3    C     C_3   0.267376 0.302340 0.732267 -0.225965
C4    C     C_3   0.302127 0.732740 0.267788 -0.224835
C5    C     C_3   0.697985 0.267140 0.732158 -0.222640
C6    C     C_3   0.267137 0.302424 0.267756 -0.225913
C7    C     C_3   0.719730 0.684159 0.756395 -0.257929
C8    C     C_3   0.219752 0.815437 0.743859 0.160467
C9    C     C_3   0.780445 0.184476 0.255906 0.166135
C10   C     C_3   0.184636 0.219400 0.743998 0.166561
C11   C     C_3   0.815377 0.780628 0.255968 0.166222
C12   C     C_3   0.780515 0.184428 0.744139 0.166796
C13   C     C_R   0.868057 0.469360 0.986329 -0.071524
C14   C     C_3   0.219534 0.815545 0.255935 0.166138
C15   C     C_3   0.781382 0.745324 0.726408 0.156811
C16   C     C_3   0.184599 0.219359 0.255951 0.166139
C17   C     C_3   0.719555 0.315524 0.244094 0.166144
C18   C     C_3   0.280248 0.684563 0.756141 0.160475
C19   C     C_3   0.684623 0.719372 0.244032 0.166258
C20   C     C_3   0.315363 0.280600 0.756002 0.166594
C21   C     C_3   0.280466 0.684454 0.244065 0.166147
C22   C     C_3   0.719484 0.315572 0.755861 0.166805
C23   C     C_3   0.315401 0.280641 0.244049 0.166175
C24   C     C_R   0.132353 0.530680 0.013674 -0.071461
C25   C     C_3   0.718619 0.754676 0.773591 0.156776
C26   C     C_3   0.301451 0.801139 0.750117 -0.092891
C27   C     C_3   0.698592 0.198814 0.249900 -0.096845
C28   C     C_3   0.198804 0.301380 0.750115 -0.096378
C29   C     C_3   0.801203 0.698626 0.249887 -0.096625
C30   C     C_3   0.698601 0.198792 0.750101 -0.094962
C31   C     C_3   0.301407 0.801199 0.249897 -0.096557
C32   C     C_3   0.801738 0.699127 0.750410 -0.092192
C33   C     C_3   0.198746 0.301320 0.249861 -0.096625
C34   C     C_3   0.801408 0.301186 0.250100 -0.096840
C35   C     C_R   0.471809 0.866461 0.986320 -0.071873
C36   C     C_3   0.198549 0.698861 0.749884 -0.092887
C37   C     C_3   0.698797 0.801374 0.250113 -0.096622
C38   C     C_3   0.301195 0.198619 0.749885 -0.096376
C39   C     C_3   0.198593 0.698801 0.250103 -0.096552
C40   C     C_3   0.801398 0.301208 0.749899 -0.094957
C41   C     C_3   0.301254 0.198680 0.250139 -0.096622
C42   C     C_3   0.698263 0.800874 0.749589 -0.092245
C43   C     C_3   0.279754 0.753811 0.773533 -0.058043
C44   C     C_3   0.719742 0.246607 0.226541 -0.061270
C45   C     C_3   0.246414 0.280212 0.773490 -0.059630
C46   C     C_R   0.528760 0.132185 0.013666 -0.071598
C47   C     C_3   0.753525 0.719716 0.226520 -0.059703
C48   C     C_3   0.719532 0.246835 0.773446 -0.060336
C49   C     C_3   0.280317 0.753300 0.226532 -0.061342
C50   C     C_3   0.800541 0.768619 0.767497 -0.034484
C51   C     C_3   0.246633 0.280114 0.226515 -0.059785
C52   C     C_3   0.780257 0.253393 0.273458 -0.061342
C53   C     C_3   0.220246 0.746189 0.726468 -0.058118
C54   C     C_3   0.746475 0.780285 0.273480 -0.059652
C55   C     C_3   0.253586 0.219787 0.726510 -0.059580
C56   C     C_3   0.219683 0.746700 0.273467 -0.061413
C57   C     C_R   0.132368 0.530791 0.986318 -0.071534
C58   C     C_3   0.780468 0.253165 0.726555 -0.060406
C59   C     C_3   0.253367 0.219886 0.273485 -0.059734
C60   C     C_3   0.699460 0.731381 0.732503 -0.034431
C61   C     C_R   0.488001 0.934519 0.944791 0.521348
C62   C     C_R   0.512264 0.064195 0.055190 0.520510
C63   C     C_R   0.064631 0.513380 0.944798 0.520320
C64   C     C_R   0.935788 0.486610 0.055205 0.520571
C65   C     C_R   0.512253 0.063868 0.944792 0.519483
C66   C     C_R   0.488300 0.934793 0.055195 0.520502
C67   C     C_R   0.935853 0.487061 0.944807 0.520626
C68   C     C_R   0.868044 0.469235 0.013684 -0.071469
C69   C     C_R   0.064549 0.513014 0.055197 0.520548
C70   C     C_R   0.985684 0.436230 0.444816 0.520519
C71   C     C_R   0.014016 0.565091 0.555204 0.521373
C72   C     C_R   0.564096 0.013925 0.444796 0.520567
C73   C     C_R   0.435476 0.986094 0.555202 0.520315
C74   C     C_R   0.013740 0.564810 0.444807 0.520515
C75   C     C_R   0.985693 0.436567 0.555206 0.519478
C76   C     C_R   0.435558 0.986459 0.444803 0.520544
C77   C     C_R   0.564031 0.013476 0.555193 0.520624
C78   C     C_R   0.513876 0.065966 0.972329 -0.058955
C79   C     C_R   0.032740 0.632421 0.486321 -0.071263
C80   C     C_R   0.486682 0.932686 0.027657 -0.059176
C81   C     C_R   0.933834 0.485352 0.972344 -0.059174
C82   C     C_R   0.066575 0.514696 0.027660 -0.059242
C83   C     C_R   0.486547 0.932545 0.972332 -0.059813
C84   C     C_R   0.513906 0.066125 0.027651 -0.059318
C85   C     C_R   0.066611 0.514905 0.972337 -0.059216
C86   C     C_R   0.933804 0.485111 0.027666 -0.059224
C87   C     C_R   0.015556 0.566835 0.472344 -0.059144
C88   C     C_R   0.983856 0.434555 0.527671 -0.058920
C89   C     C_R   0.433559 0.984708 0.472340 -0.059238
C90   C     C_R   0.966603 0.368988 0.513693 -0.071406
C91   C     C_R   0.566022 0.015257 0.527657 -0.059171
C92   C     C_R   0.983831 0.434391 0.472352 -0.059283
C93   C     C_R   0.015680 0.566980 0.527665 -0.059770
C94   C     C_R   0.566051 0.015497 0.472335 -0.059221
C95   C     C_R   0.433524 0.984499 0.527663 -0.059212
C96   C     C_R   0.500236 0.999292 0.986174 -0.024679
C97   C     C_R   0.500277 0.999367 0.013810 -0.024801
C98   C     C_R   0.000214 0.500072 0.986184 -0.024837
C99   C     C_R   0.000198 0.499959 0.013819 -0.024860
C100  C     C_R   0.999709 0.500653 0.486191 -0.024885
C101  C     C_R   0.367946 0.968069 0.486325 -0.071453
C102  C     C_R   0.999746 0.500731 0.513825 -0.024764
C103  C     C_R   0.499797 0.000047 0.486181 -0.024859
C104  C     C_R   0.499781 0.999935 0.513816 -0.024835
C105  C     C_1   0.313198 0.759053 0.799440 0.233704
C106  C     C_1   0.685704 0.241850 0.200719 0.238172
C107  C     C_1   0.241434 0.314177 0.799350 0.237038
C108  C     C_1   0.758436 0.685674 0.200672 0.236259
C109  C     C_1   0.685272 0.242329 0.799255 0.240219
C110  C     C_1   0.314413 0.757951 0.200700 0.238221
C111  C     C_1   0.856279 0.789863 0.786798 0.282942
C112  C     C_R   0.999999 0.499963 0.179190 0.827735
C113  C     C_R   0.631633 0.031907 0.513672 -0.071512
C114  C     C_1   0.241882 0.313953 0.200661 0.236157
C115  C     C_1   0.814295 0.258148 0.299280 0.238295
C116  C     C_1   0.186801 0.740949 0.700561 0.233832
C117  C     C_1   0.741563 0.814326 0.299328 0.236128
C118  C     C_1   0.258566 0.185824 0.700650 0.236914
C119  C     C_1   0.185587 0.742051 0.299300 0.238345
C120  C     C_1   0.814728 0.257669 0.700746 0.240342
C121  C     C_1   0.258118 0.186047 0.299340 0.236026
C122  C     C_1   0.643721 0.710137 0.713201 0.282918
C123  C     C_1   0.545269 0.201261 0.973083 0.297054
C124  C     C_R   0.966589 0.368907 0.486338 -0.071462
C125  C     C_1   0.455420 0.797365 0.026905 0.296951
C126  C     C_1   0.799240 0.451752 0.973106 0.297403
C127  C     C_1   0.201173 0.548281 0.026897 0.296929
C128  C     C_1   0.455351 0.797212 0.973099 0.297743
C129  C     C_1   0.545369 0.201395 0.026889 0.297015
C130  C     C_1   0.201194 0.548531 0.973092 0.297032
C131  C     C_1   0.799214 0.451507 0.026910 0.297019
C132  C     C_1   0.051800 0.700915 0.473089 0.296831
C133  C     C_1   0.947455 0.300514 0.526923 0.296937
C134  C     C_1   0.299320 0.949738 0.473101 0.296879
C135  C     C_R   0.032801 0.632493 0.513678 -0.071722
C136  C     C_1   0.700255 0.050251 0.526897 0.297352
C137  C     C_1   0.947370 0.300374 0.473115 0.296892
C138  C     C_1   0.051866 0.701073 0.526898 0.297599
C139  C     C_1   0.700280 0.050496 0.473091 0.296969
C140  C     C_1   0.299300 0.949488 0.526907 0.296981
C141  C     C_1   0.135883 0.485789 0.595932 0.217873
C142  C     C_1   0.863695 0.513829 0.403996 0.217407
C143  C     C_1   0.514308 0.863634 0.595973 0.220980
C144  C     C_1   0.484771 0.136279 0.404024 0.217696
C145  C     C_1   0.864062 0.516114 0.596107 0.225306
C146  C     C_R   0.631646 0.032033 0.486317 -0.071460
C147  C     C_1   0.135876 0.486878 0.403985 0.217332
C148  C     C_1   0.485072 0.135927 0.596040 0.217721
C149  C     C_1   0.515021 0.864102 0.403962 0.217540
C150  C     C_1   0.636533 0.988864 0.095996 0.217209
C151  C     C_1   0.363861 0.011682 0.904069 0.217696
C152  C     C_1   0.014657 0.363662 0.095973 0.217601
C153  C     C_1   0.986271 0.636428 0.904029 0.220878
C154  C     C_1   0.363892 0.010438 0.096009 0.217122
C155  C     C_1   0.636181 0.986457 0.903907 0.224905
C156  C     C_1   0.985545 0.635960 0.096036 0.217441
C157  C     C_R   0.367931 0.967959 0.513681 -0.071526
C158  C     C_1   0.014341 0.364015 0.903964 0.217622
C159  C     C_R   0.066789 0.493610 0.609618 0.027744
C160  C     C_R   0.932930 0.506666 0.390354 0.026904
C161  C     C_R   0.506679 0.932889 0.609632 0.025716
C162  C     C_R   0.492707 0.067060 0.390365 0.026783
C163  C     C_R   0.933191 0.508042 0.609701 0.023444
C164  C     C_R   0.499977 0.999919 0.820800 0.831891
C165  C     C_R   0.066698 0.493916 0.390349 0.026884
C166  C     C_R   0.492767 0.066721 0.609664 0.026828
C167  C     C_R   0.507127 0.933282 0.390335 0.026625
C168  C     C_R   0.567177 0.994624 0.109642 0.026818
C169  C     C_R   0.433087 0.005189 0.890383 0.027642
C170  C     C_R   0.007021 0.432913 0.109634 0.026772
C171  C     C_R   0.993594 0.567141 0.890369 0.025705
C172  C     C_R   0.433192 0.004801 0.109648 0.026793
C173  C     C_R   0.566923 0.993195 0.890306 0.023467
C174  C     C_R   0.993141 0.566747 0.109664 0.026611
C175  C     C_R   0.500031 0.999992 0.179198 0.826676
C176  C     C_R   0.006952 0.433253 0.890338 0.026816
C177  C     C_R   0.066585 0.493558 0.636768 -0.228189
C178  C     C_R   0.933228 0.506340 0.363204 -0.227941
C179  C     C_R   0.506567 0.933179 0.636783 -0.227068
C180  C     C_R   0.492933 0.066779 0.363214 -0.227623
C181  C     C_R   0.933462 0.507615 0.636848 -0.214729
C182  C     C_R   0.066514 0.493972 0.363199 -0.227905
C183  C     C_R   0.493019 0.066533 0.636813 -0.227105
C184  C     C_R   0.506994 0.933479 0.363187 -0.227444
C185  C     C_R   0.566876 0.994913 0.136792 -0.227873
C186  C     C_R   0.500001 0.000037 0.320809 0.827721
C187  C     C_R   0.433298 0.005268 0.863232 -0.228060
C188  C     C_R   0.006803 0.433194 0.136784 -0.227625
C189  C     C_R   0.993699 0.566850 0.863218 -0.227053
C190  C     C_R   0.433380 0.004777 0.136798 -0.227832
C191  C     C_R   0.566651 0.993584 0.863158 -0.214730
C192  C     C_R   0.993267 0.566549 0.136812 -0.227443
C193  C     C_R   0.006709 0.433441 0.863189 -0.227115
C194  C     C_R   0.000033 0.500398 0.650569 -0.034160
C195  C     C_R   0.999900 0.500092 0.349438 -0.032810
C196  C     C_R   0.499856 0.999886 0.650558 -0.034824
C197  C     C_R   0.499966 0.999962 0.679190 0.828130
C198  C     C_R   0.499982 0.000106 0.349441 -0.033797
C199  C     C_R   0.500099 0.999908 0.150560 -0.032976
C200  C     C_R   0.499966 0.999611 0.849433 -0.034209
C201  C     C_R   0.000017 0.499895 0.150558 -0.033807
C202  C     C_R   0.000143 0.500115 0.849443 -0.034837
C203  C     C_R   0.999967 0.500895 0.595954 0.238033
C204  C     C_R   0.999786 0.500363 0.404059 0.239057
C205  C     C_R   0.499708 0.999783 0.595944 0.238837
C206  C     C_R   0.499889 0.000190 0.404054 0.239195
C207  C     C_R   0.500212 0.999642 0.095940 0.239339
C208  C     C_R   0.999969 0.500008 0.320801 0.826549
C209  C     C_R   0.500025 0.999125 0.904047 0.238319
C210  C     C_R   0.000109 0.499812 0.095945 0.239287
C211  C     C_R   0.000288 0.500220 0.904057 0.238930
C212  C     C_R   0.141770 0.358544 0.750356 0.847999
C213  C     C_R   0.858234 0.641460 0.249646 0.847449
C214  C     C_R   0.641441 0.141752 0.750346 0.845821
C215  C     C_R   0.358564 0.858243 0.249652 0.847196
C216  C     C_R   0.858330 0.641557 0.750446 0.848066
C217  C     C_R   0.141741 0.358510 0.249632 0.847556
C218  C     C_R   0.358578 0.858192 0.750360 0.845897
C219  C     C_R   0.000023 0.500082 0.679201 0.831783
C220  C     C_R   0.641449 0.141780 0.249653 0.848129
C221  C     C_R   0.641766 0.858540 0.250354 0.847488
C222  C     C_R   0.358230 0.141455 0.749644 0.848038
C223  C     C_R   0.141436 0.641757 0.250348 0.847186
C224  C     C_R   0.858559 0.358249 0.749654 0.845810
C225  C     C_R   0.358259 0.141490 0.250368 0.847595
C226  C     C_R   0.641670 0.858443 0.749554 0.848043
C227  C     C_R   0.858551 0.358220 0.250347 0.848119
C228  C     C_R   0.141422 0.641808 0.749640 0.845888
C229  C     C_3   0.197471 0.767731 0.767632 -0.227518
C230  C     C_R   0.528743 0.132108 0.986311 -0.071541
C231  C     C_3   0.802169 0.232657 0.232189 -0.225022
C232  C     C_3   0.232623 0.197660 0.767732 -0.225888
C233  C     C_3   0.767319 0.802288 0.232242 -0.225973
C234  C     C_3   0.802015 0.232860 0.767842 -0.222695
C235  C     C_3   0.197873 0.767260 0.232212 -0.224891
C236  C     C_3   0.780271 0.815841 0.743604 -0.257873
C237  C     C_3   0.232863 0.197576 0.232244 -0.225831
C238  C     C_3   0.697830 0.267343 0.267811 -0.224967
C239  C     C_3   0.302529 0.732269 0.732368 -0.227463
C240  C     C_3   0.732681 0.697712 0.267758 -0.226055
H1    H     H_    0.154144 0.781478 0.782127 0.189024
H2    H     H_    0.345856 0.718522 0.717873 0.189052
H3    H     H_    0.719249 0.654595 0.282358 0.190240
H4    H     H_    0.280855 0.345500 0.717689 0.190316
H5    H     H_    0.345118 0.719365 0.282410 0.190752
H6    H     H_    0.655086 0.280419 0.717491 0.191355
H7    H     H_    0.280425 0.345655 0.282357 0.190298
H8    H     H_    0.695698 0.629642 0.761543 0.195509
H9    H     H_    0.118392 0.487814 0.647096 0.177611
H10   H     H_    0.881382 0.511289 0.352850 0.177554
H11   H     H_    0.512072 0.881315 0.647132 0.179680
H12   H     H_    0.845200 0.219223 0.217550 0.190656
H13   H     H_    0.487257 0.118621 0.352864 0.178033
H14   H     H_    0.881676 0.513227 0.647237 0.183578
H15   H     H_    0.118406 0.488931 0.352841 0.177571
H16   H     H_    0.487553 0.118436 0.647184 0.178217
H17   H     H_    0.512703 0.881601 0.352816 0.178104
H18   H     H_    0.618813 0.990973 0.147144 0.177709
H19   H     H_    0.381394 0.010054 0.852905 0.177771
H20   H     H_    0.012268 0.381328 0.147134 0.178040
H21   H     H_    0.988411 0.618737 0.852869 0.179688
H22   H     H_    0.381398 0.008807 0.147155 0.177730
H23   H     H_    0.219144 0.154500 0.782311 0.190341
H24   H     H_    0.618538 0.988928 0.852774 0.183464
H25   H     H_    0.987770 0.618452 0.147182 0.178112
H26   H     H_    0.011958 0.381513 0.852819 0.178224
H27   H     H_    0.780752 0.845405 0.217642 0.190269
H28   H     H_    0.844914 0.219581 0.782509 0.191328
H29   H     H_    0.154882 0.780635 0.217590 0.190725
H30   H     H_    0.804303 0.870358 0.738456 0.195515
H31   H     H_    0.219575 0.154345 0.217644 0.190327
H32   H     H_    0.654800 0.280777 0.282450 0.190681
I1    I     I_    0.172317 0.920144 0.734281 -0.272921
I2    I     I_    0.327683 0.579856 0.765719 -0.272870
I3    I     I_    0.580150 0.671063 0.234733 -0.251334
I4    I     I_    0.419831 0.328821 0.765359 -0.257267
I5    I     I_    0.328518 0.579709 0.234815 -0.250590
I6    I     I_    0.671311 0.420334 0.764976 -0.286700
I7    I     I_    0.419915 0.328959 0.234789 -0.251383
I8    I     I_    0.667534 0.761942 0.811004 -0.291652
I9    I     I_    0.828450 0.079759 0.265112 -0.250775
I10   I     I_    0.080169 0.171180 0.734641 -0.257403
I11   I     I_    0.919850 0.828937 0.265267 -0.251474
I12   I     I_    0.828689 0.079667 0.735024 -0.286765
I13   I     I_    0.171481 0.920290 0.265185 -0.250647
I14   I     I_    0.832465 0.738051 0.688995 -0.292593
I15   I     I_    0.080084 0.171042 0.265212 -0.251524
I16   I     I_    0.671550 0.420241 0.234888 -0.250718
N1    N     N_R   0.500087 0.999166 0.932009 -0.353603
N2    N     N_1   0.658809 0.238047 0.180369 -0.154010
N3    N     N_1   0.237450 0.341013 0.819730 -0.159267
N4    N     N_1   0.762367 0.658776 0.180300 -0.159633
N5    N     N_1   0.658202 0.238724 0.819595 -0.153900
N6    N     N_1   0.341354 0.761670 0.180341 -0.153998
N7    N     N_1   0.900236 0.806588 0.802013 -0.161902
N8    N     N_1   0.238080 0.340692 0.180284 -0.159593
N9    N     N_1   0.841191 0.261949 0.319630 -0.153668
N10   N     N_1   0.160381 0.736759 0.680142 -0.150399
N11   N     N_1   0.737632 0.841223 0.319700 -0.159863
N12   N     N_R   0.500270 0.999537 0.067977 -0.353302
N13   N     N_1   0.262551 0.158987 0.680270 -0.159493
N14   N     N_1   0.158645 0.738333 0.319659 -0.153655
N15   N     N_1   0.841798 0.261273 0.680405 -0.153564
N16   N     N_1   0.261921 0.159309 0.319716 -0.159824
N17   N     N_1   0.599764 0.693413 0.697986 -0.161906
N18   N     N_1   0.558505 0.256479 0.962726 -0.126534
N19   N     N_1   0.442240 0.742137 0.037264 -0.126508
N20   N     N_1   0.744291 0.437650 0.962753 -0.126341
N21   N     N_1   0.256124 0.562376 0.037249 -0.126913
N22   N     N_1   0.442171 0.741919 0.962747 -0.124881
N23   N     N_R   0.000254 0.500248 0.932019 -0.353451
N24   N     N_1   0.558672 0.256656 0.037242 -0.126591
N25   N     N_1   0.256149 0.562738 0.962737 -0.126399
N26   N     N_1   0.744255 0.437312 0.037264 -0.126834
N27   N     N_1   0.067068 0.755607 0.462730 -0.126707
N28   N     N_1   0.932117 0.245839 0.537280 -0.126737
N29   N     N_1   0.244526 0.935059 0.462745 -0.126752
N30   N     N_1   0.755046 0.064942 0.537253 -0.126194
N31   N     N_1   0.931976 0.245654 0.462764 -0.126793
N32   N     N_1   0.067135 0.755830 0.537247 -0.125158
N33   N     N_1   0.755081 0.065280 0.462735 -0.126675
N34   N     N_R   0.000156 0.499783 0.067984 -0.353297
N35   N     N_1   0.244502 0.934698 0.537264 -0.126232
N36   N     N_1   0.191258 0.479527 0.584926 -0.163761
N37   N     N_1   0.808206 0.519564 0.414966 -0.164166
N38   N     N_1   0.520416 0.808131 0.584986 -0.160944
N39   N     N_1   0.478416 0.191754 0.415011 -0.164112
N40   N     N_1   0.808658 0.522580 0.585174 -0.160205
N41   N     N_1   0.191317 0.481245 0.414951 -0.164270
N42   N     N_1   0.478910 0.191391 0.585080 -0.163712
N43   N     N_1   0.521342 0.808659 0.414923 -0.164042
N44   N     N_1   0.692118 0.984255 0.085020 -0.164135
N45   N     N_R   0.999728 0.500474 0.432024 -0.353302
N46   N     N_1   0.308380 0.016879 0.915078 -0.163720
N47   N     N_1   0.020773 0.308161 0.084985 -0.164117
N48   N     N_1   0.980406 0.691958 0.915015 -0.160961
N49   N     N_1   0.308354 0.014948 0.085039 -0.164240
N50   N     N_1   0.691689 0.981061 0.914847 -0.160288
N51   N     N_1   0.979462 0.691430 0.085075 -0.164047
N52   N     N_1   0.020257 0.308526 0.914924 -0.163716
N53   N     N_R   0.999896 0.500856 0.567991 -0.353600
N54   N     N_R   0.499840 0.000220 0.432015 -0.353296
N55   N     N_R   0.499742 0.999757 0.567982 -0.353452
N56   N     N_1   0.339618 0.763244 0.819858 -0.150756
O1    O     O_3   0.000000 0.500000 0.750000 -0.506118
O2    O     O_R   0.000220 0.561630 0.191620 -0.643460
O3    O     O_R   0.561630 0.999780 0.808380 -0.636284
O4    O     O_R   0.438370 0.000220 0.191620 -0.643629
O5    O     O_R   0.500220 0.061630 0.308380 -0.643722
O6    O     O_R   0.499780 0.938370 0.691620 -0.642693
O7    O     O_R   0.938370 0.500220 0.308380 -0.643813
O8    O     O_R   0.061630 0.499780 0.691620 -0.645042
O9    O     O_R   0.499780 0.938370 0.308380 -0.643443
O10   O     O_R   0.500220 0.061630 0.691620 -0.643389
O11   O     O_R   0.061630 0.499780 0.308380 -0.643568
O12   O     O_3   0.000000 0.500000 0.250000 -0.505315
O13   O     O_R   0.938370 0.500220 0.691620 -0.636245
O14   O     O_R   0.086770 0.352080 0.765560 -0.629051
O15   O     O_R   0.913230 0.647920 0.234440 -0.629201
O16   O     O_R   0.647920 0.086770 0.765560 -0.628496
O17   O     O_R   0.352080 0.913230 0.234440 -0.628634
O18   O     O_R   0.913230 0.647920 0.765560 -0.646012
O19   O     O_R   0.086770 0.352080 0.234440 -0.629462
O20   O     O_R   0.352080 0.913230 0.765560 -0.626507
O21   O     O_R   0.647920 0.086770 0.234440 -0.628714
O22   O     O_R   0.586770 0.852080 0.265560 -0.629224
O23   O     O_3   0.500000 0.000000 0.750000 -0.506114
O24   O     O_R   0.413230 0.147920 0.734440 -0.629072
O25   O     O_R   0.147920 0.586770 0.265560 -0.628563
O26   O     O_R   0.852080 0.413230 0.734440 -0.628428
O27   O     O_R   0.413230 0.147920 0.265560 -0.629485
O28   O     O_R   0.586770 0.852080 0.734440 -0.646028
O29   O     O_R   0.852080 0.413230 0.265560 -0.628643
O30   O     O_R   0.147920 0.586770 0.734440 -0.626440
O31   O     O_R   0.852120 0.586630 0.735130 -0.619069
O32   O     O_R   0.147880 0.413370 0.264870 -0.637416
O33   O     O_R   0.413370 0.852120 0.735130 -0.641993
O34   O     O_3   0.500000 0.000000 0.250000 -0.505314
O35   O     O_R   0.586630 0.147880 0.264870 -0.637143
O36   O     O_R   0.147880 0.413370 0.735130 -0.637521
O37   O     O_R   0.852120 0.586630 0.264870 -0.637599
O38   O     O_R   0.586630 0.147880 0.735130 -0.637278
O39   O     O_R   0.413370 0.852120 0.264870 -0.637021
O40   O     O_R   0.352120 0.086630 0.235130 -0.637354
O41   O     O_R   0.647880 0.913370 0.764870 -0.619033
O42   O     O_R   0.913370 0.352120 0.235130 -0.637168
O43   O     O_R   0.086630 0.647880 0.764870 -0.642020
O44   O     O_R   0.647880 0.913370 0.235130 -0.637536
O45   O     O_R   0.000220 0.561630 0.808380 -0.642710
O46   O     O_R   0.352120 0.086630 0.764870 -0.637462
O47   O     O_R   0.086630 0.647880 0.235130 -0.637046
O48   O     O_R   0.913370 0.352120 0.764870 -0.637303
O49   O     O_2   0.477711 0.872719 0.930569 -0.535479
O50   O     O_2   0.522246 0.126059 0.069405 -0.538754
O51   O     O_2   0.126171 0.524605 0.930573 -0.538684
O52   O     O_2   0.874261 0.475315 0.069430 -0.538953
O53   O     O_2   0.522443 0.125611 0.930573 -0.539207
O54   O     O_2   0.478291 0.873024 0.069415 -0.538726
O55   O     O_2   0.874333 0.475930 0.930593 -0.538605
O56   O     O_R   0.999780 0.438370 0.191620 -0.643738
O57   O     O_2   0.126053 0.524217 0.069413 -0.538971
O58   O     O_2   0.973913 0.374669 0.430608 -0.538728
O59   O     O_2   0.026081 0.626578 0.569420 -0.535548
O60   O     O_2   0.625544 0.025661 0.430573 -0.538938
O61   O     O_2   0.374015 0.974424 0.569425 -0.538666
O62   O     O_2   0.025547 0.626269 0.430590 -0.538703
O63   O     O_2   0.973731 0.375135 0.569421 -0.539180
O64   O     O_2   0.374133 0.974811 0.430588 -0.538956
O65   O     O_2   0.625474 0.025050 0.569406 -0.538595
O66   O     O_R   0.438370 0.000220 0.808380 -0.645130
O67   O     O_R   0.561630 0.999780 0.191620 -0.643871
O68   O     O_R   0.999780 0.438370 0.808380 -0.643405
Zn1   Zn    Zn3+2 0.088070 0.500110 0.728590 1.008342
Zn2   Zn    Zn3+2 0.411930 0.999890 0.771410 1.008330
Zn3   Zn    Zn3+2 0.999890 0.588070 0.228590 1.007116
Zn4   Zn    Zn3+2 0.000110 0.411930 0.771410 1.006781
Zn5   Zn    Zn3+2 0.411930 0.999890 0.228590 1.006757
Zn6   Zn    Zn3+2 0.588070 0.000110 0.771410 1.018710
Zn7   Zn    Zn3+2 0.000110 0.411930 0.228590 1.007167
Zn8   Zn    Zn3+2 0.999890 0.588070 0.771410 1.001090
Zn9   Zn    Zn3+2 0.911930 0.499890 0.271410 1.006812
Zn10  Zn    Zn3+2 0.499890 0.088070 0.728590 1.006809
Zn11  Zn    Zn3+2 0.500110 0.911930 0.271410 1.007145
Zn12  Zn    Zn3+2 0.911930 0.499890 0.728590 1.018722
Zn13  Zn    Zn3+2 0.088070 0.500110 0.271410 1.006754
Zn14  Zn    Zn3+2 0.500110 0.911930 0.728590 1.001109
Zn15  Zn    Zn3+2 0.499890 0.088070 0.271410 1.007195
Zn16  Zn    Zn3+2 0.588070 0.000110 0.228590 1.006817

loop_
_geom_bond_atom_site_label_1
_geom_bond_atom_site_label_2
_ccdc_geom_bond_type
C232  H23   S    
C26   C218  S    
C8    C26   S    
C46   C129  S    
C79   C87   A    
C211  N23   S    
C15   C32   S    
C163  C203  A    
C3    C28   S    
C224  O26   A    
C220  O35   A    
O20   Zn2   S    
C14   I13   S    
C65   N1    A    
C76   N54   A    
C65   O53   S    
C145  N40   T    
C112  O2    A    
C36   C53   S    
C19   C37   S    
C26   C239  S    
C73   N55   A    
C38   C55   S    
C78   C96   A    
C122  N17   T    
C214  O38   A    
C20   C45   S    
C72   C94   A    
C130  N25   T    
C27   C220  S    
C4    C56   S    
C161  C205  A    
O23   Zn6   S    
C90   C124  A    
C1    C202  S    
O7    Zn9   S    
C78   C230  A    
C129  N24   T    
C190  C199  A    
C127  N21   T    
C220  O21   A    
C40   C58   S    
C124  C137  S    
O47   Zn3   S    
C169  C187  A    
C172  C190  A    
C219  O8    A    
O9    Zn11  S    
C173  C191  A    
C207  N12   S    
C25   C42   S    
C68   C131  S    
C20   I4    S    
C21   I5    S    
C152  C170  S    
C29   C213  S    
C39   C56   S    
C178  H10   S    
C221  O22   A    
C150  C168  S    
C10   C232  S    
C183  C196  A    
C181  C194  A    
C160  C178  A    
C144  N39   T    
C12   I12   S    
C225  O40   A    
C71   C93   A    
O34   Zn16  S    
C33   C51   S    
C17   C34   S    
C73   C95   A    
O45   Zn8   S    
C216  O18   A    
C164  O66   A    
O1    Zn4   S    
C52   C115  S    
O5    Zn15  S    
C89   C101  A    
O12   Zn13  S    
C196  C197  S    
O38   Zn10  S    
C215  O17   A    
C88   C102  A    
C180  H13   S    
C37   C233  S    
C194  C219  S    
O11   Zn13  S    
C33   C217  S    
C235  H29   S    
C117  N11   T    
C23   C41   S    
C6    C33   S    
C187  C200  A    
C115  N9    T    
C10   I10   S    
C106  N2    T    
C228  O43   A    
C37   C221  S    
C208  O7    A    
C109  N5    T    
C66   N12   A    
O40   Zn5   S    
C57   C85   A    
O41   Zn6   S    
C154  N49   T    
C208  O11   A    
C142  N37   T    
C4    H5    S    
C180  C198  A    
C181  H14   S    
C185  H18   S    
C98   C99   A    
O30   Zn1   S    
C133  N28   T    
O31   Zn12  S    
C143  C161  S    
C155  N50   T    
C138  N32   T    
C27   C238  S    
C47   C233  S    
O42   Zn7   S    
C11   C233  S    
C80   C97   A    
C163  C181  A    
C15   C60   S    
C149  N43   T    
C71   O59   S    
C34   C231  S    
C5    H6    S    
C21   C49   S    
C62   O50   S    
C187  H19   S    
O34   Zn5   S    
C5    C58   S    
C29   C47   S    
C30   C48   S    
C165  C204  A    
O66   Zn2   S    
O16   Zn6   S    
C140  C157  S    
C19   C47   S    
C31   C215  S    
C20   C38   S    
C205  N55   S    
C212  O36   A    
C25   C50   S    
C69   C82   A    
C147  C165  S    
C73   O61   S    
C3    C55   S    
C27   C44   S    
C141  C159  S    
C195  C208  S    
C136  N30   T    
C24   C57   A    
C141  N36   T    
C21   C39   S    
C15   C236  S    
C72   N54   A    
C66   O54   S    
C166  C205  A    
C176  C193  A    
C161  C179  A    
C212  O14   A    
C175  O4    A    
C120  N15   T    
C162  C180  A    
C150  N44   T    
C76   C89   A    
C223  O47   A    
O24   Zn10  S    
C89   C103  A    
O67   Zn16  S    
C134  N29   T    
C100  C102  A    
C14   C235  S    
C42   C226  S    
C51   C114  S    
C111  N7    T    
C9    I9    S    
C57   C130  S    
C191  C200  A    
C237  H31   S    
O29   Zn9   S    
O23   Zn10  S    
C23   I7    S    
C145  C163  S    
C227  O42   A    
C24   C127  S    
C69   O57   S    
C8    C229  S    
C167  C184  A    
C170  C210  A    
C67   O55   S    
C105  N56   T    
C185  C199  A    
C16   I15   S    
C50   C236  S    
C10   C55   S    
C223  O25   A    
C175  C199  S    
C11   C54   S    
C219  O13   A    
C222  O46   A    
C67   C81   A    
C56   C119  S    
C87   C100  A    
C62   C84   A    
O34   Zn11  S    
O1    Zn8   S    
C95   C157  A    
C6    C59   S    
C172  C207  A    
C173  C209  A    
C93   C135  A    
C8    C53   S    
C22   I6    S    
O1    Zn1   S    
C189  C202  A    
C227  O29   A    
C66   C80   A    
C152  N47   T    
C151  C169  S    
C191  H24   S    
C217  O19   A    
C214  O16   A    
C108  N4    T    
O15   Zn3   S    
C123  C230  S    
C83   C96   A    
C50   C111  S    
O8    Zn1   S    
C3    H4    S    
C119  N14   T    
C218  O33   A    
C32   C216  S    
C2    C125  S    
O39   Zn11  S    
C47   C108  S    
C54   C117  S    
C170  C188  A    
C143  N38   T    
C182  C195  A    
C137  N31   T    
C63   C85   A    
C45   C107  S    
C174  C192  A    
C49   C110  S    
C18   I2    S    
C13   C68   A    
C2    C35   A    
C94   C146  A    
C22   C48   S    
C139  C146  S    
C114  N8    T    
C10   C28   S    
C135  C138  S    
C148  C166  S    
C82   C99   A    
C149  C167  S    
C11   I11   S    
C61   O49   S    
C53   C239  S    
C218  O20   A    
C41   C237  S    
C204  N45   S    
C9    C52   S    
C156  C174  S    
C123  N18   T    
C84   C97   A    
C44   C231  S    
C197  O6    A    
C92   C124  A    
C81   C98   A    
C131  N26   T    
C13   C81   A    
C68   C86   A    
O2    Zn3   S    
C36   C229  S    
C192  C201  A    
O3    Zn6   S    
C7    C32   S    
C45   C232  S    
C153  N48   T    
C182  H15   S    
C14   C31   S    
C29   C240  S    
C213  O37   A    
C8    I1    S    
O21   Zn16  S    
C17   C238  S    
C112  O56   A    
C215  O39   A    
O33   Zn14  S    
C101  C157  A    
C71   N53   A    
C162  C206  A    
C142  C160  S    
C46   C230  A    
C39   C223  S    
C112  C201  S    
C31   C49   S    
C25   I8    S    
C64   C86   A    
C186  O5    A    
C179  C196  A    
C18   C239  S    
C41   C225  S    
C210  N34   S    
C121  N16   T    
C177  C194  A    
C167  C206  A    
C6    H7    S    
C183  H16   S    
C40   C234  S    
C61   C83   A    
O14   Zn4   S    
C90   C133  S    
C35   C83   A    
C74   O62   S    
C38   C232  S    
C203  N53   S    
C240  H3    S    
C193  C202  A    
C118  N13   T    
C125  N19   T    
C96   C97   A    
C126  N20   T    
C233  H27   S    
C229  H1    S    
C234  H28   S    
C43   C105  S    
C177  H9    S    
C206  N54   S    
C58   C120  S    
C168  C207  A    
O28   Zn14  S    
C3    C20   S    
C60   C122  S    
O10   Zn10  S    
C175  O67   A    
C13   C126  S    
O46   Zn2   S    
C88   C90   A    
C94   C103  A    
C140  N35   T    
O17   Zn5   S    
C7    C60   S    
C9    C27   S    
C222  O24   A    
C17   I16   S    
C65   C78   A    
C77   O65   S    
C209  N1    S    
C70   C92   A    
C166  C183  A    
C75   O63   S    
C93   C102  A    
C160  C204  A    
C43   C229  S    
C70   O58   S    
C44   C106  S    
C28   C212  S    
C79   C135  A    
C34   C52   S    
C7    C25   S    
C176  C211  A    
O23   Zn14  S    
C38   C222  S    
C17   C44   S    
C224  O48   A    
C18   C43   S    
O6    Zn14  S    
C70   N45   A    
O43   Zn8   S    
C1    O45   A    
O12   Zn7   S    
C35   C128  S    
C4    C31   S    
C228  O30   A    
C148  N42   T    
O48   Zn4   S    
C159  C203  A    
O34   Zn15  S    
C103  C104  A    
C186  C198  S    
O44   Zn16  S    
C18   C36   S    
C48   C234  S    
C164  C200  S    
C55   C118  S    
C64   N34   A    
O4    Zn5   S    
C59   C121  S    
C1    O68   A    
C14   C56   S    
C221  O44   A    
C62   N12   A    
C91   C104  A    
C101  C134  S    
C12   C234  S    
C40   C224  S    
C132  N27   T    
O23   Zn2   S    
C151  N46   T    
C158  N52   T    
O32   Zn13  S    
C30   C214  S    
C79   C132  S    
C188  C201  A    
C128  N22   T    
C171  C189  A    
C15   I14   S    
C64   O52   S    
C24   C82   A    
C85   C98   A    
C63   O51   S    
C19   I3    S    
C5    C22   S    
C139  N33   T    
C113  C136  S    
O18   Zn8   S    
C53   C116  S    
C192  H25   S    
C12   C58   S    
C155  C173  S    
C77   C91   A    
C48   C109  S    
C116  N10   T    
C36   C228  S    
C188  H20   S    
C42   C236  S    
C159  C177  A    
C231  H12   S    
C226  O28   A    
C107  N3    T    
C26   C43   S    
C28   C45   S    
C189  H21   S    
O68   Zn4   S    
C77   N55   A    
O27   Zn15  S    
C42   C60   S    
O25   Zn13  S    
C12   C30   S    
C7    H8    S    
C193  H26   S    
C91   C113  A    
O12   Zn9   S    
C16   C59   S    
O13   Zn12  S    
O37   Zn9   S    
O1    Zn12  S    
C86   C99   A    
C16   C33   S    
C225  O27   A    
C171  C211  A    
O22   Zn11  S    
C23   C51   S    
C213  O15   A    
C22   C40   S    
O36   Zn1   S    
C153  C171  S    
C236  H30   S    
C154  C172  S    
C51   C237  S    
C156  N51   T    
C238  H32   S    
C32   C50   S    
C186  O9    A    
C37   C54   S    
C226  O41   A    
C158  C176  S    
C69   N34   A    
C16   C237  S    
O56   Zn7   S    
C74   C87   A    
C46   C84   A    
C63   N23   A    
C76   O64   S    
C147  N41   T    
C95   C104  A    
C92   C100  A    
C168  C185  A    
C144  C162  S    
C174  C210  A    
C75   N53   A    
C165  C182  A    
O19   Zn7   S    
C74   N45   A    
C197  O10   A    
O26   Zn12  S    
C52   C238  S    
C178  C195  A    
C184  C198  A    
C184  H17   S    
C217  O32   A    
C9    C231  S    
C190  H22   S    
C34   C227  S    
C54   C240  S    
C49   C235  S    
C72   O60   S    
C19   C240  S    
C216  O31   A    
C39   C235  S    
C4    C21   S    
C110  N6    T    
O12   Zn3   S    
C67   N23   A    
C61   N1    A    
C6    C23   S    
C164  O3    A    
C239  H2    S    
C113  C146  A    
C2    C80   A    
C75   C88   A    
C11   C29   S    
C5    C30   S    
C41   C59   S    
C169  C209  A    
C179  H11   S    
O35   Zn15  S    
