data_mof_unit_14674.cif
_audit_creation_date              2012-12-11T15:39:30-0500
_audit_creation_method            fapswitch 2.2
_symmetry_space_group_name_H-M    P1
_symmetry_Int_Tables_number       1
_space_group_crystal_system       triclinic
_cell_length_a                    14.353295
_cell_length_b                    14.8726
_cell_length_c                    33.141951
_cell_angle_alpha                 97.173146
_cell_angle_beta                  90.271819
_cell_angle_gamma                 119.00412
_cell_volume                      6121.71744932

loop_
_atom_site_label
_atom_site_type_symbol
_atom_type_description
_atom_site_fract_x
_atom_site_fract_y
_atom_site_fract_z
_atom_type_partial_charge
C1    C     C_R   0.620881 0.909284 0.438414 0.542884
C2    C     C_R   0.711908 0.437418 0.949377 0.542488
C3    C     C_R   0.624546 0.838383 0.768634 -0.051225
C4    C     C_R   0.632510 0.849657 0.727466 0.292229
C5    C     C_R   0.673426 0.795780 0.701802 0.049638
C6    C     C_R   0.709015 0.734171 0.718105 0.087730
C7    C     C_R   0.704318 0.727060 0.759726 -0.125635
C8    C     C_R   0.661865 0.778768 0.785239 -0.031368
C9    C     C_R   0.563423 0.739845 0.636741 0.310239
C10   C     C_R   0.546834 0.767415 0.599416 0.068133
C11   C     C_R   0.738100 0.889932 0.600980 0.200515
C12   C     C_3   0.840451 0.457565 0.223417 0.001090
C13   C     C_R   0.710766 0.740486 0.950482 0.547391
C14   C     C_3   0.950530 0.554010 0.225694 -0.241138
C15   C     C_3   0.966634 0.632730 0.262939 -0.479021
C16   C     C_3   0.304352 0.757065 0.188829 0.004757
C17   C     C_3   0.329721 0.702217 0.151850 -0.266125
C18   C     C_3   0.441592 0.716629 0.157366 -0.471394
C19   C     C_3   0.286725 0.676178 0.352811 0.026231
C20   C     C_3   0.216284 0.572006 0.325925 -0.264562
C21   C     C_3   0.283526 0.530996 0.303328 -0.457963
C22   C     C_3   0.586952 0.608257 0.320715 -0.002710
C23   C     C_3   0.707845 0.645135 0.318759 -0.262719
C24   C     C_R   0.754858 0.369474 0.160515 0.320133
C25   C     C_3   0.736656 0.562551 0.326911 -0.473023
C26   C     C_3   0.923516 0.509543 0.827881 0.039358
C27   C     C_3   0.883068 0.581224 0.814565 -0.286313
C28   C     C_3   0.888289 0.586937 0.769000 -0.368623
C29   C     C_3   0.810294 0.180007 0.627884 0.043908
C30   C     C_3   0.926714 0.206494 0.622627 -0.193813
C31   C     C_3   0.967956 0.163280 0.653462 -0.466692
C32   C     C_3   0.454900 0.371595 0.825207 0.002810
C33   C     C_3   0.340324 0.333308 0.808498 -0.263062
C34   C     C_3   0.317759 0.423429 0.807918 -0.457816
C35   C     C_R   0.789370 0.414837 0.124735 0.100507
C36   C     C_3   0.211811 0.062166 0.870173 0.002768
C37   C     C_3   0.159002 0.124869 0.887721 -0.274493
C38   C     C_3   0.238416 0.223540 0.915519 -0.476225
C39   C     C_3   0.048038 0.974683 0.717998 0.028963
C40   C     C_3   0.980243 0.004084 0.746498 -0.275774
C41   C     C_3   0.042744 0.118894 0.764755 -0.489276
C42   C     C_3   0.383702 0.055880 0.693027 0.015279
C43   C     C_3   0.420088 0.053959 0.736256 -0.243987
C44   C     C_3   0.358619 0.079007 0.768924 -0.353418
C45   C     C_3   0.660073 0.999027 0.704014 -0.000169
C46   C     C_R   0.614757 0.194516 0.217880 0.100571
C47   C     C_3   0.684247 0.080852 0.741584 -0.271375
C48   C     C_3   0.792018 0.115697 0.763656 -0.432786
C49   C     C_3   0.441312 0.572832 0.646594 0.039787
C50   C     C_3   0.323893 0.512851 0.656412 -0.220330
C51   C     C_3   0.266827 0.399252 0.636966 -0.448990
C52   C     C_3   0.831646 0.024595 0.861660 -0.005879
C53   C     C_3   0.839316 0.127046 0.881103 -0.257866
C54   C     C_3   0.955069 0.212512 0.890957 -0.468084
C55   C     C_3   0.853927 0.918301 0.550541 0.030778
C56   C     C_3   0.948442 0.904093 0.562744 -0.274786
C57   C     C_R   0.609009 0.182895 0.259154 -0.104159
C58   C     C_3   0.988282 0.865242 0.525553 -0.444069
C59   C     C_3   0.449344 0.381305 0.215377 0.015912
C60   C     C_3   0.433895 0.463875 0.197912 -0.277125
C61   C     C_3   0.315602 0.428173 0.189357 -0.454783
C62   C     C_R   0.591328 0.251042 0.287363 -0.030573
C63   C     C_R   0.565291 0.321149 0.272582 -0.109500
C64   C     C_R   0.571786 0.333954 0.231527 0.219642
C65   C     C_R   0.606131 0.276556 0.204903 0.047718
C66   C     C_R   0.644115 0.311707 0.165686 0.064744
C67   C     C_R   0.541870 0.279462 0.358432 -0.110758
C68   C     C_R   0.591789 0.202160 0.455269 0.548713
C69   C     C_R   0.549969 0.277132 0.399993 -0.107507
C70   C     C_R   0.683031 0.222439 0.390423 -0.118002
C71   C     C_R   0.677038 0.227558 0.348719 -0.115208
C72   C     C_R   0.602973 0.251856 0.331976 0.030877
C73   C     C_R   0.616050 0.242976 0.416126 0.017930
C74   C     C_R   0.245641 0.883458 0.393031 0.012705
C75   C     C_R   0.232273 0.966290 0.381563 0.061353
C76   C     C_R   0.227632 0.977203 0.340004 0.126134
C77   C     C_R   0.752730 0.862048 0.638274 -0.150771
C78   C     C_R   0.223756 0.900091 0.310022 -0.034517
C79   C     C_R   0.221488 0.811634 0.321191 -0.158090
C80   C     C_R   0.294390 0.893181 0.434526 0.568184
C81   C     C_R   0.233555 0.802549 0.362416 0.240417
C82   C     C_R   0.181712 0.798361 0.165544 0.246655
C83   C     C_R   0.147591 0.770327 0.124221 -0.096307
C84   C     C_R   0.125128 0.921497 0.124966 -0.124428
C85   C     C_R   0.161545 0.951765 0.166436 0.069782
C86   C     C_R   0.185581 0.887569 0.187182 0.040447
C87   C     C_1   0.203644 0.903745 0.230955 0.065248
C88   C     C_R   0.664681 0.794631 0.657553 0.015528
C89   C     C_1   0.214682 0.906160 0.267220 0.034514
C90   C     C_R   0.114385 0.828471 0.103853 -0.051162
C91   C     C_R   0.657272 0.877563 0.400112 -0.049680
C92   C     C_R   0.613597 0.902951 0.551110 0.543767
C93   C     C_R   0.586989 0.788966 0.373164 -0.160409
C94   C     C_R   0.613486 0.774381 0.333096 0.245767
C95   C     C_R   0.702528 0.855429 0.318692 0.010249
C96   C     C_R   0.780146 0.937073 0.346373 0.070396
C97   C     C_R   0.761360 0.943268 0.387919 0.092795
C98   C     C_R   0.785213 0.927096 0.176218 0.151506
C99   C     C_R   0.633385 0.851475 0.583395 -0.037188
C100  C     C_R   0.782620 0.914034 0.133057 0.113227
C101  C     C_R   0.673892 0.726945 0.131937 -0.170934
C102  C     C_R   0.674725 0.740627 0.174009 -0.169380
C103  C     C_R   0.729848 0.839535 0.196230 0.011186
C104  C     C_R   0.591197 0.202291 0.570548 0.569059
C105  C     C_1   0.724755 0.847900 0.239623 0.034051
C106  C     C_1   0.716032 0.851271 0.275729 0.058879
C107  C     C_R   0.728776 0.812160 0.110698 -0.002113
C108  C     C_R   0.628141 0.263547 0.612522 -0.001008
C109  C     C_R   0.567567 0.306169 0.632167 0.086254
C110  C     C_R   0.051927 0.780729 0.063849 0.549254
C111  C     C_R   0.576028 0.328202 0.674997 0.088981
C112  C     C_R   0.654231 0.321256 0.697580 -0.027760
C113  C     C_R   0.733801 0.308645 0.677477 0.079505
C114  C     C_R   0.717065 0.271573 0.635017 0.246631
C115  C     C_R   0.761389 0.375196 0.841521 0.229124
C116  C     C_R   0.288069 0.886345 0.548211 0.558191
C117  C     C_R   0.773041 0.388709 0.884370 -0.147602
C118  C     C_R   0.586526 0.339959 0.887463 -0.134978
C119  C     C_R   0.572180 0.320619 0.844708 0.210534
C120  C     C_R   0.660269 0.338577 0.821721 0.047034
C121  C     C_R   0.740686 0.481257 0.064799 0.555826
C122  C     C_1   0.652168 0.330300 0.777886 0.073283
C123  C     C_1   0.652519 0.326720 0.741345 0.027245
C124  C     C_R   0.688188 0.379769 0.907491 -0.066534
C125  C     C_R   0.087331 0.769769 0.912490 -0.020147
C126  C     C_R   0.095293 0.858733 0.898572 -0.140715
C127  C     C_R   0.129853 0.882905 0.860103 0.256406
C128  C     C_R   0.713541 0.413323 0.096922 -0.022204
C129  C     C_R   0.147561 0.811831 0.833838 0.021211
C130  C     C_R   0.157477 0.733625 0.850030 -0.158835
C131  C     C_R   0.130642 0.713952 0.889659 0.055085
C132  C     C_R   0.744924 0.787993 0.067363 0.562840
C133  C     C_R   0.212942 0.788240 0.765859 -0.138477
C134  C     C_R   0.208382 0.785712 0.723843 0.066822
C135  C     C_R   0.137919 0.810299 0.704504 0.098543
C136  C     C_R   0.070239 0.835871 0.727811 0.277177
C137  C     C_R   0.071549 0.832568 0.769806 -0.094326
C138  C     C_R   0.145517 0.812615 0.789323 -0.032704
C139  C     C_R   0.228023 0.929577 0.655457 0.250522
C140  C     C_R   0.603919 0.350126 0.101724 -0.157358
C141  C     C_R   0.260317 0.947640 0.616420 -0.152883
C142  C     C_R   0.146802 0.764571 0.590142 0.093154
C143  C     C_R   0.025312 0.734796 0.948278 0.554306
C144  C     C_R   0.109070 0.746744 0.629237 0.108957
C145  C     C_R   0.152220 0.829346 0.661954 0.070590
C146  C     C_R   0.227014 0.865045 0.584555 -0.045868
C147  C     C_R   0.667039 0.745230 0.911322 -0.009829
C148  C     C_R   0.623512 0.657658 0.881354 -0.151833
C149  C     C_R   0.616688 0.669020 0.840540 -0.170455
C150  C     C_R   0.654483 0.767903 0.829001 0.047049
C151  C     C_R   0.692333 0.855775 0.859352 0.278207
C152  C     C_R   0.569804 0.298992 0.135336 -0.128769
C153  C     C_R   0.694366 0.842699 0.900505 -0.098389
Cr1   Cr    Cr6+3 0.424820 0.846020 0.489780 1.082968
Cr2   Cr    Cr6+3 0.657880 0.078580 0.505700 1.080751
Cr3   Cr    Cr6+3 0.417280 0.075360 0.504550 1.076803
Cr4   Cr    Cr6+3 0.903360 0.812540 0.006510 1.035451
Cr5   Cr    Cr6+3 0.914630 0.587050 0.006280 1.074989
Cr6   Cr    Cr6+3 0.673560 0.582680 0.008540 1.016692
H1    H     H_    0.543240 0.342785 0.079940 0.146886
H2    H     H_    0.850869 0.415742 0.899548 0.154386
H3    H     H_    0.685750 0.150036 0.731718 0.145299
H4    H     H_    0.620967 0.050095 0.763242 0.183077
H5    H     H_    0.792580 0.048982 0.774987 0.165528
H6    H     H_    0.807552 0.176760 0.789801 0.187810
H7    H     H_    0.856547 0.148694 0.742703 0.160015
H8    H     H_    0.490065 0.550469 0.664658 0.201513
H9    H     H_    0.447830 0.552386 0.613623 0.169958
H10   H     H_    0.319410 0.517506 0.690030 0.191357
H11   H     H_    0.279749 0.549515 0.644784 0.237539
H12   H     H_    0.271570 0.392886 0.603380 0.192514
H13   H     H_    0.728372 0.209665 0.329498 0.135558
H14   H     H_    0.181378 0.363161 0.643427 0.149293
H15   H     H_    0.301478 0.355938 0.649857 0.209669
H16   H     H_    0.878924 0.037819 0.834500 0.141759
H17   H     H_    0.869319 0.998291 0.883569 0.123631
H18   H     H_    0.799329 0.152540 0.860045 0.184686
H19   H     H_    0.797230 0.114871 0.909655 0.172910
H20   H     H_    0.995265 0.190539 0.913393 0.149666
H21   H     H_    0.957216 0.285837 0.904338 0.178283
H22   H     H_    0.998750 0.226217 0.862809 0.150895
H23   H     H_    0.878728 0.972325 0.527493 0.187010
H24   H     H_    0.519390 0.330814 0.904770 0.140568
H25   H     H_    0.786727 0.842802 0.535322 0.126241
H26   H     H_    0.014751 0.979577 0.577876 0.179676
H27   H     H_    0.923798 0.847291 0.584723 0.190415
H28   H     H_    0.924271 0.788204 0.510675 0.172193
H29   H     H_    0.057704 0.857304 0.535142 0.168059
H30   H     H_    0.013904 0.921210 0.503240 0.182026
H31   H     H_    0.416071 0.372293 0.245837 0.148436
H32   H     H_    0.404387 0.306185 0.194615 0.162996
H33   H     H_    0.470753 0.536860 0.220028 0.179236
H34   H     H_    0.474075 0.480020 0.169004 0.172710
H35   H     H_    0.069624 0.907531 0.916573 0.138854
H36   H     H_    0.278666 0.358394 0.165656 0.185378
H37   H     H_    0.306573 0.490994 0.178200 0.150319
H38   H     H_    0.273012 0.409149 0.217554 0.172892
H39   H     H_    0.619722 0.121676 0.269105 0.142163
H40   H     H_    0.271237 0.773583 0.780173 0.144825
H41   H     H_    0.014438 0.845428 0.787133 0.157932
H42   H     H_    0.319602 0.025650 0.612121 0.151530
H43   H     H_    0.178597 0.682477 0.831100 0.136012
H44   H     H_    0.603559 0.582047 0.889070 0.123934
H45   H     H_    0.497212 0.293551 0.418970 0.160697
H46   H     H_    0.725195 0.910131 0.923896 0.125916
H47   H     H_    0.831709 0.899772 0.653873 0.143179
H48   H     H_    0.586521 0.874344 0.787373 0.169844
H49   H     H_    0.586934 0.601229 0.817570 0.113111
H50   H     H_    0.731272 0.678977 0.772069 0.130706
H51   H     H_    0.484988 0.254041 0.138773 0.131675
H52   H     H_    0.547621 0.372318 0.293061 0.104358
H53   H     H_    0.483432 0.298046 0.347110 0.132048
H54   H     H_    0.831889 0.422962 0.251949 0.160184
H55   H     H_    0.779003 0.482896 0.222230 0.140224
H56   H     H_    0.734422 0.195400 0.401895 0.159030
H57   H     H_    0.013851 0.531622 0.227083 0.209182
H58   H     H_    0.957851 0.591411 0.198045 0.209204
H59   H     H_    0.901924 0.653371 0.262924 0.156898
H60   H     H_    0.043475 0.704323 0.261921 0.178851
H61   H     H_    0.968304 0.601028 0.291388 0.154257
H62   H     H_    0.319129 0.730338 0.216818 0.152351
H63   H     H_    0.359489 0.842797 0.192501 0.142546
H64   H     H_    0.270737 0.617861 0.147480 0.191377
H65   H     H_    0.324239 0.734392 0.124005 0.166239
H66   H     H_    0.502081 0.800318 0.160046 0.189305
H67   H     H_    0.140311 0.698417 0.108859 0.175509
H68   H     H_    0.455982 0.673784 0.130456 0.156831
H69   H     H_    0.450006 0.685550 0.185123 0.147519
H70   H     H_    0.332419 0.662864 0.376189 0.164467
H71   H     H_    0.346938 0.733250 0.334736 0.121936
H72   H     H_    0.163468 0.514416 0.345359 0.198725
H73   H     H_    0.164696 0.580389 0.303323 0.160079
H74   H     H_    0.332740 0.584537 0.281963 0.173887
H75   H     H_    0.229974 0.453528 0.285598 0.166724
H76   H     H_    0.336662 0.522722 0.325277 0.168916
H77   H     H_    0.541698 0.534017 0.299800 0.164051
H78   H     H_    0.211500 0.749973 0.297494 0.119273
H79   H     H_    0.562161 0.591288 0.351898 0.126289
H80   H     H_    0.733299 0.668039 0.288329 0.179661
H81   H     H_    0.754205 0.713841 0.342340 0.167596
H82   H     H_    0.688641 0.517558 0.350699 0.156413
H83   H     H_    0.822483 0.600362 0.337565 0.160182
H84   H     H_    0.724668 0.509922 0.298315 0.157292
H85   H     H_    0.997283 0.524154 0.812657 0.179356
H86   H     H_    0.948632 0.531959 0.860844 0.137424
H87   H     H_    0.800446 0.557030 0.823180 0.151545
H88   H     H_    0.933965 0.660727 0.831115 0.128181
H89   H     H_    0.100195 0.967821 0.109971 0.169856
H90   H     H_    0.875938 0.651571 0.762296 0.153969
H91   H     H_    0.824573 0.514540 0.751527 0.222975
H92   H     H_    0.967265 0.601182 0.758800 0.187555
H93   H     H_    0.756266 0.104454 0.609447 0.182143
H94   H     H_    0.791028 0.168275 0.659838 0.111426
H95   H     H_    0.933395 0.175396 0.591147 0.193474
H96   H     H_    0.979105 0.292258 0.626714 0.212486
H97   H     H_    0.978743 0.206919 0.684384 0.161463
H98   H     H_    0.046213 0.171450 0.645089 0.148615
H99   H     H_    0.911339 0.080248 0.654304 0.170024
H100  H     H_    0.513177 0.731058 0.383228 0.120209
H101  H     H_    0.510922 0.424818 0.805126 0.164514
H102  H     H_    0.466097 0.414545 0.856467 0.122387
H103  H     H_    0.326558 0.291637 0.777022 0.193664
H104  H     H_    0.283409 0.278165 0.827685 0.156454
H105  H     H_    0.328352 0.465134 0.839280 0.167223
H106  H     H_    0.234146 0.393041 0.795649 0.162523
H107  H     H_    0.372488 0.478695 0.788160 0.177127
H108  H     H_    0.273106 0.108374 0.849890 0.171395
H109  H     H_    0.255329 0.050858 0.895406 0.129816
H110  H     H_    0.126339 0.146120 0.862322 0.158852
H111  H     H_    0.632651 0.673126 0.189369 0.134426
H112  H     H_    0.091627 0.076781 0.905507 0.160988
H113  H     H_    0.266522 0.203302 0.942488 0.153939
H114  H     H_    0.199083 0.269653 0.926257 0.160305
H115  H     H_    0.308400 0.271971 0.898948 0.156495
H116  H     H_    0.048683 0.003812 0.688654 0.155802
H117  H     H_    0.132554 0.016674 0.731115 0.174242
H118  H     H_    0.906040 0.988320 0.729243 0.144167
H119  H     H_    0.956751 0.956882 0.771801 0.181929
H120  H     H_    0.116146 0.134981 0.782657 0.154141
H121  H     H_    0.993780 0.139466 0.785622 0.140702
H122  H     H_    0.632945 0.647890 0.116220 0.154197
H123  H     H_    0.065526 0.168626 0.740241 0.156386
H124  H     H_    0.417419 0.137657 0.687888 0.170496
H125  H     H_    0.419488 0.019405 0.671431 0.119114
H126  H     H_    0.411617 0.976730 0.738729 0.191289
H127  H     H_    0.505720 0.112361 0.742196 0.115763
H128  H     H_    0.358474 0.151571 0.764675 0.205776
H129  H     H_    0.396640 0.087999 0.799480 0.164262
H130  H     H_    0.275166 0.015178 0.767327 0.178191
H131  H     H_    0.624434 0.018265 0.678884 0.130313
H132  H     H_    0.734603 0.002867 0.692632 0.107312
I1    I     I_    0.206639 0.069839 0.425499 -0.238058
I2    I     I_    0.475368 0.351907 0.597594 -0.347756
I3    I     I_    0.472571 0.372869 0.706858 -0.500197
I4    I     I_    0.154985 0.596546 0.910506 -0.418539
I5    I     I_    0.995922 0.594522 0.640591 -0.198360
I6    I     I_    0.318644 0.755283 0.691868 -0.317452
I7    I     I_    0.080858 0.642251 0.539541 -0.233936
I8    I     I_    0.629628 0.084138 0.175601 -0.346160
I9    I     I_    0.758624 0.641644 0.680416 -0.321259
I10   I     I_    0.385417 0.680568 0.572464 -0.245282
I11   I     I_    0.171364 0.090501 0.196723 -0.346556
I12   I     I_    0.954664 0.481900 0.114779 -0.293308
I13   I     I_    0.232311 0.112097 0.321533 -0.270840
I14   I     I_    0.856051 0.048359 0.102620 -0.220597
I15   I     I_    0.878261 0.076530 0.211880 -0.180146
I16   I     I_    0.925768 0.048651 0.325033 -0.215903
I17   I     I_    0.895460 0.042948 0.431273 -0.276967
I18   I     I_    0.883143 0.358957 0.711048 -0.406342
O1    O     O_R   0.318160 0.824460 0.443680 -0.456133
O2    O     O_R   0.668160 0.499860 0.053480 -0.530945
O3    O     O_R   0.689170 0.693840 0.050110 -0.507509
O4    O     O_R   0.525040 0.857250 0.449830 -0.507423
O5    O     O_R   0.803860 0.812940 0.962540 -0.517505
O6    O     O_R   0.982950 0.787950 0.964120 -0.515624
O7    O     O_R   0.007050 0.649970 0.960540 -0.471206
O8    O     O_R   0.807910 0.482370 0.965590 -0.493505
O9    O     O_R   0.643310 0.460980 0.963840 -0.522145
O10   O     O_R   0.666140 0.657800 0.967020 -0.492945
O11   O     O_3   0.830520 0.660760 0.007110 -0.253701
O12   O     O_R   0.645130 0.163230 0.552140 -0.458370
O13   O     O_R   0.684760 0.998800 0.456360 -0.484018
O14   O     O_R   0.647540 0.166310 0.470260 -0.490980
O15   O     O_R   0.500960 0.181750 0.467450 -0.490428
O16   O     O_R   0.331100 0.981120 0.457080 -0.486265
O17   O     O_R   0.315560 0.821140 0.532010 -0.446464
O18   O     O_R   0.522630 0.854180 0.531710 -0.478453
O19   O     O_R   0.682160 0.995480 0.544690 -0.491688
O20   O     O_3   0.830116 0.382130 0.190278 -0.518850
O21   O     O_3   0.195201 0.729306 0.185929 -0.582333
O22   O     O_3   0.221872 0.711007 0.373857 -0.537044
O23   O     O_R   0.498360 0.178430 0.555780 -0.484558
O24   O     O_3   0.557106 0.679594 0.308308 -0.592449
O25   O     O_3   0.848669 0.402148 0.818163 -0.546196
O26   O     O_3   0.793966 0.258116 0.614103 -0.517663
O27   O     O_3   0.472309 0.286073 0.825680 -0.600746
O28   O     O_3   0.134167 0.969002 0.846265 -0.599344
O29   O     O_3   0.003797 0.865166 0.709700 -0.554987
O30   O     O_3   0.270844 0.008862 0.688220 -0.585285
O31   O     O_3   0.583269 0.898972 0.711516 -0.528243
O32   O     O_3   0.476846 0.679811 0.657800 -0.513637
O33   O     O_3   0.723424 0.952975 0.848551 -0.594684
O34   O     O_R   0.328690 0.978040 0.538950 -0.508830
O35   O     O_3   0.825993 0.964633 0.584800 -0.585025
O36   O     O_3   0.559394 0.412791 0.218663 -0.597105
O37   O     O_3   0.499990 0.999990 0.500010 -0.277562
O38   O     O_R   0.828710 0.851830 0.052170 -0.478095
O39   O     O_R   0.005980 0.823990 0.047210 -0.497903
O40   O     O_R   0.031900 0.688850 0.050170 -0.493867
O41   O     O_R   0.830940 0.518420 0.048680 -0.461672

loop_
_geom_bond_atom_site_label_1
_geom_bond_atom_site_label_2
_ccdc_geom_bond_type
C39   H117  S    
C101  C107  A    
C126  C127  A    
C142  C146  A    
C59   H32   S    
C19   C20   S    
C12   H55   S    
Cr5   O41   S    
Cr2   O13   S    
C25   H83   S    
C94   O24   S    
C84   C90   A    
C31   H97   S    
C116  O34   A    
C80   O16   A    
C9    C88   A    
C5    C6    A    
Cr4   O5    S    
Cr5   O8    S    
C28   H90   S    
C92   O19   A    
C5    C88   S    
C16   H63   S    
C39   O29   S    
C29   H94   S    
C116  O17   A    
C140  C152  A    
C130  H43   S    
C59   C60   S    
C1    C91   S    
C111  I3    S    
C36   H109  S    
Cr3   O15   S    
C45   C47   S    
C78   C89   S    
C29   H93   S    
C114  O26   S    
C121  C128  S    
C3    C8    A    
C61   H38   S    
C38   H115  S    
C33   H103  S    
C113  I18   S    
C8    C150  S    
C121  O41   A    
C37   C38   S    
C27   H88   S    
C21   H75   S    
C132  O38   A    
C118  C124  A    
C15   H59   S    
Cr1   O18   S    
C19   H70   S    
Cr6   O9    S    
C40   H118  S    
C87   C89   T    
C43   C44   S    
C142  C144  A    
C74   C81   A    
C76   I13   S    
C97   I17   S    
C4    C5    A    
C53   H18   S    
C6    C7    A    
C48   H5    S    
C144  C145  A    
C3    H48   S    
Cr3   O34   S    
C130  C131  A    
C28   H92   S    
C12   O20   S    
C68   O15   A    
C41   H121  S    
C64   C65   A    
C23   H81   S    
C109  I2    S    
C144  I5    S    
C50   H10   S    
C151  C153  A    
C10   C99   A    
C147  C153  A    
C18   H68   S    
C20   C21   S    
C22   C23   S    
C77   H47   S    
C61   H37   S    
C127  O28   S    
Cr1   O37   S    
C147  C148  A    
C29   O26   S    
C11   O35   S    
C1    O13   A    
C7    C8    A    
C85   C86   A    
C108  C109  A    
C36   C37   S    
C18   H66   S    
C76   C78   A    
C109  C111  A    
Cr1   O4    S    
C45   O31   S    
Cr2   O14   S    
C11   C99   A    
C67   C72   A    
C11   C77   A    
C93   H100  S    
C47   H3    S    
C48   H6    S    
C22   O24   S    
C55   H25   S    
Cr5   O11   S    
C143  O7    A    
C19   O22   S    
C133  H40   S    
C20   H72   S    
C94   C95   A    
C37   H110  S    
C71   H13   S    
C149  H49   S    
C60   H34   S    
C44   H130  S    
Cr2   O19   S    
C131  I4    S    
C32   H101  S    
C77   C88   A    
C49   H9    S    
C41   H123  S    
C39   C40   S    
C115  C117  A    
C2    O9    A    
C51   H15   S    
C127  C129  A    
C66   C152  A    
C29   C30   S    
C17   H64   S    
C95   C106  S    
Cr6   O3    S    
C110  O39   A    
C125  C131  A    
C60   H33   S    
C35   I12   S    
C17   C18   S    
C45   H132  S    
C54   H22   S    
C14   H57   S    
C103  C105  S    
C56   H26   S    
C153  H46   S    
C100  I14   S    
Cr1   O1    S    
C13   C147  S    
C15   H60   S    
C3    C4    A    
Cr6   O10   S    
C52   C53   S    
C129  C130  A    
C39   H116  S    
C44   H128  S    
C152  H51   S    
C61   H36   S    
C139  O30   S    
C58   H28   S    
C63   H52   S    
C75   I1    S    
C134  C135  A    
Cr2   O12   S    
C2    C124  S    
C101  H122  S    
C84   H89   S    
C128  C140  A    
C71   C72   A    
C140  H1    S    
C116  C146  S    
C139  C141  A    
C125  C143  S    
C55   H23   S    
C56   C58   S    
C31   H99   S    
C102  C103  A    
C28   H91   S    
C63   C64   A    
Cr3   O23   S    
C49   O32   S    
C69   H45   S    
C49   C50   S    
C79   H78   S    
C14   C15   S    
C13   O5    A    
C37   H112  S    
C38   H113  S    
C92   C99   S    
C83   H67   S    
C55   C56   S    
C101  C102  A    
C34   H106  S    
C135  C136  A    
C118  H24   S    
C26   C27   S    
C70   H56   S    
C117  C124  A    
C96   I16   S    
C30   C31   S    
C98   I15   S    
C98   C103  A    
C54   H20   S    
C108  C114  A    
C82   O21   S    
Cr3   O37   S    
Cr4   O39   S    
C21   H74   S    
C42   O30   S    
C111  C112  A    
C16   C17   S    
C135  C145  S    
C13   O10   A    
C30   H95   S    
C69   C73   A    
C70   C71   A    
C52   H17   S    
C24   C66   A    
C43   H127  S    
C47   H4    S    
C52   O33   S    
C85   I11   S    
C40   H119  S    
C133  C138  A    
C81   O22   S    
C74   C80   S    
C16   H62   S    
C12   H54   S    
C136  O29   S    
C7    H50   S    
C42   H124  S    
Cr5   O40   S    
C25   H84   S    
C84   C85   A    
C112  C123  S    
C86   C87   S    
C107  C132  S    
C53   C54   S    
Cr4   O6    S    
C60   C61   S    
C151  O33   S    
Cr5   O7    S    
C62   C63   A    
C41   H120  S    
C91   C93   A    
C92   O18   A    
C23   H80   S    
C126  H35   S    
C121  O2    A    
C70   C73   A    
C50   C51   S    
C67   H53   S    
C50   H11   S    
C91   C97   A    
C26   O25   S    
C18   H69   S    
C141  C146  A    
C46   C65   A    
C16   O21   S    
C56   H27   S    
C25   H82   S    
C125  C126  A    
C36   H108  S    
C42   C43   S    
C104  C108  S    
C113  C114  A    
C59   O36   S    
C55   O35   S    
C119  O27   S    
C102  H111  S    
C9    O32   S    
C42   H125  S    
C119  C120  A    
C38   H114  S    
C105  C106  T    
C33   H104  S    
C34   H105  S    
C32   C33   S    
C6    I9    S    
C149  C150  A    
C82   C86   A    
C21   H76   S    
C64   O36   S    
C35   C128  A    
Cr1   O17   S    
C19   H71   S    
C48   H7    S    
C82   C83   A    
C136  C137  A    
C59   H31   S    
C143  O6    A    
C22   H79   S    
C93   C94   A    
C20   H73   S    
C1    O4    A    
C57   H39   S    
C32   O27   S    
C95   C96   A    
C4    O31   S    
C36   O28   S    
C75   C76   A    
C53   H19   S    
C10   I10   S    
C57   C62   A    
C141  H42   S    
C49   H8    S    
C68   O14   A    
C80   O1    A    
C26   H85   S    
C51   H14   S    
C118  C119  A    
Cr6   O2    S    
C110  O40   A    
C129  C138  S    
C45   H131  S    
C14   H58   S    
Cr3   O16   S    
C26   H86   S    
C32   H102  S    
C104  O23   A    
C112  C113  A    
C120  C122  S    
C44   H129  S    
C24   C35   A    
C74   C75   A    
C58   H29   S    
C148  C149  A    
Cr2   O37   S    
C27   H87   S    
C79   C81   A    
C78   C79   A    
C117  H2    S    
C68   C73   S    
C67   C69   A    
C134  I6    S    
C104  O12   A    
C47   C48   S    
C52   H16   S    
C137  H41   S    
C142  I7    S    
C96   C97   A    
C58   H30   S    
C33   C34   S    
Cr4   O11   S    
C62   C72   S    
C31   H98   S    
C132  O3    A    
C22   H77   S    
C40   C41   S    
C12   C14   S    
C115  C120  A    
C46   C57   A    
C24   O20   S    
C90   C110  S    
C9    C10   A    
C115  O25   S    
C83   C90   A    
C139  C145  A    
C100  C107  A    
C150  C151  A    
C46   I8    S    
C34   H107  S    
C137  C138  A    
C98   C100  A    
C2    O8    A    
C51   H12   S    
C15   H61   S    
C17   H65   S    
C133  C134  A    
C54   H21   S    
C23   C25   S    
Cr4   O38   S    
C65   C66   S    
C27   C28   S    
C30   H96   S    
C122  C123  T    
Cr6   O11   S    
C148  H44   S    
C43   H126  S    
