data_mof_unit_14007.cif
_audit_creation_date              2012-12-10T19:30:40-0500
_audit_creation_method            fapswitch 2.2
_symmetry_space_group_name_H-M    P1
_symmetry_Int_Tables_number       1
_space_group_crystal_system       triclinic
_cell_length_a                    14.93872
_cell_length_b                    15.743151
_cell_length_c                    16.698486
_cell_angle_alpha                 90.046411
_cell_angle_beta                  85.221938
_cell_angle_gamma                 90.883971
_cell_volume                      3913.07821402

loop_
_atom_site_label
_atom_site_type_symbol
_atom_type_description
_atom_site_fract_x
_atom_site_fract_y
_atom_site_fract_z
_atom_type_partial_charge
C1    C     C_R   0.500668 0.662508 0.500044 0.906623
C2    C     C_3   0.558958 0.029932 0.440297 -0.318167
C3    C     C_3   0.501357 0.917228 0.500166 0.079433
C4    C     C_3   0.498597 0.082733 0.500265 0.079765
C5    C     C_1   0.502610 0.826528 0.500234 0.004509
C6    C     C_1   0.497358 0.173443 0.500104 0.004144
C7    C     C_3   0.036086 0.560705 0.449130 -0.303727
C8    C     C_3   0.963909 0.439323 0.550899 -0.302935
C9    C     C_3   0.976612 0.484378 0.424581 -0.325802
C10   C     C_3   0.023386 0.515647 0.575446 -0.325077
C11   C     C_3   0.969666 0.574679 0.523792 0.598860
C12   C     C_R   0.499330 0.337487 0.499994 0.910471
C13   C     C_3   0.030328 0.425347 0.476237 0.599123
C14   C     C_3   0.910466 0.499786 0.499725 -0.005144
C15   C     C_3   0.089531 0.500240 0.500301 -0.005528
C16   C     C_R   0.487803 0.504409 0.653607 0.855173
C17   C     C_R   0.512371 0.501359 0.346098 0.859647
C18   C     C_1   0.810233 0.500053 0.499895 0.109891
C19   C     C_1   0.189765 0.499962 0.500117 0.111240
C20   C     C_R   0.481109 0.533614 0.736512 -0.035392
C21   C     C_R   0.520168 0.517148 0.259941 -0.039951
C22   C     C_R   0.553551 0.579613 0.764207 -0.199756
C23   C     C_3   0.418232 0.024560 0.488285 0.582518
C24   C     C_R   0.442880 0.515079 0.217969 -0.206929
C25   C     C_R   0.546280 0.615025 0.840288 -0.159372
C26   C     C_R   0.447316 0.541696 0.138713 -0.149145
C27   C     C_R   0.467373 0.602642 0.890604 0.203178
C28   C     C_R   0.529147 0.571650 0.100613 0.204084
C29   C     C_R   0.393183 0.560761 0.861709 -0.169933
C30   C     C_R   0.607086 0.570576 0.141542 -0.179647
C31   C     C_R   0.399894 0.526449 0.784640 -0.200351
C32   C     C_R   0.602719 0.543638 0.220987 -0.194755
C33   C     C_2   0.466582 0.618297 0.976813 -0.243278
C34   C     C_3   0.581721 0.975395 0.512147 0.582841
C35   C     C_2   0.537130 0.594249 0.015447 -0.229113
C36   C     C_3   0.999056 0.292653 0.426219 0.098325
C37   C     C_3   0.036468 0.204295 0.411325 -0.824805
C38   C     C_3   0.000888 0.707327 0.573934 0.098057
C39   C     C_3   0.963453 0.795662 0.588904 -0.826669
C40   C     C_3   0.272646 0.989344 0.464560 0.075085
C41   C     C_3   0.179857 0.025118 0.454307 -0.302000
C42   C     C_3   0.111799 0.954666 0.439723 -0.999970
C43   C     C_3   0.727317 0.010561 0.535882 0.074927
C44   C     C_3   0.820097 0.974750 0.546098 -0.302527
C45   C     C_3   0.477021 0.970816 0.428075 -0.323533
C46   C     C_3   0.888189 0.045169 0.560691 -0.999488
C47   C     C_3   0.522936 0.029143 0.572360 -0.324039
C48   C     C_1   0.502164 0.751328 0.500174 -0.180394
C49   C     C_1   0.497820 0.248650 0.500028 -0.185272
C50   C     C_3   0.440997 0.970021 0.560137 -0.317952
H1    H     H_    0.615608 0.589290 0.726711 0.166200
H2    H     H_    0.671141 0.591175 0.112139 0.128442
H3    H     H_    0.386923 0.536900 0.107405 0.125733
H4    H     H_    0.603443 0.649293 0.860899 0.132156
H5    H     H_    0.457850 0.944949 0.369942 0.154083
H6    H     H_    0.542111 0.055003 0.630493 0.153398
H7    H     H_    0.607357 0.056394 0.392340 0.153756
H8    H     H_    0.392606 0.943546 0.608093 0.154288
H9    H     H_    0.957562 0.471100 0.362911 0.147691
H10   H     H_    0.042439 0.528916 0.637117 0.147982
H11   H     H_    0.976016 0.316604 0.368860 0.137415
H12   H     H_    0.378685 0.493948 0.246665 0.161041
H13   H     H_    0.940664 0.287157 0.472078 0.130828
H14   H     H_    0.056889 0.177537 0.468404 0.258638
H15   H     H_    0.984384 0.162008 0.388096 0.200808
H16   H     H_    0.095646 0.207279 0.366461 0.262538
H17   H     H_    0.059323 0.712875 0.528122 0.131254
H18   H     H_    0.023867 0.683306 0.631292 0.137327
H19   H     H_    0.904217 0.792612 0.633706 0.261583
H20   H     H_    0.015496 0.837913 0.612248 0.201246
H21   H     H_    0.943112 0.822503 0.531831 0.258902
H22   H     H_    0.267135 0.945773 0.517336 0.132982
H23   H     H_    0.065341 0.611351 0.408294 0.152717
H24   H     H_    0.294988 0.953079 0.409384 0.137075
H25   H     H_    0.156253 0.060739 0.509370 0.227361
H26   H     H_    0.184490 0.069633 0.402455 0.234325
H27   H     H_    0.133417 0.918854 0.384297 0.269616
H28   H     H_    0.045339 0.982883 0.432255 0.275564
H29   H     H_    0.104833 0.910250 0.491553 0.266535
H30   H     H_    0.704997 0.046806 0.591078 0.136935
H31   H     H_    0.732827 0.054156 0.483121 0.132937
H32   H     H_    0.815461 0.930213 0.597935 0.233889
H33   H     H_    0.843670 0.939146 0.491015 0.227375
H34   H     H_    0.934654 0.388683 0.591741 0.153451
H35   H     H_    0.895156 0.089609 0.508878 0.266442
H36   H     H_    0.954642 0.016922 0.568128 0.275555
H37   H     H_    0.866603 0.080961 0.616137 0.269709
H38   H     H_    0.663265 0.545898 0.252431 0.159089
H39   H     H_    0.342476 0.493303 0.763189 0.151868
H40   H     H_    0.600669 0.579788 0.982134 0.151041
H41   H     H_    0.402728 0.632233 0.009677 0.146896
H42   H     H_    0.331891 0.550725 0.900202 0.124833
N1    N     N_1   0.731990 0.500000 0.499970 -0.094883
N2    N     N_1   0.268010 0.500000 0.500030 -0.093865
O1    O     O_R   0.425540 0.623220 0.500000 -0.619066
O2    O     O_3   0.932814 0.653674 0.547491 -0.605396
O3    O     O_3   0.332955 0.057213 0.476295 -0.634116
O4    O     O_3   0.666987 0.942715 0.524134 -0.634508
O5    O     O_R   0.574460 0.376780 0.500000 -0.617657
O6    O     O_R   0.574480 0.623220 0.499990 -0.594720
O7    O     O_R   0.425520 0.376780 0.500010 -0.590275
O8    O     O_R   0.416730 0.500010 0.615810 -0.614414
O9    O     O_R   0.583270 0.499990 0.384190 -0.618984
O10   O     O_R   0.565670 0.500010 0.615790 -0.614899
O11   O     O_R   0.434330 0.499990 0.384210 -0.612577
O12   O     O_3   0.067168 0.346345 0.452541 -0.604408
Zn1   Zn    Zn3+2 0.400550 0.500000 0.500010 0.982829
Zn2   Zn    Zn3+2 0.599450 0.500000 0.499990 0.978190

loop_
_geom_bond_atom_site_label_1
_geom_bond_atom_site_label_2
_ccdc_geom_bond_type
C11   O2    S    
O7    Zn1   S    
C8    C13   S    
C23   C45   S    
C27   C29   A    
C41   C42   S    
C14   C18   S    
C10   H10   S    
C43   O4    S    
C43   C44   S    
C44   H33   S    
C12   C49   S    
C2    H7    S    
C7    H23   S    
C27   C33   S    
C7    C11   S    
O5    Zn2   S    
O11   Zn1   S    
C36   C37   S    
C24   C26   A    
C44   H32   S    
C10   C15   S    
C33   H41   S    
N1    Zn2   S    
C38   C39   S    
C11   C14   S    
C32   H38   S    
C9    C13   S    
C12   O5    A    
C34   O4    S    
C15   C19   S    
C16   O10   A    
C28   C35   S    
C31   H39   S    
C22   C25   A    
C37   H15   S    
C8    C14   S    
O9    Zn2   S    
C36   H13   S    
C16   C20   S    
C46   H35   S    
C2    C34   S    
C7    C15   S    
C42   H29   S    
C1    O6    A    
C21   C32   A    
C3    C50   S    
C44   C46   S    
C47   C50   S    
C2    C45   S    
C5    C48   T    
N2    Zn1   S    
O6    Zn2   S    
C36   O12   S    
C50   H8    S    
C25   H4    S    
C4    C6    S    
C40   O3    S    
C4    C23   S    
C23   C50   S    
C3    C34   S    
C43   H30   S    
C3    C45   S    
C17   C21   S    
C9    H9    S    
C2    C4    S    
C9    C14   S    
C17   O11   A    
C41   H25   S    
C1    O1    A    
C37   H16   S    
C39   H19   S    
O8    Zn1   S    
C19   N2    T    
O1    Zn1   S    
C16   O8    A    
C40   C41   S    
C23   O3    S    
C20   C22   A    
C42   H28   S    
C13   C15   S    
C43   H31   S    
C36   H11   S    
C26   H3    S    
O10   Zn2   S    
C37   H14   S    
C46   H37   S    
C7    C9    S    
C30   H2    S    
C24   H12   S    
C40   H22   S    
C8    H34   S    
C38   H18   S    
C13   O12   S    
C3    C5    S    
C1    C48   S    
C25   C27   A    
C26   C28   A    
C28   C30   A    
C17   O9    A    
C12   O7    A    
C29   C31   A    
C41   H26   S    
C30   C32   A    
C33   C35   D    
C39   H20   S    
C40   H24   S    
C6    C49   T    
C10   C11   S    
C35   H40   S    
C38   H17   S    
C45   H5    S    
C42   H27   S    
C8    C10   S    
C21   C24   A    
C38   O2    S    
C18   N1    T    
C39   H21   S    
C22   H1    S    
C34   C47   S    
C4    C47   S    
C29   H42   S    
C47   H6    S    
C46   H36   S    
C20   C31   A    
