data_mof_unit_11106.cif
_audit_creation_date              2012-12-11T14:06:43-0500
_audit_creation_method            fapswitch 2.2
_symmetry_space_group_name_H-M    P1
_symmetry_Int_Tables_number       1
_space_group_crystal_system       triclinic
_cell_length_a                    6.925155
_cell_length_b                    17.289059
_cell_length_c                    24.113457
_cell_angle_alpha                 104.512014
_cell_angle_beta                  90.405182
_cell_angle_gamma                 89.93488
_cell_volume                      2794.9073047

loop_
_atom_site_label
_atom_site_type_symbol
_atom_type_description
_atom_site_fract_x
_atom_site_fract_y
_atom_site_fract_z
_atom_type_partial_charge
O1    O     O_R   0.494290 0.391990 0.999150 -0.535147
O2    O     O_R   0.827170 0.534410 0.082350 -0.542938
O3    O     O_R   0.994360 0.608010 0.000850 -0.535170
C1    C     C_R   0.658551 0.549960 0.106152 0.706280
O4    O     O_R   0.824210 0.388010 0.004470 -0.546102
O5    O     O_R   0.991370 0.460560 0.922410 -0.540568
C2    C     C_R   0.654573 0.354865 0.001469 0.774771
O6    O     O_R   0.497270 0.539440 0.077590 -0.540960
O7    O     O_3   0.659770 0.523970 0.973170 -0.371078
V1    V     V_3+5 0.935840 0.495550 0.004980 1.413499
O8    O     O_R   0.320910 0.465590 0.917650 -0.543670
C3    C     C_R   0.151416 0.450078 0.893894 0.707222
O9    O     O_R   0.323870 0.611990 0.995530 -0.545764
C4    C     C_R   0.154362 0.645115 0.998524 0.776471
V2    V     V_3+5 0.435470 0.504450 0.995020 1.413996
O10   O     O_3   0.161670 0.476030 0.026830 -0.371758
C5    C     C_2   0.142752 0.730252 0.998101 -0.339077
H1    H     H_    0.277162 0.761059 0.994724 0.150672
C6    C     C_2   0.972800 0.769790 0.002032 -0.339052
H2    H     H_    0.838390 0.738984 0.005410 0.150670
C7    C     C_R   0.185744 0.256452 0.623117 0.578969
N1    N     N_R   0.099772 0.328109 0.648442 -0.558890
C8    C     C_R   0.998328 0.369734 0.616211 0.575307
C9    C     C_R   0.979302 0.339442 0.556461 -0.023216
C10   C     C_R   0.066634 0.265975 0.530010 -0.016526
C11   C     C_R   0.171272 0.224078 0.563461 -0.025441
C12   C     C_R   0.875347 0.380804 0.522615 -0.150895
C13   C     C_R   0.858166 0.349577 0.463405 -0.138284
C14   C     C_R   0.944550 0.276207 0.436524 -0.025426
C15   C     C_R   0.049196 0.234311 0.469974 -0.016526
C16   C     C_R   0.136526 0.160845 0.443524 -0.023246
C17   C     C_R   0.240481 0.119482 0.477370 -0.150858
C18   C     C_R   0.257658 0.150709 0.536580 -0.138277
C19   C     C_R   0.930062 0.243828 0.376868 0.579004
N2    N     N_R   0.016029 0.172169 0.351543 -0.558899
C20   C     C_R   0.117487 0.130549 0.383774 0.575291
O11   O     O_2   0.282996 0.216035 0.655579 -0.514232
O12   O     O_2   0.917164 0.440561 0.641771 -0.518109
H3    H     H_    0.806798 0.437469 0.541739 0.161671
H4    H     H_    0.777053 0.383205 0.438792 0.178210
O13   O     O_2   0.832794 0.284241 0.344406 -0.514172
O14   O     O_2   0.198651 0.059722 0.358215 -0.518133
H5    H     H_    0.309024 0.062815 0.458245 0.161769
H6    H     H_    0.338764 0.117078 0.561192 0.178180
C21   C     C_R   0.822368 0.120362 0.263201 -0.076893
H7    H     H_    0.692122 0.127329 0.288554 0.130960
C22   C     C_R   0.809481 0.090707 0.203595 -0.195348
H8    H     H_    0.668505 0.075655 0.184224 0.131122
C23   C     C_R   0.976659 0.080710 0.169575 -0.058634
C24   C     C_R   0.156771 0.101094 0.196859 -0.195381
H9    H     H_    0.288581 0.094529 0.172233 0.130797
C25   C     C_R   0.169257 0.130839 0.256359 -0.081747
H10   H     H_    0.309161 0.146708 0.276275 0.126805
C26   C     C_R   0.002355 0.140799 0.290081 0.373134
C27   C     C_R   0.293364 0.379881 0.736805 -0.076852
H11   H     H_    0.423635 0.372921 0.711462 0.130956
C28   C     C_R   0.306206 0.409497 0.796415 -0.195341
H12   H     H_    0.447169 0.424528 0.815800 0.131121
C29   C     C_R   0.138998 0.419476 0.830422 -0.058654
C30   C     C_R   0.958904 0.399121 0.803120 -0.195358
H13   H     H_    0.827071 0.405674 0.827735 0.130815
C31   C     C_R   0.946464 0.369414 0.743616 -0.081747
H14   H     H_    0.806573 0.353560 0.723687 0.126809
C32   C     C_R   0.113396 0.359465 0.709907 0.373128
C33   C     C_R   0.443880 0.869717 0.611995 0.576618
N3    N     N_R   0.507959 0.825404 0.648433 -0.559659
C34   C     C_R   0.590048 0.751578 0.627296 0.576211
C35   C     C_R   0.611771 0.720096 0.567785 -0.027437
C36   C     C_R   0.547230 0.765083 0.530016 -0.015775
C37   C     C_R   0.461948 0.840432 0.552139 -0.024467
C38   C     C_R   0.696520 0.644880 0.545205 -0.140036
C39   C     C_R   0.717094 0.614891 0.486027 -0.147585
C40   C     C_R   0.653440 0.659327 0.447866 -0.024439
C41   C     C_R   0.568155 0.734675 0.469990 -0.015773
C42   C     C_R   0.503618 0.779663 0.432221 -0.027450
C43   C     C_R   0.418872 0.854880 0.454801 -0.140033
C44   C     C_R   0.398298 0.884869 0.513979 -0.147548
C45   C     C_R   0.671509 0.630043 0.388010 0.576623
N4    N     N_R   0.607432 0.674357 0.351573 -0.559655
C46   C     C_R   0.525345 0.748183 0.372710 0.576173
O15   O     O_2   0.365248 0.942383 0.633524 -0.515052
O16   O     O_2   0.649583 0.708391 0.663689 -0.513633
H15   H     H_    0.747427 0.608881 0.573180 0.178916
H16   H     H_    0.782942 0.556717 0.470321 0.162730
O17   O     O_2   0.750140 0.557377 0.366481 -0.515024
O18   O     O_2   0.465818 0.791373 0.336318 -0.513678
H17   H     H_    0.367971 0.890881 0.426827 0.178897
H18   H     H_    0.332458 0.943045 0.529685 0.162830
C47   C     C_R   0.802698 0.626436 0.263613 -0.075427
H19   H     H_    0.933664 0.638331 0.289114 0.125444
C48   C     C_R   0.815543 0.596075 0.204014 -0.195193
H20   H     H_    0.957019 0.585025 0.184836 0.127927
C49   C     C_R   0.647514 0.580816 0.169702 -0.058577
C50   C     C_R   0.466753 0.596364 0.196757 -0.193625
H21   H     H_    0.334056 0.585398 0.172023 0.130933
C51   C     C_R   0.454287 0.626570 0.256165 -0.083483
H22   H     H_    0.313583 0.637863 0.275843 0.121676
C52   C     C_R   0.621850 0.642198 0.290181 0.374544
C53   C     C_R   0.312717 0.873337 0.736397 -0.075426
H23   H     H_    0.181745 0.861428 0.710899 0.125444
C54   C     C_R   0.299892 0.903727 0.795993 -0.195200
H24   H     H_    0.158422 0.914785 0.815174 0.127934
C55   C     C_R   0.467931 0.919012 0.830298 -0.058543
C56   C     C_R   0.648683 0.903452 0.803239 -0.193611
H25   H     H_    0.781388 0.914437 0.827969 0.130953
C57   C     C_R   0.661130 0.873215 0.743834 -0.083503
H26   H     H_    0.801828 0.861920 0.724152 0.121678
C58   C     C_R   0.493557 0.857570 0.709824 0.374541
C59   C     C_2   0.642895 0.269683 0.001880 -0.339663
H27   H     H_    0.777464 0.238746 0.005234 0.150409
C60   C     C_2   0.472615 0.230271 0.997973 -0.339631
H28   H     H_    0.338044 0.261208 0.994621 0.150395
O19   O     O_R   0.618210 0.960470 0.922400 -0.541006
O20   O     O_R   0.291310 0.111960 0.995450 -0.546097
O21   O     O_R   0.124210 0.039530 0.077580 -0.540566
C61   C     C_R   0.460943 0.145102 0.998420 0.774784
O22   O     O_R   0.288310 0.965490 0.917650 -0.542919
O23   O     O_R   0.121180 0.892010 0.999220 -0.535170
C62   C     C_R   0.456918 0.949920 0.893844 0.706349
O24   O     O_R   0.621230 0.107990 0.000760 -0.535172
O25   O     O_3   0.455770 0.976060 0.026840 -0.371097
V3    V     V_3+5 0.179680 0.004440 0.995020 1.413522
O26   O     O_R   0.791670 0.888040 0.004570 -0.545790
C63   C     C_R   0.961182 0.854917 0.001580 0.776445
O27   O     O_R   0.794680 0.034510 0.082370 -0.543736
C64   C     C_R   0.964191 0.050047 0.106109 0.707163
V4    V     V_3+5 0.680070 0.995560 0.005010 1.414037
O28   O     O_3   0.953840 0.023940 0.973160 -0.371749

loop_
_geom_bond_atom_site_label_1
_geom_bond_atom_site_label_2
_ccdc_geom_bond_type
C27   H11   S    
C49   C50   A    
C40   C41   A    
N4    C52   S    
C20   O14   S    
C60   H28   S    
C9    C12   A    
C1    O6    A    
C56   C57   A    
O24   V4    S    
O26   C63   A    
C22   C23   A    
C21   H7    S    
O22   V3    S    
C23   C64   S    
C14   C15   A    
O21   C64   A    
C13   C14   A    
O25   V4    S    
O22   C62   A    
O5    C3    A    
C15   C16   A    
C28   C29   A    
C57   H26   S    
C13   H4    S    
C33   C37   A    
C30   C31   A    
C19   N2    A    
O23   V3    S    
C31   C32   A    
C59   C60   D    
O19   C62   A    
C3    C29   S    
O8    V2    S    
C53   H23   S    
C44   H18   S    
C12   H3    S    
C35   C36   A    
C51   C52   A    
C24   C25   A    
C40   C45   A    
C60   C61   S    
O1    V2    S    
C47   C48   A    
C42   C46   A    
C16   C20   A    
N3    C34   A    
C29   C30   A    
C54   C55   A    
O21   V3    S    
O9    C4    A    
C27   C32   A    
N2    C26   S    
C4    C5    S    
C36   C37   A    
C19   O13   S    
C56   H25   S    
C7    C11   A    
C25   C26   A    
C24   H9    S    
C38   H15   S    
C21   C22   A    
C6    C63   S    
C41   C42   A    
C34   C35   A    
C54   H24   S    
C9    C10   A    
C48   H20   S    
O4    C2    A    
C1    C49   S    
C45   N4    A    
C10   C11   A    
C14   C19   A    
C61   O24   A    
C30   H13   S    
N2    C20   A    
O2    C1    A    
C42   C43   A    
C31   H14   S    
C53   C58   A    
C48   C49   A    
C11   C18   A    
C33   O15   S    
C22   H8    S    
C8    C9    A    
C51   H22   S    
C5    H1    S    
C36   C41   A    
O23   C63   A    
C43   C44   A    
C50   C51   A    
C43   H17   S    
O25   V3    S    
C39   H16   S    
O3    C4    A    
C45   O17   S    
C53   C54   A    
C21   C26   A    
C33   N3    A    
O6    V2    S    
C27   C28   A    
O27   C64   A    
V4    O28   S    
O2    V1    S    
O26   V4    S    
C55   C56   A    
C25   H10   S    
O7    V1    S    
C10   C15   A    
O1    C2    A    
C18   H6    S    
C16   C17   A    
C55   C62   S    
N3    C58   S    
C39   C40   A    
O5    V1    S    
O20   C61   A    
O8    C3    A    
O19   V4    S    
C8    O12   S    
C46   O18   S    
C47   C52   A    
C17   C18   A    
C6    H2    S    
O9    V2    S    
O7    V2    S    
O4    V1    S    
O3    V1    S    
V1    O10   S    
C59   H27   S    
C28   H12   S    
C57   C58   A    
C35   C38   A    
C5    C6    D    
C17   H5    S    
V3    O28   S    
C50   H21   S    
N1    C32   S    
N4    C46   A    
O20   V3    S    
C2    C59   S    
C38   C39   A    
C7    O11   S    
C34   O16   S    
C23   C24   A    
C12   C13   A    
O27   V4    S    
N1    C8    A    
C47   H19   S    
C7    N1    A    
V2    O10   S    
C37   C44   A    
