data_mof_unit_58138.cif
_audit_creation_date              2012-12-10T20:27:59-0500
_audit_creation_method            fapswitch 2.2
_symmetry_space_group_name_H-M    P1
_symmetry_Int_Tables_number       1
_space_group_crystal_system       triclinic
_cell_length_a                    12.857611
_cell_length_b                    10.675317
_cell_length_c                    9.869602
_cell_angle_alpha                 90.038545
_cell_angle_beta                  96.880144
_cell_angle_gamma                 90.174742
_cell_volume                      1344.93018023

loop_
_atom_site_label
_atom_site_type_symbol
_atom_type_description
_atom_site_fract_x
_atom_site_fract_y
_atom_site_fract_z
_atom_type_partial_charge
C1    C     C_R   0.497516 0.260075 0.499646 0.925936
C2    C     C_R   0.452089 0.934966 0.376295 -0.238877
C3    C     C_R   0.481993 0.871286 0.498960 -0.054391
C4    C     C_R   0.298229 0.499405 0.473302 0.866600
C5    C     C_R   0.493545 0.936212 0.622067 0.060194
C6    C     C_3   0.575879 0.927021 0.742121 -0.510554
C7    C     C_3   0.578818 0.069331 0.742154 0.241448
C8    C     C_R   0.440749 0.415257 0.062060 0.123597
C9    C     C_R   0.565990 0.576582 0.082949 0.526274
C10   C     C_R   0.566521 0.574766 0.937990 -0.247298
C11   C     C_R   0.440386 0.415667 0.919650 0.216247
C12   C     C_R   0.027907 0.472568 0.557948 0.184580
C13   C     C_3   0.324068 0.403580 0.897181 -0.514052
C14   C     C_3   0.324801 0.401667 0.050940 -0.488951
C15   C     C_R   0.497021 0.739918 0.499641 0.872281
C16   C     C_R   0.701721 0.500497 0.526510 0.923480
C17   C     C_R   0.813691 0.497659 0.542287 -0.068100
C18   C     C_R   0.186142 0.501275 0.456498 -0.041750
C19   C     C_R   0.022934 0.562081 0.329181 -0.204706
C20   C     C_R   0.130713 0.550749 0.337860 -0.203656
C21   C     C_R   0.134688 0.459302 0.564250 -0.279328
C22   C     C_3   0.628107 0.777510 0.132627 0.083195
C23   C     C_R   0.971608 0.524522 0.439498 0.179472
C24   C     C_3   0.729127 0.824440 0.083388 -0.844516
C25   C     C_R   0.864733 0.537332 0.432982 -0.268485
C26   C     C_R   0.869268 0.448863 0.661115 -0.147177
C27   C     C_R   0.976817 0.435890 0.668779 -0.208428
C28   C     C_R   0.495685 0.063642 0.621940 0.027161
C29   C     C_R   0.483879 0.128472 0.498803 -0.050183
C30   C     C_R   0.453112 0.064641 0.376186 -0.217221
Cl1   Cl    Cl    0.701298 0.130444 0.702119 -0.628764
H1    H     H_    0.821158 0.576764 0.342044 0.196323
H2    H     H_    0.980154 0.601664 0.237921 0.146909
H3    H     H_    0.019719 0.396631 0.760131 0.148411
H4    H     H_    0.170776 0.583695 0.254140 0.151104
H5    H     H_    0.177844 0.417647 0.653782 0.149042
H6    H     H_    0.435852 0.113895 0.280206 0.162294
H7    H     H_    0.434220 0.885529 0.280398 0.153227
H8    H     H_    0.543861 0.887494 0.832557 0.167028
H9    H     H_    0.617357 0.829839 0.227088 0.188806
H10   H     H_    0.559688 0.801499 0.056756 0.095220
H11   H     H_    0.744091 0.775113 0.988767 0.245404
H12   H     H_    0.648773 0.881466 0.716557 0.233094
H13   H     H_    0.722866 0.926413 0.061821 0.237832
H14   H     H_    0.796209 0.808199 0.163303 0.259803
H15   H     H_    0.550444 0.112064 0.833657 0.109645
H16   H     H_    0.619460 0.634480 0.890266 0.165757
H17   H     H_    0.285780 0.488602 0.849526 0.216689
H18   H     H_    0.298489 0.313312 0.847555 0.196290
H19   H     H_    0.286035 0.484580 0.090714 0.211474
H20   H     H_    0.300811 0.309884 0.090547 0.203381
H21   H     H_    0.829406 0.417636 0.745782 0.189836
N1    N     N_R   0.499290 0.499140 0.142710 -0.151734
N2    N     N_R   0.499290 0.499180 0.857070 -0.125359
O1    O     O_R   0.500010 0.316790 0.614690 -0.605488
O2    O     O_R   0.500000 0.316760 0.385350 -0.625961
O3    O     O_R   0.346360 0.499990 0.595720 -0.625540
O4    O     O_R   0.346350 0.499960 0.366370 -0.635496
O5    O     O_R   0.500000 0.683240 0.614650 -0.618879
O6    O     O_R   0.499990 0.683210 0.385310 -0.613554
O7    O     O_R   0.653650 0.500040 0.633630 -0.617126
O8    O     O_R   0.653640 0.500010 0.404280 -0.572598
O9    O     O_3   0.637099 0.648727 0.166219 -0.593257
Zn1   Zn    Zn3+2 0.500010 0.500020 0.653130 0.961952
Zn2   Zn    Zn3+2 0.499990 0.499980 0.346870 0.981444

loop_
_geom_bond_atom_site_label_1
_geom_bond_atom_site_label_2
_ccdc_geom_bond_type
C8    N1    A    
C4    O3    A    
O7    Zn1   S    
C19   C23   A    
C6    C7    S    
C26   H21   S    
C13   H17   S    
C18   C21   A    
C24   H11   S    
C9    C10   A    
C2    H7    S    
O4    Zn2   S    
C19   C20   A    
C2    C30   A    
C22   H9    S    
O1    Zn1   S    
C25   H1    S    
C1    C29   S    
C2    C3    A    
C1    O1    A    
C17   C25   A    
C21   H5    S    
C13   C14   S    
C11   C13   S    
C12   C23   A    
O5    Zn1   S    
C14   H19   S    
C11   N2    A    
N2    Zn1   S    
C8    C11   A    
C13   H18   S    
C24   H14   S    
C12   C21   A    
C28   C29   A    
C1    O2    A    
O6    Zn2   S    
C18   C20   A    
C6    H12   S    
C23   C25   A    
C27   H3    S    
C26   C27   A    
C5    C6    S    
C10   N2    A    
C22   C24   S    
C22   H10   S    
C9    N1    A    
C16   O7    A    
C17   C26   A    
C12   C27   A    
C29   C30   A    
O2    Zn2   S    
C5    C28   A    
C7    H15   S    
N1    Zn2   S    
C24   H13   S    
O3    Zn1   S    
C15   O6    A    
C4    O4    A    
C10   H16   S    
C6    H8    S    
C3    C15   S    
C8    C14   S    
O8    Zn2   S    
C22   O9    S    
C9    O9    S    
C20   H4    S    
C15   O5    A    
C4    C18   S    
C16   O8    A    
C7    Cl1   S    
C7    C28   S    
C14   H20   S    
C30   H6    S    
C19   H2    S    
C16   C17   S    
C3    C5    A    
