data_mof_unit_6234.cif
_audit_creation_date              2012-12-10T16:47:50-0500
_audit_creation_method            fapswitch 2.2
_symmetry_space_group_name_H-M    P1
_symmetry_Int_Tables_number       1
_space_group_crystal_system       triclinic
_cell_length_a                    7.874954
_cell_length_b                    8.570375
_cell_length_c                    10.642261
_cell_angle_alpha                 92.266478
_cell_angle_beta                  85.721176
_cell_angle_gamma                 93.137994
_cell_volume                      714.730472517

loop_
_atom_site_label
_atom_site_type_symbol
_atom_type_description
_atom_site_fract_x
_atom_site_fract_y
_atom_site_fract_z
_atom_type_partial_charge
C1    C     C_R   0.544917 0.794132 0.496889 0.977641
C2    C     C_2   0.568614 0.957510 0.495472 -0.355763
C3    C     C_2   0.431320 0.042502 0.505459 -0.351577
C4    C     C_R   0.501619 0.499951 0.737064 0.937344
C5    C     C_R   0.455035 0.205861 0.503257 0.919343
C6    C     C_R   0.496520 0.490602 0.262971 0.906265
C7    C     C_2   0.618944 0.417331 0.057466 -0.149767
C8    C     C_2   0.484466 0.460587 0.131586 -0.338366
C9    C     C_2   0.609311 0.409810 0.922449 -0.103292
C10   C     C_2   0.506106 0.502319 0.869575 -0.274553
H1    H     H_    0.738669 0.392087 0.094994 0.183368
H2    H     H_    0.359818 0.470194 0.096077 0.159085
H3    H     H_    0.692325 0.332902 0.865965 0.194403
H4    H     H_    0.424473 0.583204 0.922677 0.147403
H5    H     H_    0.698793 0.007335 0.485993 0.193117
H6    H     H_    0.301147 0.992658 0.515096 0.206832
H7    H     H_    0.012122 0.399730 0.391730 0.141048
H8    H     H_    0.119611 0.769077 0.817374 0.356772
N1    N     N_2   0.950320 0.457950 0.466680 -0.141337
N2    N     N_2   0.049680 0.542050 0.533320 0.109134
O1    O     O_R   0.389250 0.738570 0.508180 -0.586282
O2    O     O_2   0.946058 0.503309 0.772254 -0.325017
O3    O     O_3   0.151372 0.742958 0.727479 -0.529880
O4    O     O_R   0.678390 0.711630 0.486820 -0.578565
O5    O     O_R   0.355470 0.513470 0.691600 -0.557278
O6    O     O_R   0.644610 0.486520 0.670240 -0.537933
O7    O     O_R   0.321610 0.288370 0.513180 -0.636746
O8    O     O_R   0.610750 0.261430 0.491820 -0.626336
O9    O     O_R   0.355390 0.513480 0.329760 -0.653273
O10   O     O_R   0.644530 0.486530 0.308400 -0.630501
O11   O     O_2   0.841654 0.732549 0.675003 -0.289709
S1    S     S_3+6 0.987448 0.628395 0.678268 0.153558
Zn1   Zn    Zn3+2 0.306940 0.517990 0.514260 1.049185
Zn2   Zn    Zn3+2 0.693060 0.482010 0.485740 1.031675

loop_
_geom_bond_atom_site_label_1
_geom_bond_atom_site_label_2
_ccdc_geom_bond_type
C4    O6    A    
C1    O1    A    
C5    O8    A    
C9    C10   D    
N1    N2    D    
C8    H2    S    
O3    S1    S    
C2    C3    D    
O8    Zn2   S    
C7    C8    D    
O7    Zn1   S    
C7    H1    S    
C2    H5    S    
O2    S1    D    
N2    Zn1   S    
H7    N1    S    
C4    O5    A    
N2    S1    S    
O1    Zn1   S    
O10   Zn2   S    
C4    C10   S    
H8    O3    S    
O9    Zn1   S    
C6    O9    A    
C1    O4    A    
C1    C2    S    
C10   H4    S    
C7    C9    S    
C9    H3    S    
C6    C8    S    
C6    O10   A    
C5    O7    A    
O6    Zn2   S    
O4    Zn2   S    
C3    H6    S    
O11   S1    D    
O5    Zn1   S    
C3    C5    S    
N1    Zn2   S    
