data_mof_unit_44570.cif
_audit_creation_date              2012-12-11T14:50:30-0500
_audit_creation_method            fapswitch 2.2
_symmetry_space_group_name_H-M    P1
_symmetry_Int_Tables_number       1
_space_group_crystal_system       triclinic
_cell_length_a                    10.953279
_cell_length_b                    11.03636
_cell_length_c                    18.813884
_cell_angle_alpha                 89.421499
_cell_angle_beta                  89.41622
_cell_angle_gamma                 60.272346
_cell_volume                      1974.85199447

loop_
_atom_site_label
_atom_site_type_symbol
_atom_type_description
_atom_site_fract_x
_atom_site_fract_y
_atom_site_fract_z
_atom_type_partial_charge
C1    C     C_R   0.228169 0.649679 0.606742 0.560721
C2    C     C_3   0.588299 0.626386 0.804729 -0.042616
C3    C     C_3   0.694598 0.679509 0.811550 0.120120
C4    C     C_3   0.670369 0.642473 0.676338 0.003185
C5    C     C_3   0.827782 0.565238 0.697022 -0.226022
C6    C     C_3   0.589948 0.588427 0.725405 -0.016358
C7    C     C_R   0.751549 0.228877 0.718052 0.220749
C8    C     C_R   0.773562 0.193159 0.790830 -0.136225
C9    C     C_R   0.666630 0.192480 0.831851 0.026956
C10   C     C_R   0.529946 0.251029 0.802793 0.083989
C11   C     C_R   0.510618 0.278614 0.730325 -0.185125
C12   C     C_R   0.652953 0.618357 0.601543 0.570177
C13   C     C_R   0.621081 0.262433 0.686866 -0.013418
C14   C     C_R   0.160969 0.571138 0.717138 -0.163745
C15   C     C_R   0.142450 0.586442 0.790400 -0.152242
C16   C     C_R   0.109097 0.712754 0.823093 0.069792
C17   C     C_R   0.105428 0.820393 0.782590 -0.130108
C18   C     C_R   0.131161 0.802580 0.710421 -0.171601
C19   C     C_R   0.160663 0.677883 0.676808 0.022359
C20   C     C_R   0.708066 0.525557 0.270604 -0.162280
C21   C     C_R   0.709653 0.542252 0.197936 -0.194839
C22   C     C_R   0.648885 0.676224 0.168514 0.026774
C23   C     C_R   0.593355 0.291199 0.610250 0.586660
C24   C     C_R   0.572088 0.794604 0.212520 0.259033
C25   C     C_R   0.572722 0.776230 0.286011 -0.126910
C26   C     C_R   0.644741 0.642371 0.315089 -0.026161
C27   C     C_R   0.514064 0.245106 0.278063 -0.170108
C28   C     C_R   0.525741 0.225184 0.205872 -0.126732
C29   C     C_R   0.658571 0.156448 0.175439 0.005667
C30   C     C_R   0.780218 0.112491 0.217034 -0.129149
C31   C     C_R   0.769859 0.133802 0.290179 0.250980
C32   C     C_R   0.635333 0.196794 0.320293 0.051440
C33   C     C_R   0.258296 0.705707 0.280227 -0.164828
C34   C     C_R   0.226183 0.647870 0.400274 0.586339
C35   C     C_R   0.238316 0.707840 0.208287 -0.161788
C36   C     C_R   0.147606 0.665040 0.182283 0.012176
C37   C     C_R   0.084892 0.609543 0.227692 -0.130914
C38   C     C_R   0.105639 0.606108 0.300630 0.073653
C39   C     C_R   0.188952 0.659210 0.326717 0.095203
C40   C     C_R   0.698042 0.109274 0.898103 0.583817
C41   C     C_R   0.723997 0.690561 0.887613 0.569439
C42   C     C_R   0.063120 0.739102 0.897041 0.579769
C43   C     C_R   0.676145 0.105526 0.103954 0.566802
C44   C     C_R   0.694647 0.691101 0.097553 0.557528
C45   C     C_R   0.639491 0.618937 0.390634 0.542593
C46   C     C_R   0.092842 0.708345 0.112183 0.556282
C47   C     C_R   0.614477 0.234047 0.394008 0.585555
C48   C     C_3   0.645345 0.821879 0.766862 0.338661
C49   C     C_3   0.613776 0.796857 0.688621 -0.198011
C50   C     C_3   0.838368 0.564038 0.777912 0.126015
Cr1   Cr    Cr6+3 0.392930 0.397900 0.502230 1.017109
Cr2   Cr    Cr6+3 0.398240 0.708600 0.501260 1.007335
Cr3   Cr    Cr6+3 0.708800 0.393470 0.496460 1.057721
Cr4   Cr    Cr6+3 0.937620 0.938540 0.007640 1.004694
Cr5   Cr    Cr6+3 0.625150 0.937450 0.994520 1.041445
Cr6   Cr    Cr6+3 0.937990 0.625080 0.001190 1.012346
H1    H     H_    0.651912 0.476173 0.723360 0.213984
H2    H     H_    0.885537 0.456509 0.677646 0.217234
H3    H     H_    0.874876 0.160338 0.814312 0.134340
H4    H     H_    0.408828 0.311670 0.707561 0.129128
H5    H     H_    0.182542 0.474099 0.692840 0.108714
H6    H     H_    0.148041 0.501691 0.821325 0.104000
H7    H     H_    0.083059 0.918099 0.806575 0.113962
H8    H     H_    0.143718 0.880367 0.682057 0.113329
H9    H     H_    0.757136 0.420633 0.292105 0.153164
H10   H     H_    0.766049 0.450354 0.165118 0.134516
H11   H     H_    0.519959 0.866487 0.320210 0.134863
H12   H     H_    0.409134 0.300120 0.300753 0.149975
H13   H     H_    0.431904 0.259017 0.174370 0.137015
H14   H     H_    0.883538 0.053278 0.193362 0.144796
H15   H     H_    0.328458 0.740568 0.299569 0.135353
H16   H     H_    0.498368 0.852654 0.679540 0.126784
H17   H     H_    0.287774 0.749381 0.173214 0.118505
H18   H     H_    0.012754 0.577885 0.207332 0.137611
H19   H     H_    0.651500 0.838812 0.645392 0.089687
H20   H     H_    0.918024 0.592684 0.791177 0.157583
H21   H     H_    0.882600 0.617018 0.672316 0.083598
H22   H     H_    0.627233 0.528326 0.836430 0.185543
O1    O     O_R   0.507430 0.255570 0.581420 -0.538856
O2    O     O_R   0.524460 0.695920 0.424060 -0.512960
O3    O     O_R   0.736530 0.504260 0.414810 -0.518325
O4    O     O_R   0.691460 0.277160 0.422180 -0.467485
O5    O     O_3   0.499990 0.499990 0.499980 -0.285538
O6    O     O_R   0.089490 0.825610 0.930610 -0.520795
O7    O     O_R   0.818370 0.054540 0.929880 -0.526322
O8    O     O_R   0.605870 0.077310 0.915530 -0.489765
O9    O     O_R   0.646440 0.806700 0.917570 -0.521534
O10   O     O_R   0.837200 0.593290 0.915250 -0.508906
O11   O     O_R   0.065330 0.635370 0.931590 -0.520335
O12   O     O_R   0.280190 0.527390 0.578910 -0.514918
O13   O     O_R   0.068300 0.828790 0.091860 -0.527911
O14   O     O_R   0.798730 0.057480 0.079370 -0.524799
O15   O     O_R   0.584680 0.080480 0.076790 -0.482694
O16   O     O_R   0.626790 0.809640 0.067050 -0.460471
O17   O     O_R   0.816010 0.596460 0.076500 -0.534326
O18   O     O_R   0.045680 0.638310 0.081070 -0.505272
O19   O     O_3   0.833590 0.833690 0.001120 -0.271228
O20   O     O_R   0.260310 0.739740 0.584580 -0.521217
O21   O     O_R   0.532250 0.695150 0.573830 -0.492411
O22   O     O_R   0.744930 0.503430 0.576380 -0.507887
O23   O     O_R   0.699250 0.276390 0.571950 -0.454648
O24   O     O_R   0.499020 0.256400 0.419850 -0.537561
O25   O     O_R   0.272400 0.528160 0.429140 -0.487158
O26   O     O_R   0.251910 0.740570 0.423020 -0.528781
O27   O     O_3   0.755829 0.854312 0.775144 -0.584863
C51   C     C_3   0.782112 0.916424 0.715757 -0.127458
H23   H     H_    0.845443 0.837551 0.675153 0.117850
H24   H     H_    0.848096 0.959339 0.732796 0.143531
H25   H     H_    0.684034 0.002071 0.693118 0.132378
O28   O     O_3   0.873540 0.429094 0.804512 -0.569222
C52   C     C_3   0.020259 0.341807 0.810809 -0.110147
H26   H     H_    0.043732 0.232646 0.817871 0.130296
H27   H     H_    0.058470 0.368886 0.859175 0.143286
H28   H     H_    0.078028 0.345034 0.762521 0.083574
O29   O     O_3   0.841918 0.261107 0.681405 -0.549679
C53   C     C_3   0.968584 0.140101 0.666652 -0.106440
H29   H     H_    0.031098 0.099875 0.715917 0.087137
H30   H     H_    0.030375 0.167358 0.629313 0.135750
H31   H     H_    0.949550 0.061640 0.639735 0.123994
N1    N     N_3   0.411731 0.276694 0.846755 -0.609519
H32   H     H_    0.333828 0.273401 0.816603 0.200797
H33   H     H_    0.371644 0.376240 0.868237 0.241428
N2    N     N_3   0.512478 0.939698 0.792852 -0.644628
H34   H     H_    0.477684 0.022830 0.756725 0.213616
H35   H     H_    0.524681 0.980126 0.839360 0.320043
O30   O     O_3   0.514451 0.928748 0.185769 -0.531419
C54   C     C_3   0.368426 0.983744 0.178386 -0.106723
H36   H     H_    0.345832 0.925261 0.137667 0.115134
H37   H     H_    0.321280 0.093403 0.159707 0.136068
H38   H     H_    0.317052 0.984647 0.229919 0.081883
O31   O     O_3   0.886429 0.082003 0.334713 -0.545567
C55   C     C_3   0.998739 0.093369 0.304202 -0.113897
H39   H     H_    0.068899 0.088784 0.347510 0.147835
H40   H     H_    0.962545 0.194005 0.275440 0.085824
H41   H     H_    0.062261 0.003822 0.268603 0.120353
N3    N     N_3   0.038446 0.554416 0.347944 -0.610383
H42   H     H_    0.070174 0.451631 0.333624 0.224732
H43   H     H_    0.929937 0.613854 0.340114 0.241577
N4    N     N_3   0.446820 0.721154 0.833211 -0.653566
H44   H     H_    0.453237 0.747672 0.885621 0.254080
H45   H     H_    0.392699 0.812252 0.803341 0.266369
N5    N     N_3   0.452593 0.623031 0.699271 -0.609713
H46   H     H_    0.390154 0.731029 0.698032 0.260896
H47   H     H_    0.409389 0.581108 0.734896 0.259310

loop_
_geom_bond_atom_site_label_1
_geom_bond_atom_site_label_2
_ccdc_geom_bond_type
Cr6   O17   S    
C37   H18   S    
O30   C54   S    
Cr1   O5    S    
C21   H10   S    
C11   C13   A    
C35   C36   A    
C25   H11   S    
Cr5   O15   S    
C48   N2    S    
Cr4   O6    S    
N2    H34   S    
C23   O23   A    
Cr1   O24   S    
C28   C29   A    
C33   C39   A    
C51   H24   S    
C5    H2    S    
C2    N4    S    
C36   C37   A    
Cr1   O12   S    
C3    C41   S    
C38   C39   A    
N2    H35   S    
C51   H23   S    
C7    O29   S    
C15   C16   A    
C44   O16   A    
C3    C48   S    
C50   O28   S    
C53   H29   S    
C13   C23   S    
Cr3   O3    S    
C18   C19   A    
C47   O4    A    
C40   O8    A    
O28   C52   S    
C12   O21   A    
C31   O31   S    
C27   H12   S    
C26   C45   S    
C43   O15   A    
C22   C44   S    
C52   H26   S    
Cr3   O23   S    
C8    C9    A    
C49   H16   S    
C49   H19   S    
Cr4   O19   S    
C36   C46   S    
C38   N3    S    
C6    N5    S    
C29   C30   A    
C9    C10   A    
C47   O24   A    
C21   C22   A    
C29   C43   S    
C24   O30   S    
C6    H1    S    
C52   H28   S    
C2    C6    S    
Cr6   O19   S    
Cr5   O16   S    
C30   H14   S    
C3    C50   S    
N1    H33   S    
Cr3   O22   S    
C41   O9    A    
C1    C19   S    
C34   C39   S    
C20   H9    S    
C7    C8    A    
C10   N1    S    
C24   C25   A    
C4    C6    S    
C16   C17   A    
C46   O13   A    
C25   C26   A    
C14   H5    S    
C9    C40   S    
C34   O26   A    
Cr3   O4    S    
C40   O7    A    
Cr2   O5    S    
C54   H37   S    
Cr4   O14   S    
C37   C38   A    
C2    H22   S    
C50   H20   S    
C48   O27   S    
C7    C13   A    
Cr5   O19   S    
C28   H13   S    
C17   C18   A    
C42   O6    A    
C52   H27   S    
N3    H43   S    
C48   C49   S    
Cr2   O26   S    
C32   C47   S    
C22   C24   A    
C5    C50   S    
C4    C12   S    
C5    H21   S    
C11   H4    S    
C1    O12   A    
C16   C42   S    
N1    H32   S    
Cr6   O18   S    
C41   O10   A    
Cr6   O11   S    
C35   H17   S    
C27   C32   A    
N5    H46   S    
C14   C19   A    
C31   C32   A    
C45   O3    A    
C43   O14   A    
N3    H42   S    
C1    O20   A    
Cr4   O7    S    
N4    H44   S    
O27   C51   S    
Cr2   O21   S    
C34   O25   A    
C53   H31   S    
C4    C49   S    
Cr3   O5    S    
C42   O11   A    
Cr5   O8    S    
C2    C3    S    
C54   H38   S    
Cr4   O13   S    
C8    H3    S    
C44   O17   A    
C17   H7    S    
N4    H45   S    
C18   H8    S    
O29   C53   S    
C30   C31   A    
C20   C26   A    
C55   H41   S    
Cr2   O20   S    
C33   C35   A    
C15   H6    S    
C53   H30   S    
C55   H39   S    
C45   O2    A    
N5    H47   S    
Cr5   O9    S    
O31   C55   S    
Cr1   O1    S    
C12   O22   A    
Cr6   O10   S    
C10   C11   A    
C33   H15   S    
C4    C5    S    
C46   O18   A    
C20   C21   A    
C55   H40   S    
C27   C28   A    
C14   C15   A    
C23   O1    A    
Cr2   O2    S    
Cr1   O25   S    
C54   H36   S    
C51   H25   S    
