data_mof_unit_19149.cif
_audit_creation_date              2012-12-10T19:28:56-0500
_audit_creation_method            fapswitch 2.2
_symmetry_space_group_name_H-M    P1
_symmetry_Int_Tables_number       1
_space_group_crystal_system       triclinic
_cell_length_a                    17.698344
_cell_length_b                    16.473952
_cell_length_c                    10.699222
_cell_angle_alpha                 89.998386
_cell_angle_beta                  89.097139
_cell_angle_gamma                 89.998722
_cell_volume                      3119.0957336

loop_
_atom_site_label
_atom_site_type_symbol
_atom_type_description
_atom_site_fract_x
_atom_site_fract_y
_atom_site_fract_z
_atom_type_partial_charge
C1    C     C_R   0.355413 0.500064 0.498010 0.937146
C2    C     C_R   0.644587 0.500062 0.501990 0.937137
C3    C     C_1   0.966155 0.502958 0.501210 0.101990
C4    C     C_1   0.033845 0.502958 0.498874 0.102077
C5    C     C_R   0.561681 0.828635 0.549007 -0.095351
C6    C     C_R   0.455368 0.171557 0.414330 -0.113779
C7    C     C_R   0.438320 0.828639 0.450987 -0.095298
C8    C     C_R   0.544628 0.171549 0.585668 -0.113759
C9    C     C_R   0.558854 0.742728 0.550063 0.043435
C10   C     C_R   0.455798 0.257470 0.418776 0.044318
C11   C     C_R   0.441146 0.742732 0.449935 0.043406
C12   C     C_R   0.544201 0.257462 0.581224 0.044318
C13   C     C_R   0.500000 0.873145 0.499997 -0.035377
C14   C     C_R   0.499998 0.127037 0.499998 -0.050962
C15   C     C_1   0.499999 0.962891 0.499997 0.195947
C16   C     C_1   0.499998 0.037292 0.499997 0.181161
C17   C     C_R   0.498902 0.500016 0.259300 0.928873
C18   C     C_R   0.501098 0.500014 0.740700 0.928867
C19   C     C_3   0.463807 0.566993 0.041714 -0.096117
C20   C     C_3   0.536201 0.433333 0.958332 -0.086364
C21   C     C_3   0.536197 0.566988 0.958277 -0.096114
C22   C     C_3   0.463795 0.433338 0.041676 -0.086363
C23   C     C_3   0.428880 0.500181 0.959566 -0.115629
C24   C     C_3   0.571120 0.500173 0.040434 -0.115635
C25   C     C_3   0.501065 0.500110 0.876779 -0.193865
C26   C     C_3   0.498935 0.500113 0.123221 -0.193864
C27   C     C_R   0.845671 0.573421 0.474509 0.405373
C28   C     C_R   0.153286 0.430101 0.466436 0.434226
C29   C     C_R   0.154328 0.573426 0.525515 0.405493
C30   C     C_R   0.846714 0.430105 0.533651 0.434264
C31   C     C_R   0.766776 0.571525 0.472008 -0.276900
C32   C     C_R   0.232728 0.430556 0.463512 -0.257185
C33   C     C_R   0.233224 0.571530 0.527995 -0.276996
C34   C     C_R   0.767272 0.430556 0.536539 -0.257127
C35   C     C_R   0.727336 0.500629 0.503868 -0.129143
C36   C     C_R   0.272664 0.500632 0.496145 -0.129100
C37   C     C_R   0.885331 0.502286 0.503751 -0.058884
C38   C     C_R   0.114668 0.502285 0.496321 -0.058815
Cu1   Cu    Cu3+1 0.500000 0.580420 0.500000 1.003747
Cu2   Cu    Cu3+1 0.500000 0.419580 0.500000 0.999618
H1    H     H_    0.736569 0.625525 0.443637 0.181042
H2    H     H_    0.263299 0.376493 0.435540 0.169014
H3    H     H_    0.263432 0.625533 0.556338 0.181014
H4    H     H_    0.736701 0.376496 0.564523 0.169006
H5    H     H_    0.605100 0.708757 0.589103 0.156333
H6    H     H_    0.421505 0.291886 0.355120 0.163769
H7    H     H_    0.394900 0.708765 0.410895 0.156327
H8    H     H_    0.578494 0.291873 0.644881 0.163751
N1    N     N_R   0.500000 0.701220 0.500000 -0.193970
N2    N     N_R   0.500000 0.298780 0.500000 -0.198663
O1    O     O_R   0.391260 0.567930 0.500000 -0.595294
O2    O     O_R   0.608740 0.432070 0.500000 -0.585463
O3    O     O_R   0.608740 0.567930 0.500000 -0.595295
O4    O     O_R   0.391260 0.432070 0.500000 -0.585474
O5    O     O_R   0.499980 0.567900 0.316850 -0.574095
O6    O     O_R   0.500020 0.432100 0.683150 -0.584472
O7    O     O_R   0.500020 0.567900 0.683150 -0.574105
O8    O     O_R   0.499980 0.432100 0.316850 -0.584477
C39   C     C_2   0.348716 0.499949 0.915268 0.875009
O9    O     O_2   0.296646 0.501929 0.991569 -0.513613
O10   O     O_R   0.333777 0.497065 0.787742 -0.790317
H9    H     H_    0.277621 0.496374 0.770555 0.331190
C40   C     C_2   0.651284 0.499933 0.084733 0.875026
O11   O     O_2   0.703354 0.501901 0.008431 -0.513602
O12   O     O_R   0.666222 0.497055 0.212260 -0.790314
H10   H     H_    0.722379 0.496358 0.229448 0.331195
C41   C     C_2   0.418796 0.636872 0.094437 0.909596
O13   O     O_2   0.436208 0.706763 0.069377 -0.521500
O14   O     O_R   0.356693 0.620954 0.172921 -0.733452
H11   H     H_    0.330373 0.672282 0.202493 0.343810
C42   C     C_2   0.581846 0.363616 0.906806 0.889300
O15   O     O_2   0.563561 0.293641 0.929490 -0.527849
O16   O     O_R   0.645850 0.379847 0.832807 -0.738326
H12   H     H_    0.673287 0.328711 0.805350 0.339424
C43   C     C_2   0.581213 0.636861 0.905548 0.909594
O17   O     O_2   0.563803 0.706754 0.930597 -0.521504
O18   O     O_R   0.643317 0.620934 0.827072 -0.733451
H13   H     H_    0.669640 0.672260 0.797494 0.343810
C44   C     C_2   0.418144 0.363627 0.093207 0.889298
O19   O     O_2   0.436422 0.293650 0.070525 -0.527842
O20   O     O_R   0.354142 0.379867 0.167206 -0.738330
H14   H     H_    0.326701 0.328735 0.194666 0.339428
O21   O     O_3   0.884142 0.642409 0.436046 -0.601247
C45   C     C_3   0.877402 0.703263 0.528837 0.060916
H15   H     H_    0.920875 0.692732 0.601090 0.169048
H16   H     H_    0.820600 0.704668 0.575665 0.152150
C46   C     C_3   0.890775 0.786007 0.467896 -0.326614
H17   H     H_    0.947550 0.786970 0.422300 0.226792
H18   H     H_    0.847870 0.795991 0.394687 0.237624
C47   C     C_3   0.885221 0.854678 0.563392 -0.887858
H19   H     H_    0.827677 0.856637 0.606245 0.283110
H20   H     H_    0.896493 0.913597 0.516256 0.257493
H21   H     H_    0.927368 0.846094 0.638033 0.254580
O22   O     O_3   0.112147 0.362400 0.430178 -0.595311
C48   C     C_3   0.133363 0.291690 0.496556 0.042999
H22   H     H_    0.081482 0.266102 0.541193 0.173430
H23   H     H_    0.173705 0.302667 0.573980 0.136301
C49   C     C_3   0.165700 0.228711 0.405061 -0.322506
H24   H     H_    0.121867 0.212404 0.336149 0.231710
H25   H     H_    0.214825 0.254684 0.353088 0.241756
C50   C     C_3   0.190901 0.152044 0.472812 -0.851842
H26   H     H_    0.236814 0.166516 0.538840 0.264247
H27   H     H_    0.212579 0.107147 0.403640 0.273828
H28   H     H_    0.142596 0.124558 0.525115 0.245088
O23   O     O_3   0.115850 0.642414 0.563967 -0.601263
C51   C     C_3   0.122675 0.703329 0.471278 0.060736
H29   H     H_    0.079043 0.693046 0.399213 0.169049
H30   H     H_    0.179396 0.704546 0.424162 0.152089
C52   C     C_3   0.109705 0.786072 0.532455 -0.326707
H31   H     H_    0.053018 0.787230 0.578349 0.226953
H32   H     H_    0.152786 0.795813 0.605455 0.237613
C53   C     C_3   0.115314 0.854811 0.437080 -0.887879
H33   H     H_    0.172773 0.856557 0.393892 0.283252
H34   H     H_    0.104370 0.913732 0.484407 0.257527
H35   H     H_    0.072971 0.846490 0.362674 0.254538
O24   O     O_3   0.887849 0.362414 0.569971 -0.595293
C54   C     C_3   0.866681 0.291701 0.503566 0.042999
H36   H     H_    0.918588 0.266132 0.458989 0.173479
H37   H     H_    0.826366 0.302669 0.426099 0.136270
C55   C     C_3   0.834324 0.228709 0.595024 -0.322485
H38   H     H_    0.878109 0.212460 0.664054 0.231776
H39   H     H_    0.785130 0.254644 0.646862 0.241724
C56   C     C_3   0.809252 0.152002 0.527258 -0.851882
H40   H     H_    0.763409 0.166416 0.461065 0.264244
H41   H     H_    0.787522 0.107114 0.596402 0.273826
H42   H     H_    0.857635 0.124533 0.475135 0.245099
C57   C     C_2   0.630276 0.869139 0.598187 0.854626
O25   O     O_2   0.667525 0.835660 0.678593 -0.612034
O26   O     O_R   0.653997 0.944095 0.550433 -0.757277
H43   H     H_    0.701719 0.964635 0.591036 0.333434
C58   C     C_2   0.408468 0.131090 0.318261 0.890450
O27   O     O_2   0.352606 0.165450 0.278057 -0.617871
O28   O     O_R   0.428926 0.055068 0.270525 -0.731307
H44   H     H_    0.392498 0.034557 0.205501 0.357228
C59   C     C_2   0.369727 0.869147 0.401799 0.854563
O29   O     O_2   0.332491 0.835678 0.321372 -0.612100
O30   O     O_R   0.345995 0.944095 0.449567 -0.757286
H45   H     H_    0.298273 0.964636 0.408961 0.333416
C60   C     C_2   0.591526 0.131074 0.681738 0.890464
O31   O     O_2   0.647394 0.165424 0.721935 -0.617884
O32   O     O_R   0.571059 0.055057 0.729485 -0.731311
H46   H     H_    0.607485 0.034539 0.794512 0.357229

loop_
_geom_bond_atom_site_label_1
_geom_bond_atom_site_label_2
_ccdc_geom_bond_type
C2    C35   S    
Cu1   O1    S    
C46   H17   S    
C40   O12   S    
C9    H5    S    
C50   H26   S    
C56   H40   S    
O16   H12   S    
C11   H7    S    
C48   H22   S    
C45   C46   S    
C12   H8    S    
C53   H34   S    
O20   H14   S    
C48   C49   S    
C59   O29   D    
C30   O24   S    
O18   H13   S    
C23   C39   S    
C8    C60   S    
C17   C26   S    
C32   C36   A    
C19   C21   S    
C24   C26   S    
C22   C44   S    
C54   H37   S    
C56   H41   S    
C20   C25   S    
C15   C16   T    
Cu1   O7    S    
C29   C33   A    
C33   C36   A    
O24   C54   S    
C28   O22   S    
C34   C35   A    
C19   C26   S    
C46   C47   S    
Cu1   O5    S    
C20   C24   S    
Cu2   O6    S    
C29   C38   A    
C10   H6    S    
C20   C42   S    
C19   C41   S    
C17   O5    A    
C5    C13   A    
O10   H9    S    
C55   C56   S    
C18   O6    A    
C17   O8    A    
C39   O9    D    
C50   H27   S    
C29   O23   S    
O22   C48   S    
C18   C25   S    
C53   H33   S    
C55   H39   S    
C39   O10   S    
Cu2   O8    S    
C30   C34   A    
C27   C31   A    
C41   O13   D    
C33   H3    S    
C28   C32   A    
C34   H4    S    
C45   H15   S    
C52   C53   S    
Cu1   Cu2   S    
C44   O20   S    
C19   C23   S    
C56   H42   S    
Cu2   O2    S    
C44   O19   D    
C30   C37   A    
C41   O14   S    
C7    C11   A    
C43   O17   D    
C57   O26   S    
C5    C9    A    
C11   N1    A    
C6    C14   A    
C43   O18   S    
C18   O7    A    
C47   H20   S    
O21   C45   S    
C28   C38   A    
C8    C12   A    
C5    C57   S    
C9    N1    A    
C1    O1    A    
C2    O2    A    
C1    O4    A    
Cu1   N1    S    
C4    C38   S    
C49   H24   S    
C50   H28   S    
C49   H25   S    
C13   C15   S    
C22   C26   S    
O28   H44   S    
C31   C35   A    
C54   C55   S    
C3    C4    T    
C10   N2    A    
C55   H38   S    
C47   H21   S    
C42   O16   S    
O26   H43   S    
O30   H45   S    
C59   O30   S    
C21   C25   S    
C8    C14   A    
C31   H1    S    
C20   C22   S    
C6    C58   S    
C58   O28   S    
C2    O3    A    
C6    C10   A    
C12   N2    A    
C60   O31   D    
C48   H23   S    
C57   O25   D    
C24   C40   S    
C49   C50   S    
O23   C51   S    
C21   C43   S    
Cu2   O4    S    
C52   H32   S    
C42   O15   D    
O32   H46   S    
C60   O32   S    
C47   H19   S    
Cu1   O3    S    
C51   H30   S    
C27   C37   A    
Cu2   N2    S    
C27   O21   S    
C14   C16   S    
C23   C25   S    
O14   H11   S    
C7    C59   S    
C40   O11   D    
C7    C13   A    
C3    C37   S    
O12   H10   S    
C51   H29   S    
C21   C24   S    
C52   H31   S    
C46   H18   S    
C32   H2    S    
C22   C23   S    
C45   H16   S    
C54   H36   S    
C53   H35   S    
C58   O27   D    
C1    C36   S    
C51   C52   S    
