data_mof_unit_42003.cif
_audit_creation_date              2012-12-10T16:53:07-0500
_audit_creation_method            fapswitch 2.2
_symmetry_space_group_name_H-M    P1
_symmetry_Int_Tables_number       1
_space_group_crystal_system       triclinic
_cell_length_a                    10.782808
_cell_length_b                    10.935362
_cell_length_c                    9.688176
_cell_angle_alpha                 89.084874
_cell_angle_beta                  89.948964
_cell_angle_gamma                 90.270601
_cell_volume                      1142.21172128

loop_
_atom_site_label
_atom_site_type_symbol
_atom_type_description
_atom_site_fract_x
_atom_site_fract_y
_atom_site_fract_z
_atom_type_partial_charge
C1    C     C_R   0.494831 0.264844 0.501567 0.734782
C2    C     C_R   0.064940 0.395675 0.577633 0.008723
C3    C     C_R   0.128804 0.487156 0.500332 -0.067620
C4    C     C_R   0.064418 0.572553 0.419819 -0.175215
C5    C     C_R   0.936504 0.572566 0.419669 -0.199206
C6    C     C_R   0.871045 0.487122 0.499956 -0.067897
C7    C     C_2   0.495915 0.936067 0.385447 0.672437
C8    C     C_2   0.519878 0.865874 0.496842 -0.376609
C9    C     C_2   0.510310 0.068830 0.392445 -0.309513
C10   C     C_2   0.478312 0.131586 0.505291 0.219301
C11   C     C_2   0.421627 0.436709 0.923355 -0.067056
C12   C     C_R   0.262574 0.495707 0.500192 0.798328
C13   C     C_2   0.426102 0.431607 0.079055 -0.042859
C14   C     C_R   0.503944 0.734570 0.498745 0.877332
C15   C     C_R   0.737383 0.495832 0.500010 0.778960
C16   C     C_R   0.128116 0.302068 0.651038 -0.267126
C17   C     C_R   0.062586 0.212005 0.724381 0.681729
C18   C     C_R   0.933595 0.211827 0.723795 -0.216191
C19   C     C_R   0.869327 0.301819 0.650182 -0.288117
C20   C     C_R   0.933742 0.395608 0.577322 0.105963
Cu1   Cu    Cu3+1 0.500020 0.500020 0.638630 0.945698
Cu2   Cu    Cu3+1 0.499980 0.499980 0.361370 0.987049
H1    H     H_    0.113615 0.641474 0.359232 0.168381
H2    H     H_    0.349888 0.383723 0.873215 0.153238
H3    H     H_    0.570192 0.544543 0.893172 0.201753
H4    H     H_    0.362919 0.368890 0.131507 0.162537
H5    H     H_    0.554237 0.562504 0.104701 0.207545
H6    H     H_    0.228081 0.295907 0.650533 0.168193
H7    H     H_    0.882945 0.140761 0.779173 0.163085
H8    H     H_    0.769294 0.295330 0.649149 0.170306
H9    H     H_    0.888167 0.641529 0.359043 0.155542
H10   H     H_    0.555804 0.905998 0.590224 0.129505
H11   H     H_    0.548425 0.115197 0.301770 0.153080
N1    N     N_2   0.498640 0.498660 0.846910 -0.280666
N2    N     N_2   0.498610 0.498630 0.153040 -0.273765
O1    O     O_R   0.500020 0.321960 0.617040 -0.608824
O2    O     O_R   0.499980 0.321920 0.382900 -0.584408
O3    O     O_R   0.319670 0.500020 0.617100 -0.575163
O4    O     O_R   0.319630 0.499980 0.382950 -0.568271
O5    O     O_R   0.500020 0.678080 0.617100 -0.578443
O6    O     O_R   0.499980 0.678040 0.382960 -0.510349
O7    O     O_R   0.680370 0.500020 0.617050 -0.582063
O8    O     O_R   0.680330 0.499980 0.382900 -0.576272
O9    O     O_3   0.408213 0.073467 0.608936 -0.564297
C21   C     C_3   0.454788 0.096980 0.742475 0.082576
H12   H     H_    0.410899 0.180580 0.783259 0.187310
H13   H     H_    0.557834 0.106916 0.743882 0.116699
C22   C     C_3   0.419413 0.991928 0.840150 -0.674022
H14   H     H_    0.465382 0.906115 0.809073 0.229531
H15   H     H_    0.448986 0.013689 0.946804 0.218663
H16   H     H_    0.317459 0.977537 0.839454 0.303873
F1    F     F_    0.124553 0.123316 0.794662 -0.675758
F2    F     F_    0.462083 0.886895 0.262878 -0.652405

loop_
_geom_bond_atom_site_label_1
_geom_bond_atom_site_label_2
_ccdc_geom_bond_type
C16   H6    S    
Cu1   N1    S    
C2    C20   A    
C6    C20   A    
C9    C10   D    
Cu2   O8    S    
C1    O2    A    
H3    N1    S    
C12   O4    A    
C22   H15   S    
C17   C18   A    
C15   O8    A    
C7    C8    D    
Cu1   O1    S    
C18   H7    S    
C21   H12   S    
C9    H11   S    
Cu2   N2    S    
C11   C13   S    
Cu1   O7    S    
Cu1   O5    S    
C14   O6    A    
Cu2   O4    S    
C17   F1    S    
C22   H14   S    
C13   N2    D    
C2    C3    A    
C21   H13   S    
C12   O3    A    
C5    C6    A    
C13   H4    S    
C22   H16   S    
Cu2   O6    S    
C7    F2    S    
C10   O9    S    
C3    C4    A    
C8    H10   S    
C11   H2    S    
C2    C16   A    
O9    C21   S    
C15   O7    A    
C18   C19   A    
C1    C10   S    
C21   C22   S    
C7    C9    S    
C4    H1    S    
C16   C17   A    
C8    C14   S    
C3    C12   S    
H5    N2    S    
C6    C15   S    
Cu1   Cu2   S    
C19   H8    S    
C14   O5    A    
Cu2   O2    S    
C11   N1    D    
Cu1   O3    S    
C19   C20   A    
C1    O1    A    
C4    C5    A    
C5    H9    S    
