data_mof_unit_23659.cif
_audit_creation_date              2012-12-11T17:29:39-0500
_audit_creation_method            fapswitch 2.2
_symmetry_space_group_name_H-M    P1
_symmetry_Int_Tables_number       1
_space_group_crystal_system       triclinic
_cell_length_a                    19.257051
_cell_length_b                    18.975023
_cell_length_c                    20.33494
_cell_angle_alpha                 106.965587
_cell_angle_beta                  106.450723
_cell_angle_gamma                 111.771228
_cell_volume                      5924.7799171

loop_
_atom_site_label
_atom_site_type_symbol
_atom_type_description
_atom_site_fract_x
_atom_site_fract_y
_atom_site_fract_z
_atom_type_partial_charge
C1    C     C_R   0.041989 0.086996 0.343900 0.083848
C2    C     C_R   0.748795 0.002924 0.472614 0.021625
C3    C     C_R   0.773255 0.725060 0.288382 0.046455
C4    C     C_R   0.057697 0.292029 0.556344 0.119441
C5    C     C_R   0.237780 0.190447 0.654768 -0.029093
C6    C     C_R   0.970425 0.797986 0.544112 -0.133544
C7    C     C_R   0.169619 0.933143 0.435131 -0.130501
C8    C     C_R   0.978741 0.052231 0.708225 -0.127408
C9    C     C_R   0.909464 0.912324 0.643526 -0.133951
C10   C     C_R   0.239562 0.074431 0.500034 -0.091163
C11   C     C_R   0.160078 0.182457 0.719079 -0.146644
C12   C     C_R   0.755472 0.930374 0.459287 0.053598
C13   C     C_R   0.047968 0.802183 0.479723 -0.138273
C14   C     C_R   0.240960 0.206384 0.727153 0.027476
C15   C     C_R   0.029039 0.776689 0.533156 0.078979
C16   C     C_R   0.242533 0.004918 0.459429 0.197913
C17   C     C_R   0.926443 0.978655 0.708400 0.048489
C18   C     C_R   0.128109 0.723000 0.566396 -0.250162
C19   C     C_R   0.058040 0.729128 0.567551 0.105008
C20   C     C_R   0.008765 0.682023 0.594815 -0.246062
C21   C     C_R   0.021086 0.620375 0.610733 0.103393
C22   C     C_R   0.087190 0.608537 0.602692 0.040396
C23   C     C_R   0.847699 0.776587 0.290094 -0.135306
C24   C     C_R   0.143175 0.662634 0.584113 0.151314
C25   C     C_R   0.964116 0.565622 0.627864 0.024658
C26   C     C_R   0.969189 0.495053 0.629846 -0.239996
C27   C     C_R   0.030579 0.479832 0.616262 0.138719
C28   C     C_R   0.092783 0.538291 0.606723 -0.012922
C29   C     C_R   0.156557 0.523157 0.595735 -0.044095
C30   C     C_R   0.216164 0.582179 0.583674 -0.061925
C31   C     C_R   0.209079 0.650818 0.577444 -0.229413
C32   C     C_R   0.024412 0.402245 0.603822 -0.278318
C33   C     C_R   0.082353 0.382458 0.586490 -0.086586
C34   C     C_R   0.004885 0.236475 0.573371 -0.160370
C35   C     C_R   0.155305 0.446955 0.592495 0.388025
C36   C     C_R   0.353060 0.979843 0.503287 -0.276957
C37   C     C_R   0.314208 0.005392 0.454332 -0.130975
C38   C     C_R   0.344842 0.031937 0.405752 0.495886
C39   C     C_R   0.420336 0.035036 0.410169 -0.061129
C40   C     C_R   0.459489 0.008112 0.460365 -0.009552
C41   C     C_R   0.425155 0.980528 0.506604 0.095570
C42   C     C_R   0.458321 0.064439 0.366621 -0.060418
C43   C     C_R   0.531246 0.064278 0.370317 -0.254616
C44   C     C_R   0.568160 0.035813 0.418144 0.182190
C45   C     C_R   0.772330 0.769674 0.355003 -0.113307
C46   C     C_R   0.532898 0.008384 0.464393 0.038137
C47   C     C_R   0.571145 0.980993 0.514481 -0.082041
C48   C     C_R   0.536226 0.954234 0.561082 0.453715
C49   C     C_R   0.463066 0.954407 0.556364 -0.324966
C50   C     C_R   0.639966 0.034082 0.420497 -0.245846
C51   C     C_R   0.675179 0.005220 0.468239 0.064829
C52   C     C_R   0.643177 0.980903 0.515951 -0.179642
C53   C     C_R   0.314947 0.240934 0.799333 0.135978
C54   C     C_R   0.315392 0.285146 0.868123 -0.206173
C55   C     C_R   0.385486 0.324075 0.937067 -0.161544
C56   C     C_R   0.080756 0.245580 0.509098 -0.069063
C57   C     C_R   0.457711 0.320565 0.939035 0.224892
C58   C     C_R   0.456831 0.273879 0.871262 -0.222136
C59   C     C_R   0.385406 0.232330 0.801411 0.021716
C60   C     C_R   0.678251 0.501642 0.134347 0.040635
C61   C     C_R   0.736632 0.586044 0.187680 -0.239341
C62   C     C_R   0.597075 0.465451 0.129818 0.210267
C63   C     C_R   0.715323 0.634199 0.236622 0.135175
C64   C     C_R   0.637247 0.594889 0.235949 -0.176145
C65   C     C_R   0.579479 0.511151 0.183815 -0.204583
C66   C     C_R   0.951487 0.020625 0.198152 0.137148
C67   C     C_R   0.826118 0.071825 0.523402 -0.135404
C68   C     C_R   0.934089 0.955931 0.130555 -0.158292
C69   C     C_R   0.895973 0.953413 0.060378 -0.167451
C70   C     C_R   0.874754 0.016146 0.056335 0.230709
C71   C     C_R   0.891032 0.080135 0.123706 -0.167053
C72   C     C_R   0.927673 0.081518 0.194221 -0.191731
C73   C     C_R   0.857030 0.039868 0.861685 -0.110708
C74   C     C_R   0.889498 0.045169 0.809166 -0.147482
C75   C     C_R   0.816529 0.961210 0.862369 0.225757
C76   C     C_R   0.881438 0.972188 0.756224 0.130506
C77   C     C_R   0.831713 0.892767 0.751043 -0.132118
C78   C     C_R   0.971085 0.945979 0.280481 -0.095627
C79   C     C_R   0.798764 0.887557 0.803218 -0.114480
C80   C     C_R   0.988471 0.019221 0.271158 -0.005481
H1    H     H_    0.943752 0.790767 0.583294 0.099529
H2    H     H_    0.149766 0.869248 0.396015 0.109007
H3    H     H_    0.994413 0.115966 0.743302 0.088287
H4    H     H_    0.859975 0.847551 0.618131 0.096669
H5    H     H_    0.284140 0.140271 0.520506 0.129264
H6    H     H_    0.139397 0.184458 0.763380 0.105313
H7    H     H_    0.091292 0.795129 0.458075 0.097733
H8    H     H_    0.167937 0.761529 0.547757 0.123574
H9    H     H_    0.955102 0.686928 0.596473 0.129324
H10   H     H_    0.922160 0.449395 0.637686 0.129661
H11   H     H_    0.969221 0.354809 0.601533 0.139509
H12   H     H_    0.265122 0.572912 0.573484 0.202222
H13   H     H_    0.253061 0.692466 0.563943 0.148898
H14   H     H_    0.326797 0.959867 0.539757 0.148993
H15   H     H_    0.433081 0.088378 0.329680 0.201158
H16   H     H_    0.558799 0.086397 0.335612 0.140069
H17   H     H_    0.668124 0.054292 0.385328 0.131701
H18   H     H_    0.874993 0.757198 0.253607 0.093160
H19   H     H_    0.675771 0.962001 0.553786 0.205625
H20   H     H_    0.435116 0.933896 0.591465 0.184999
H21   H     H_    0.797769 0.613649 0.189432 0.117914
H22   H     H_    0.512408 0.271287 0.872454 0.132182
H23   H     H_    0.618693 0.629751 0.273009 0.123675
H24   H     H_    0.384894 0.361749 0.988248 0.130861
H25   H     H_    0.517675 0.484027 0.180981 0.135090
H26   H     H_    0.986126 0.252626 0.618427 0.101620
H27   H     H_    0.262804 0.293269 0.868677 0.126212
H28   H     H_    0.924505 0.107202 0.813317 0.109879
H29   H     H_    0.870208 0.098125 0.905718 0.122714
H30   H     H_    0.876216 0.129451 0.121573 0.126295
H31   H     H_    0.935809 0.129246 0.244902 0.119753
H32   H     H_    0.822597 0.834770 0.710360 0.111953
H33   H     H_    0.887045 0.904778 0.009553 0.129013
H34   H     H_    0.767503 0.826622 0.802841 0.125575
H35   H     H_    0.951574 0.908107 0.131995 0.129384
H36   H     H_    0.733335 0.741909 0.379622 0.105564
H37   H     H_    0.129325 0.271587 0.492848 0.189143
H38   H     H_    0.841902 0.137427 0.550250 0.114486
H39   H     H_    0.930824 0.881471 0.236335 0.099251
H40   H     H_    0.289007 0.203398 0.639761 0.111971
N1    N     N_R   0.052570 0.055840 0.395080 -0.040847
N2    N     N_R   0.954640 0.834860 0.500130 -0.043493
N3    N     N_R   0.122510 0.958410 0.460270 -0.052791
N4    N     N_R   0.990190 0.031260 0.644790 -0.040613
N5    N     N_R   0.947430 0.944160 0.604920 -0.042039
N6    N     N_R   0.165270 0.045500 0.500140 -0.059024
N7    N     N_R   0.109810 0.150880 0.644800 -0.042561
N8    N     N_R   0.002890 0.838790 0.460260 -0.042573
N9    N     N_2   0.534818 0.376034 0.005045 -0.082755
N10   N     N_2   0.527049 0.392416 0.065539 -0.098362
N11   N     N_2   0.852778 0.024537 0.987693 -0.102105
N12   N     N_R   0.834730 0.954500 0.499860 -0.050523
N13   N     N_2   0.813830 0.955137 0.929469 -0.097417
N14   N     N_R   0.890190 0.849120 0.355200 -0.046211
N15   N     N_R   0.997110 0.161210 0.539740 -0.048442
N16   N     N_R   0.841940 0.845190 0.395070 -0.041865
N17   N     N_R   0.045360 0.165140 0.499870 -0.060223
N18   N     N_R   0.877490 0.041590 0.539730 -0.050044
N19   N     N_R   0.009810 0.968740 0.355210 -0.044683
N20   N     N_R   0.158060 0.154810 0.604930 -0.041078
Ni1   Ni    Ni4+2 0.104370 0.104380 0.500010 0.276977
Ni2   Ni    Ni4+2 0.895630 0.895620 0.499990 0.211860
Ni3   Ni    Ni4+2 0.006290 0.904630 0.408560 0.222115
Ni4   Ni    Ni4+2 0.993710 0.095370 0.591440 0.207261
N21   N     N_3   0.091082 0.173293 0.360964 -0.197752
H41   H     H_    0.117667 0.174489 0.322736 0.160666
H42   H     H_    0.052028 0.199131 0.351870 0.079506
N22   N     N_3   0.897217 0.577699 0.636801 -0.213376
H43   H     H_    0.851019 0.554755 0.581731 0.108187
H44   H     H_    0.870043 0.540918 0.661718 0.116055
N23   N     N_3   0.688276 0.845649 0.426333 -0.227533
H45   H     H_    0.633935 0.841041 0.390885 0.114811
H46   H     H_    0.678825 0.833928 0.471043 0.130986
S1    S     S_3+6 0.246975 0.438100 0.606669 -0.049486
O1    O     O_2   0.254532 0.415406 0.532669 -0.280215
O2    O     O_2   0.322499 0.521499 0.666075 -0.269036
O3    O     O_3   0.245116 0.364221 0.637144 -0.525626
H47   H     H_    0.239133 0.382488 0.685042 0.340949
S2    S     S_3+6 0.288784 0.057971 0.339086 -0.064173
O4    O     O_2   0.203291 0.036154 0.333539 -0.295113
O5    O     O_2   0.337835 0.151460 0.363860 -0.306844
O6    O     O_3   0.278438 0.004241 0.251678 -0.548882
H48   H     H_    0.263026 0.033563 0.221551 0.373428
S3    S     S_3+6 0.581205 0.919503 0.625062 -0.035102
O7    O     O_2   0.666379 0.991089 0.684341 -0.266085
O8    O     O_2   0.528749 0.892103 0.664726 -0.268256
O9    O     O_3   0.590585 0.837684 0.576616 -0.527621
H49   H     H_    0.535470 0.798262 0.531874 0.331176
N24   N     N_3   0.701128 0.453791 0.084684 -0.207448
H50   H     H_    0.720188 0.485888 0.053671 0.113851
H51   H     H_    0.752257 0.452474 0.118750 0.110034
N25   N     N_3   0.384838 0.181234 0.733480 -0.227426
H52   H     H_    0.433999 0.219522 0.725604 0.118310
H53   H     H_    0.396107 0.134155 0.742292 0.121767

loop_
_geom_bond_atom_site_label_1
_geom_bond_atom_site_label_2
_ccdc_geom_bond_type
C64   H23   S    
C66   C68   A    
C10   H5    S    
O3    H47   S    
C8    H3    S    
C73   C75   A    
C73   C74   A    
C62   N10   S    
C1    N21   S    
C19   C20   A    
C35   S1    S    
C2    C12   A    
C78   N19   A    
N21   H41   S    
C53   C59   A    
C53   C54   A    
C40   C46   A    
C14   C53   S    
C69   H33   S    
C26   C27   A    
C29   C30   A    
C74   C76   A    
C54   H27   S    
C56   H37   S    
C18   C24   A    
C60   N24   S    
C57   N9    S    
S3    O7    D    
N22   H44   S    
C38   S2    S    
O6    H48   S    
N17   Ni1   S    
N15   Ni4   S    
C30   C31   A    
C11   C14   A    
C78   C80   A    
C32   H11   S    
C4    C33   S    
C11   H6    S    
N12   N18   A    
C71   H30   S    
C60   C62   A    
C18   C19   A    
N24   H50   S    
C41   C49   A    
C61   C63   A    
C67   N18   A    
N16   Ni2   S    
N14   Ni3   S    
C46   C47   A    
C13   N8    A    
N19   Ni3   S    
C66   C72   A    
S2    O4    D    
N25   H53   S    
C68   C69   A    
C45   N16   A    
C17   C76   S    
N23   H45   S    
S2    O5    D    
C70   C71   A    
C58   H22   S    
S1    O2    D    
C23   N14   A    
C16   C37   S    
C6    C15   A    
C72   H31   S    
C6    H1    S    
C22   C28   A    
C21   C22   A    
C4    C56   A    
N24   H51   S    
C12   N23   S    
C36   C41   A    
C65   H25   S    
N21   H42   S    
C44   C46   A    
C50   C51   A    
C39   C42   A    
C77   C79   A    
N12   Ni2   S    
C4    C34   A    
C5    H40   S    
C42   H15   S    
C34   H26   S    
N1    Ni1   S    
N20   Ni1   S    
S1    O3    S    
C30   H12   S    
C2    C67   A    
O9    H49   S    
C8    N4    A    
N3    N6    A    
N14   N16   A    
C9    H4    S    
N6    Ni1   S    
C58   C59   A    
C31   H13   S    
C55   H24   S    
C3    C45   A    
C9    N5    A    
C61   H21   S    
C51   C52   A    
C60   C61   A    
C77   H32   S    
C15   C19   S    
C43   C44   A    
C37   C38   A    
C47   C48   A    
N5    Ni2   S    
C13   H7    S    
C43   H16   S    
S1    O1    D    
S2    O6    S    
C76   C77   A    
C5    C14   A    
C11   N7    A    
C9    C17   A    
C40   C41   A    
C55   C57   A    
C23   H18   S    
C22   C24   A    
C42   C43   A    
C6    N2    A    
C59   N25   S    
C28   C29   A    
C39   C40   A    
N25   H52   S    
C5    N20   A    
N9    N10   D    
C44   C50   A    
N15   N17   A    
C21   C25   A    
C54   C55   A    
C36   C37   A    
C50   H17   S    
C12   N12   A    
C62   C65   A    
C27   C32   A    
N8    Ni3   S    
S3    O9    S    
C7    C16   A    
C7    N3    A    
N11   N13   D    
C75   N13   S    
C73   H29   S    
C47   C52   A    
C48   S3    S    
C3    C63   S    
C26   H10   S    
C66   C80   S    
C20   H9    S    
C29   C35   A    
C52   H19   S    
C8    C17   A    
C64   C65   A    
N1    N19   A    
C13   C15   A    
C78   H39   S    
C25   C26   A    
C24   C31   A    
C71   C72   A    
N18   Ni4   S    
C32   C33   A    
C49   H20   S    
C56   N17   A    
C45   H36   S    
C57   C58   A    
C38   C39   A    
C34   N15   A    
C48   C49   A    
S3    O8    D    
C70   N11   S    
C33   C35   A    
C25   N22   S    
N7    Ni4   S    
N23   H46   S    
N2    N8    A    
C69   C70   A    
C67   H38   S    
C1    N1    A    
C18   H8    S    
C2    C51   S    
C68   H35   S    
C74   H28   S    
C63   C64   A    
C36   H14   S    
C7    H2    S    
C20   C21   A    
N7    N20   A    
C79   H34   S    
N3    Ni3   S    
C27   C28   A    
C1    C80   A    
N2    Ni2   S    
N4    Ni4   S    
C10   C16   A    
C3    C23   A    
C10   N6    A    
C75   C79   A    
N22   H43   S    
N4    N5    A    
