data_mof_unit_39329.cif
_audit_creation_date              2012-12-10T16:49:23-0500
_audit_creation_method            fapswitch 2.2
_symmetry_space_group_name_H-M    P1
_symmetry_Int_Tables_number       1
_space_group_crystal_system       triclinic
_cell_length_a                    7.750479
_cell_length_b                    8.561191
_cell_length_c                    12.755642
_cell_angle_alpha                 90.465657
_cell_angle_beta                  87.112763
_cell_angle_gamma                 93.591854
_cell_volume                      843.633972486

loop_
_atom_site_label
_atom_site_type_symbol
_atom_type_description
_atom_site_fract_x
_atom_site_fract_y
_atom_site_fract_z
_atom_type_partial_charge
C1    C     C_R   0.454537 0.205243 0.497753 0.957653
C2    C     C_R   0.630364 0.344384 0.141863 0.074938
C3    C     C_R   0.527655 0.415525 0.868854 -0.308252
C4    C     C_R   0.478040 0.586445 0.130870 -0.293251
C5    C     C_R   0.539292 0.435982 0.975379 0.145575
C6    C     C_R   0.463976 0.564673 0.024749 0.157505
C7    C     C_2   0.430480 0.041697 0.496982 -0.393827
C8    C     C_2   0.568914 0.958262 0.505523 -0.402818
C9    C     C_3   0.702031 0.219209 0.209368 -0.375937
C10   C     C_3   0.747895 0.067326 0.151946 -0.381052
C11   C     C_3   0.799015 0.944337 0.228700 -0.862981
C12   C     C_R   0.545231 0.794742 0.503188 0.949808
C13   C     C_3   0.265806 0.765428 0.799825 -0.419971
C14   C     C_3   0.075155 0.709592 0.790002 -0.295921
C15   C     C_3   0.983216 0.818342 0.720132 -0.848391
C16   C     C_R   0.465077 0.507605 0.699741 0.866852
C17   C     C_R   0.534871 0.492757 0.300330 0.868587
C18   C     C_R   0.557070 0.476898 0.189019 -0.085913
C19   C     C_R   0.442567 0.521546 0.811221 -0.070348
C20   C     C_R   0.372748 0.668242 0.967878 -0.241378
C21   C     C_R   0.624826 0.328849 0.032784 -0.216860
C22   C     C_R   0.359951 0.647791 0.860023 0.079217
H1    H     H_    0.420433 0.685420 0.169704 0.151807
H2    H     H_    0.688153 0.910553 0.284127 0.258940
H3    H     H_    0.836362 0.838194 0.184651 0.250255
H4    H     H_    0.634383 0.017819 0.110000 0.224462
H5    H     H_    0.858293 0.092450 0.094265 0.223260
H6    H     H_    0.819564 0.270482 0.246384 0.220161
H7    H     H_    0.603020 0.186693 0.272851 0.200760
H8    H     H_    0.989228 0.939155 0.752745 0.243532
H9    H     H_    0.044306 0.819749 0.639417 0.266581
H10   H     H_    0.845218 0.776254 0.715995 0.259894
H11   H     H_    0.064833 0.589543 0.756251 0.238131
H12   H     H_    0.588769 0.318655 0.829660 0.148508
H13   H     H_    0.008298 0.706027 0.869236 0.213040
H14   H     H_    0.271908 0.880440 0.841164 0.186230
H15   H     H_    0.330714 0.787366 0.721271 0.211209
H16   H     H_    0.312925 0.765388 0.007269 0.136920
H17   H     H_    0.681320 0.231804 0.991862 0.131501
H18   H     H_    0.999146 0.615725 0.421866 0.194259
H19   H     H_    0.000849 0.384566 0.578325 0.189163
H20   H     H_    0.299693 0.990513 0.489076 0.179105
H21   H     H_    0.699708 0.009406 0.513468 0.186330
H22   H     H_    0.910565 0.990200 0.273646 0.260963
N1    N     N_2   0.054030 0.541640 0.471970 -0.177368
N2    N     N_2   0.945970 0.458360 0.528030 -0.176442
O1    O     O_R   0.609680 0.261530 0.506880 -0.612971
O2    O     O_R   0.390320 0.738470 0.493120 -0.615071
O3    O     O_R   0.323330 0.288220 0.488910 -0.628548
O4    O     O_R   0.676670 0.711780 0.511090 -0.629186
O5    O     O_R   0.619510 0.488830 0.661140 -0.616694
O6    O     O_R   0.380490 0.511170 0.338860 -0.608119
O7    O     O_R   0.333160 0.515520 0.643180 -0.628546
O8    O     O_R   0.666840 0.484480 0.356820 -0.632491
Zn1   Zn    Zn3+2 0.691200 0.482180 0.511990 0.920651
Zn2   Zn    Zn3+2 0.308800 0.517820 0.488010 0.926543

loop_
_geom_bond_atom_site_label_1
_geom_bond_atom_site_label_2
_ccdc_geom_bond_type
N2    Zn1   S    
C10   H5    S    
C12   O4    A    
H19   N2    S    
C8    H21   S    
C3    C19   A    
C9    H7    S    
C2    C18   A    
O3    Zn2   S    
C20   H16   S    
C9    C10   S    
C13   H15   S    
O4    Zn1   S    
C21   H17   S    
C16   O5    A    
C12   O2    A    
C8    C12   S    
C4    C18   A    
C10   H4    S    
C2    C21   A    
C14   C15   S    
C17   C18   S    
C11   H22   S    
C1    C7    S    
C13   C14   S    
C16   O7    A    
C15   H9    S    
H18   N1    S    
C6    C20   A    
C14   H11   S    
C16   C19   S    
C17   O6    A    
O1    Zn1   S    
C20   C22   A    
C13   C22   S    
O5    Zn1   S    
C5    C6    A    
O7    Zn2   S    
C10   C11   S    
C11   H3    S    
C11   H2    S    
C7    C8    D    
C19   C22   A    
C5    C21   A    
N1    Zn2   S    
C13   H14   S    
C4    C6    A    
C15   H8    S    
C7    H20   S    
C14   H13   S    
O2    Zn2   S    
C4    H1    S    
O8    Zn1   S    
C1    O1    A    
C3    H12   S    
N1    N2    D    
C2    C9    S    
C1    O3    A    
C17   O8    A    
O6    Zn2   S    
C9    H6    S    
C3    C5    A    
C15   H10   S    
