data_mof_unit_22649.cif
_audit_creation_date              2012-12-10T18:38:07-0500
_audit_creation_method            fapswitch 2.2
_symmetry_space_group_name_H-M    P1
_symmetry_Int_Tables_number       1
_space_group_crystal_system       triclinic
_cell_length_a                    14.941969
_cell_length_b                    15.56169
_cell_length_c                    27.697167
_cell_angle_alpha                 89.577121
_cell_angle_beta                  105.027751
_cell_angle_gamma                 82.108023
_cell_volume                      6154.82302994

loop_
_atom_site_label
_atom_site_type_symbol
_atom_type_description
_atom_site_fract_x
_atom_site_fract_y
_atom_site_fract_z
_atom_type_partial_charge
C1    C     C_R   0.441367 0.661879 0.492966 0.886142
C2    C     C_R   0.469838 0.580183 0.122924 0.002105
C3    C     C_R   0.501924 0.504288 0.646852 -0.041507
C4    C     C_R   0.496074 0.498578 0.352793 -0.044249
C5    C     C_R   0.460009 0.583147 0.019754 0.074997
C6    C     C_R   0.516053 0.427726 0.976742 0.074801
C7    C     C_R   0.500358 0.423718 0.024923 -0.093309
C8    C     C_R   0.450540 0.583074 0.967514 -0.092672
C9    C     C_R   0.480084 0.502791 0.047621 0.016678
C10   C     C_R   0.486229 0.506440 0.947294 0.016520
C11   C     C_R   0.453883 0.660733 0.045532 -0.168202
C12   C     C_R   0.558636 0.338122 0.507080 0.886204
C13   C     C_R   0.563798 0.356870 0.957677 -0.167816
C14   C     C_R   0.458011 0.659224 0.096177 -0.175356
C15   C     C_R   0.572715 0.360228 0.909089 -0.176350
C16   C     C_R   0.500892 0.500834 0.593981 0.869871
C17   C     C_R   0.498873 0.499562 0.405967 0.870638
C18   C     C_R   0.406365 0.655970 0.934380 0.435734
C19   C     C_R   0.503477 0.344131 0.051448 0.435614
C20   C     C_R   0.405517 0.753949 0.491467 -0.071824
C21   C     C_R   0.594516 0.246023 0.508860 -0.072039
C22   C     C_R   0.288178 0.872566 0.500489 0.007516
C23   C     C_R   0.492514 0.508451 0.897294 -0.059836
C24   C     C_R   0.711939 0.127163 0.500266 0.007567
C25   C     C_R   0.316599 0.783622 0.497189 -0.271234
C26   C     C_R   0.683447 0.216188 0.503217 -0.271854
C27   C     C_R   0.466529 0.812108 0.489395 -0.218597
C28   C     C_R   0.533586 0.187943 0.511253 -0.219090
C29   C     C_R   0.444570 0.899810 0.497056 0.047511
C30   C     C_R   0.555575 0.100115 0.503906 0.047632
C31   C     C_R   0.351025 0.932784 0.497707 -0.002298
C32   C     C_R   0.649129 0.067038 0.503292 -0.002211
C33   C     C_R   0.513761 0.955081 0.501973 0.037668
C34   C     C_R   0.480934 0.501660 0.098739 -0.059595
C35   C     C_R   0.486393 0.044854 0.499168 0.037652
C36   C     C_R   0.390050 0.077467 0.489908 -0.354082
C37   C     C_R   0.610098 0.922433 0.511338 -0.354382
C38   C     C_R   0.322578 0.023645 0.492303 0.491044
C39   C     C_R   0.677615 0.976191 0.508937 0.491054
C40   C     C_R   0.461817 0.584023 0.816720 0.534794
C41   C     C_R   0.495904 0.422499 0.176636 0.535631
C42   C     C_R   0.845172 0.632278 0.576941 -0.277998
C43   C     C_R   0.155114 0.367174 0.423311 -0.276458
C44   C     C_R   0.754578 0.612473 0.563068 -0.029490
C45   C     C_R   0.456051 0.583945 0.866348 -0.099838
C46   C     C_R   0.245546 0.387391 0.437000 -0.028826
C47   C     C_R   0.793514 0.512216 0.505184 -0.019364
C48   C     C_R   0.206531 0.487537 0.494923 -0.018000
C49   C     C_R   0.886080 0.531415 0.516260 -0.039419
C50   C     C_R   0.114153 0.467898 0.484037 -0.039587
C51   C     C_R   0.912437 0.590874 0.554339 0.072664
C52   C     C_R   0.087893 0.408318 0.446023 0.072015
C53   C     C_R   0.952999 0.491713 0.491955 0.026849
C54   C     C_R   0.047296 0.507347 0.508446 0.027326
C55   C     C_R   0.072308 0.561445 0.549031 -0.342194
C56   C     C_R   0.493888 0.422096 0.125853 -0.100452
C57   C     C_R   0.928100 0.437323 0.451493 -0.342053
C58   C     C_R   0.005376 0.606978 0.570201 0.476022
C59   C     C_R   0.995088 0.391823 0.430348 0.477033
C60   C     C_R   0.540253 0.438025 0.828500 0.506718
C61   C     C_R   0.472900 0.577550 0.173818 0.507500
C62   C     C_R   0.419501 0.503939 0.711361 -0.107523
C63   C     C_R   0.569226 0.519027 0.285968 -0.098752
C64   C     C_R   0.419007 0.500449 0.661236 -0.216919
C65   C     C_R   0.572588 0.519007 0.336582 -0.218791
C66   C     C_R   0.585139 0.512202 0.683304 -0.210819
C67   C     C_R   0.411998 0.656405 0.884941 -0.214011
C68   C     C_R   0.416640 0.477465 0.317717 -0.206428
C69   C     C_R   0.585452 0.515299 0.733530 -0.096221
C70   C     C_R   0.413631 0.477352 0.267157 -0.101726
C71   C     C_R   0.502655 0.511054 0.747482 0.315366
C72   C     C_R   0.489720 0.498413 0.251308 0.313834
C73   C     C_2   0.197102 0.897407 0.512227 0.977029
C74   C     C_2   0.803041 0.102082 0.488598 0.976610
C75   C     C_3   0.091800 0.716893 0.602272 0.073237
C76   C     C_3   0.084199 0.795150 0.634295 -0.769635
C77   C     C_3   0.909377 0.281201 0.398799 0.072486
C78   C     C_R   0.502901 0.344197 0.101667 -0.212098
C79   C     C_3   0.917758 0.202459 0.367218 -0.769087
C80   C     C_3   0.262464 0.705912 0.944180 0.086919
C81   C     C_3   0.205010 0.781049 0.962278 -0.783039
C82   C     C_3   0.410089 0.256473 0.003731 0.084085
C83   C     C_3   0.409534 0.171943 0.976546 -0.772397
C84   C     C_3   0.208785 0.140738 0.498064 0.104109
C85   C     C_3   0.109236 0.156776 0.503582 -0.705997
C86   C     C_3   0.791554 0.858951 0.503571 0.104614
C87   C     C_3   0.891316 0.842646 0.498384 -0.705578
C88   C     C_R   0.535404 0.434872 0.878213 0.001903
H1    H     H_    0.649891 0.515363 0.673104 0.165640
H2    H     H_    0.768584 0.463903 0.479529 0.122996
H3    H     H_    0.297642 0.356512 0.419440 0.141653
H4    H     H_    0.702471 0.643507 0.580573 0.142622
H5    H     H_    0.862198 0.679059 0.605444 0.198210
H6    H     H_    0.138175 0.320279 0.394865 0.198865
H7    H     H_    0.144211 0.567552 0.566177 0.133180
H8    H     H_    0.856279 0.430817 0.434439 0.135173
H9    H     H_    0.649823 0.520662 0.761628 0.140947
H10   H     H_    0.352115 0.461445 0.240208 0.140041
H11   H     H_    0.379577 0.713560 0.860915 0.210354
H12   H     H_    0.356825 0.461244 0.329236 0.165204
H13   H     H_    0.508169 0.282492 0.121337 0.211503
H14   H     H_    0.634740 0.535289 0.362859 0.162653
H15   H     H_    0.353756 0.494964 0.633852 0.157928
H16   H     H_    0.628185 0.535109 0.273571 0.143282
H17   H     H_    0.355528 0.500409 0.722302 0.140176
H18   H     H_    0.452628 0.720407 0.114362 0.194907
H19   H     H_    0.609060 0.303951 0.895851 0.194494
H20   H     H_    0.450545 0.723500 0.027876 0.210007
H21   H     H_    0.598613 0.299345 0.980436 0.209784
H22   H     H_    0.126678 0.960433 0.557483 0.337842
H23   H     H_    0.468537 0.212673 0.519760 0.157236
H24   H     H_    0.873558 0.038394 0.443591 0.337979
H25   H     H_    0.074703 0.740821 0.562421 0.154859
H26   H     H_    0.165388 0.683871 0.613908 0.157413
H27   H     H_    0.104675 0.773910 0.674510 0.265869
H28   H     H_    0.131444 0.840770 0.627972 0.223848
H29   H     H_    0.011119 0.829290 0.624365 0.253651
H30   H     H_    0.835589 0.313683 0.387031 0.157569
H31   H     H_    0.926589 0.257879 0.438761 0.154785
H32   H     H_    0.991034 0.168779 0.377376 0.254914
H33   H     H_    0.870857 0.156649 0.373737 0.223207
H34   H     H_    0.531628 0.787573 0.480876 0.157433
H35   H     H_    0.897334 0.223066 0.326909 0.266174
H36   H     H_    0.264373 0.646665 0.967504 0.144718
H37   H     H_    0.227033 0.695766 0.904410 0.148327
H38   H     H_    0.200451 0.841141 0.939353 0.261044
H39   H     H_    0.133191 0.765938 0.958892 0.208156
H40   H     H_    0.238261 0.791945 0.002105 0.256530
H41   H     H_    0.377770 0.310730 0.975428 0.144786
H42   H     H_    0.366968 0.254412 0.030950 0.148302
H43   H     H_    0.440105 0.116136 0.003753 0.262705
H44   H     H_    0.336513 0.164040 0.956796 0.207349
H45   H     H_    0.729405 0.262476 0.499237 0.168938
H46   H     H_    0.451221 0.172670 0.948696 0.257087
H47   H     H_    0.213921 0.189075 0.469535 0.140392
H48   H     H_    0.257278 0.150716 0.534980 0.147164
H49   H     H_    0.103373 0.117314 0.535828 0.272757
H50   H     H_    0.090231 0.226457 0.510098 0.193361
H51   H     H_    0.059538 0.139115 0.469116 0.258661
H52   H     H_    0.743361 0.848806 0.466594 0.147964
H53   H     H_    0.786060 0.810850 0.532129 0.139780
H54   H     H_    0.940780 0.860140 0.532985 0.257783
H55   H     H_    0.910202 0.772945 0.491874 0.193670
H56   H     H_    0.270602 0.737248 0.500967 0.169028
H57   H     H_    0.897694 0.882071 0.466250 0.273353
H58   H     H_    0.365891 0.144757 0.478577 0.139278
H59   H     H_    0.634142 0.855144 0.522730 0.139018
H60   H     H_    0.231306 0.536004 0.520513 0.121347
N1    N     N_R   0.503000 0.511598 0.798956 -0.357535
N2    N     N_R   0.485974 0.499490 0.199386 -0.357884
N3    N     N_R   0.731710 0.552720 0.528410 -0.099031
N4    N     N_R   0.268290 0.447280 0.471590 -0.098827
O1    O     O_R   0.383110 0.605620 0.485680 -0.613552
O2    O     O_2   0.508542 0.346775 0.203272 -0.556322
O3    O     O_2   0.462550 0.652183 0.197624 -0.554155
O4    O     O_2   0.580429 0.367848 0.809492 -0.556142
O5    O     O_2   0.127868 0.867439 0.488864 -0.653788
O6    O     O_R   0.191716 0.950998 0.551939 -0.791764
O7    O     O_2   0.872241 0.132245 0.511828 -0.654647
O8    O     O_R   0.808495 0.048008 0.449096 -0.791211
O9    O     O_3   0.030528 0.659902 0.610425 -0.616278
O10   O     O_3   0.970040 0.338538 0.390296 -0.614858
O11   O     O_3   0.353375 0.726286 0.948574 -0.624888
O12   O     O_R   0.616890 0.394380 0.514320 -0.613626
O13   O     O_3   0.503318 0.265372 0.028746 -0.623417
O14   O     O_3   0.227158 0.055768 0.481613 -0.602803
O15   O     O_3   0.773061 0.944079 0.519781 -0.603119
O16   O     O_R   0.531900 0.639510 0.503910 -0.625206
O17   O     O_R   0.468100 0.360490 0.496090 -0.625029
O18   O     O_R   0.425620 0.483050 0.562130 -0.626973
O19   O     O_R   0.574380 0.516950 0.437870 -0.627399
O20   O     O_R   0.574410 0.516930 0.580360 -0.618062
O21   O     O_R   0.425590 0.483070 0.419640 -0.618037
O22   O     O_2   0.426457 0.655605 0.786332 -0.558261
Zn1   Zn    Zn3+2 0.400660 0.477380 0.487830 0.947515
Zn2   Zn    Zn3+2 0.599340 0.522620 0.512170 0.946911

loop_
_geom_bond_atom_site_label_1
_geom_bond_atom_site_label_2
_ccdc_geom_bond_type
C64   H15   S    
C46   N4    A    
C21   C26   A    
C63   C65   A    
C84   H47   S    
C34   C56   A    
C23   C45   A    
C29   C33   A    
C81   H38   S    
C27   C29   A    
C42   H5    S    
C35   C36   A    
C76   H27   S    
C24   C32   A    
C60   C88   A    
C62   C71   A    
C47   C49   A    
C62   H17   S    
C3    C64   A    
C83   H43   S    
C79   H33   S    
C50   C54   A    
C30   C35   A    
C24   C26   A    
C5    C11   A    
C4    C65   A    
C11   C14   A    
C43   C52   A    
C57   C59   A    
C66   C69   A    
C80   H37   S    
C73   O5    D    
C43   H6    S    
C56   C78   A    
O16   Zn2   S    
C32   C39   A    
C15   H19   S    
C69   C71   A    
C83   H46   S    
C62   C64   A    
C33   C35   A    
N4    Zn1   S    
C49   C51   A    
C57   H8    S    
C45   C67   A    
C50   C52   A    
C75   H25   S    
C82   H42   S    
C87   H57   S    
C61   N2    A    
C85   H51   S    
H22   O6    S    
C2    C61   A    
C67   H11   S    
C42   C51   A    
C60   N1    A    
C2    C34   A    
C48   C50   A    
C13   H21   S    
C81   H39   S    
C78   H13   S    
C42   C44   A    
C65   H14   S    
C61   O3    S    
C27   H34   S    
C17   O21   A    
C66   H1    S    
O18   Zn1   S    
C77   C79   S    
C28   H23   S    
C38   O14   S    
C40   C45   A    
C44   N3    A    
C22   C31   A    
O20   Zn2   S    
C30   C32   A    
C84   C85   S    
C55   H7    S    
C77   H30   S    
C4    C68   A    
C53   C57   A    
C86   C87   S    
C80   C81   S    
C46   H3    S    
C1    O16   A    
C18   C67   A    
C53   C54   A    
C79   H35   S    
C73   O6    S    
C22   C25   A    
C33   C37   A    
C19   C78   A    
C75   C76   S    
C68   H12   S    
C41   C56   A    
C5    C9    A    
C52   C59   A    
C12   O12   A    
C18   O11   S    
C16   O20   A    
C79   H32   S    
O17   Zn1   S    
C51   C58   A    
C37   H59   S    
C82   H41   S    
C1    O1    A    
C6    C7    A    
O21   Zn1   S    
C4    C17   S    
C74   O7    D    
C36   H58   S    
C21   C28   A    
C47   N3    A    
C7    C19   A    
C23   C88   A    
C13   C15   A    
C81   H40   S    
C9    C34   A    
C47   H2    S    
C25   H56   S    
C85   H49   S    
C41   O2    S    
C80   H36   S    
C77   O10   S    
C7    C9    A    
C54   C55   A    
C84   H48   S    
C1    C20   S    
N3    Zn2   S    
H24   O8    S    
C48   H60   S    
C75   H26   S    
C8    C10   A    
C86   O15   S    
C63   H16   S    
C77   H31   S    
C44   H4    S    
C6    C10   A    
C80   O11   S    
C17   O19   A    
C12   O17   A    
C41   N2    A    
C20   C27   A    
C86   H52   S    
C10   C23   A    
O19   Zn2   S    
O1    Zn1   S    
C72   N2    S    
C76   H29   S    
C31   C38   A    
C74   O8    S    
C75   O9    S    
C28   C30   A    
C83   H44   S    
C29   C31   A    
C26   H45   S    
C6    C13   A    
C40   O22   S    
C24   C74   S    
C71   N1    S    
C49   C53   A    
C12   C21   S    
C36   C38   A    
C76   H28   S    
C40   N1    A    
O12   Zn2   S    
C60   O4    S    
C87   H54   S    
C39   O15   S    
C48   N4    A    
C2    C14   A    
C43   C46   A    
C8    C18   A    
C84   O14   S    
C3    C66   A    
C16   O18   A    
C14   H18   S    
C63   C72   A    
C37   C39   A    
C82   C83   S    
C20   C25   A    
C55   C58   A    
C11   H20   S    
C59   O10   S    
C68   C70   A    
C5    C8    A    
C70   C72   A    
C19   O13   S    
C22   C73   S    
C87   H55   S    
C58   O9    S    
C85   H50   S    
C3    C16   S    
C70   H10   S    
C86   H53   S    
C15   C88   A    
C82   O13   S    
C69   H9    S    
