data_mof_unit_62050.cif
_audit_creation_date              2012-10-26T17:40:55-0400
_audit_creation_method            fapswitch 2.2
_symmetry_space_group_name_H-M    P1
_symmetry_Int_Tables_number       1
_space_group_crystal_system       tetragonal
_cell_length_a                    39.036812
_cell_length_b                    39.036812
_cell_length_c                    32.228892
_cell_angle_alpha                 90.0
_cell_angle_beta                  90.0
_cell_angle_gamma                 90.0
_cell_volume                      49112.728384

loop_
_atom_site_label
_atom_site_type_symbol
_atom_type_description
_atom_site_fract_x
_atom_site_fract_y
_atom_site_fract_z
_atom_type_partial_charge
C1    C     C_R   0.000000 0.566239 0.000000 0.546137
C2    C     C_R   0.895859 1.000000 1.000000 -0.108329
C3    C     C_R   0.395990 1.000000 0.999998 0.012842
C4    C     C_R   0.500000 0.104010 0.499998 0.013090
C5    C     C_R   0.104010 0.500000 0.500001 0.013505
C6    C     C_R   0.500000 0.895990 0.499998 0.013090
C7    C     C_R   0.895990 0.500000 0.500001 0.013506
C8    C     C_R   0.000000 0.676107 0.000001 0.099141
C9    C     C_R   0.676107 1.000000 0.999997 0.099296
C10   C     C_R   1.000000 0.323893 0.000001 0.099141
C11   C     C_R   0.323893 0.000000 0.999997 0.099296
C12   C     C_R   0.500000 0.176107 0.499997 0.099401
C13   C     C_R   0.000000 0.104141 0.000000 -0.108317
C14   C     C_R   0.176107 0.500000 0.500001 0.099559
C15   C     C_R   0.500000 0.823893 0.499997 0.099401
C16   C     C_R   0.823893 0.500000 0.500001 0.099559
C17   C     C_R   0.933618 1.000000 1.000000 0.562092
C18   C     C_R   1.000000 0.066382 0.000000 0.562089
C19   C     C_R   0.066382 1.000000 1.000000 0.562091
C20   C     C_R   1.000000 0.933618 0.000000 0.562089
C21   C     C_R   0.433618 0.500000 0.500000 0.562047
C22   C     C_R   0.500000 0.566382 0.500000 0.562044
C23   C     C_R   0.566382 0.500000 0.500000 0.562047
C24   C     C_R   0.104141 0.000000 1.000000 -0.108329
C25   C     C_R   0.500000 0.433618 0.500000 0.562044
C26   C     C_R   0.000000 0.500000 0.920507 0.547257
C27   C     C_R   0.500000 0.000000 0.920507 0.548684
C28   C     C_R   0.000000 0.500000 0.079493 0.547629
C29   C     C_R   0.500000 0.000000 0.079493 0.547452
C30   C     C_R   0.500000 0.000000 0.420507 0.549057
C31   C     C_R   0.000000 0.500000 0.420507 0.548886
C32   C     C_R   0.500000 0.000000 0.579493 0.547830
C33   C     C_R   0.000000 0.500000 0.579493 0.549251
C34   C     C_R   0.974776 0.518159 0.728267 0.382481
C35   C     C_R   0.500000 0.395859 0.500000 -0.108352
C36   C     C_R   0.523746 0.020051 0.728267 0.382610
C37   C     C_R   0.025224 0.481841 0.728267 0.382481
C38   C     C_R   0.476254 0.979949 0.728267 0.382610
C39   C     C_R   0.976093 0.480140 0.271733 0.382506
C40   C     C_R   0.518668 0.975151 0.271733 0.382501
C41   C     C_R   0.023907 0.519860 0.271733 0.382506
C42   C     C_R   0.481332 0.024849 0.271733 0.382501
C43   C     C_R   0.481331 0.024848 0.228267 0.382659
C44   C     C_R   0.023906 0.519861 0.228267 0.382643
C45   C     C_R   0.518669 0.975152 0.228267 0.382659
C46   C     C_R   0.395859 0.500000 0.500000 -0.108366
C47   C     C_R   0.976094 0.480139 0.228267 0.382643
C48   C     C_R   0.476253 0.979950 0.771733 0.382540
C49   C     C_R   0.025223 0.481840 0.771733 0.382684
C50   C     C_R   0.523747 0.020050 0.771733 0.382540
C51   C     C_R   0.974777 0.518160 0.771733 0.382684
C52   C     C_R   0.000000 0.500000 0.706381 -0.076300
C53   C     C_R   0.500000 0.000000 0.706381 -0.076562
C54   C     C_R   0.000000 0.500000 0.293619 -0.076401
C55   C     C_R   0.500000 0.000000 0.293619 -0.076328
C56   C     C_R   0.500000 0.000000 0.206381 -0.076587
C57   C     C_R   0.500000 0.604141 0.500000 -0.108352
C58   C     C_R   0.000000 0.500000 0.206381 -0.076566
C59   C     C_R   0.500000 0.000000 0.793619 -0.076403
C60   C     C_R   0.000000 0.500000 0.793619 -0.076591
C61   C     C_1   0.000000 0.500000 0.661570 0.114903
C62   C     C_1   0.500000 0.000000 0.661570 0.114905
C63   C     C_1   0.000000 0.500000 0.338430 0.114880
C64   C     C_1   0.500000 0.000000 0.338430 0.114938
C65   C     C_1   0.500000 0.000000 0.161570 0.114953
C66   C     C_1   0.000000 0.500000 0.161570 0.114991
C67   C     C_1   0.500000 0.000000 0.838430 0.114967
C68   C     C_R   0.604141 0.500000 0.500000 -0.108366
C69   C     C_1   0.000000 0.500000 0.838430 0.114998
C70   C     C_1   0.000000 0.500000 0.875898 0.069108
C71   C     C_1   0.500000 0.000000 0.875898 0.069164
C72   C     C_1   1.000000 0.500000 0.124102 0.069135
C73   C     C_1   0.500000 0.000000 0.124102 0.069066
C74   C     C_1   0.500000 0.000000 0.375898 0.069137
C75   C     C_1   0.000000 0.500000 0.375898 0.069063
C76   C     C_1   0.500000 0.000000 0.624102 0.069034
C77   C     C_1   0.000000 0.500000 0.624101 0.069098
C78   C     C_R   0.995025 0.877669 0.037110 -0.085803
C79   C     C_R   0.976355 0.767899 0.975555 0.428519
C80   C     C_R   0.877669 0.004976 0.037109 -0.085799
C81   C     C_R   0.004975 0.122331 0.037110 -0.085803
C82   C     C_R   0.122331 0.995024 0.037109 -0.085799
C83   C     C_R   0.995025 0.122331 0.962890 -0.085774
C84   C     C_R   0.877669 0.995024 0.962890 -0.085769
C85   C     C_R   0.004975 0.877669 0.962890 -0.085774
C86   C     C_R   0.122331 0.004976 0.962890 -0.085770
C87   C     C_R   0.495024 0.377669 0.537109 -0.085694
C88   C     C_R   0.377669 0.504976 0.537110 -0.085690
C89   C     C_R   0.504976 0.622331 0.537109 -0.085694
C90   C     C_R   0.767899 0.023644 0.975552 0.428588
C91   C     C_R   0.622331 0.495024 0.537110 -0.085690
C92   C     C_R   0.495024 0.622331 0.462890 -0.085665
C93   C     C_R   0.377669 0.495024 0.462891 -0.085660
C94   C     C_R   0.504976 0.377669 0.462890 -0.085665
C95   C     C_R   0.622331 0.504975 0.462891 -0.085660
C96   C     C_R   0.994893 0.841924 0.037144 0.410786
C97   C     C_R   0.841924 0.005107 0.037143 0.410749
C98   C     C_R   0.005107 0.158076 0.037144 0.410785
C99   C     C_R   0.158076 0.994893 0.037143 0.410749
C100  C     C_R   0.994893 0.158076 0.962856 0.410781
C101  C     C_R   0.023645 0.232101 0.975555 0.428519
C102  C     C_R   0.841924 0.994893 0.962855 0.410890
C103  C     C_R   0.005107 0.841924 0.962856 0.410781
C104  C     C_R   0.158076 0.005107 0.962855 0.410890
C105  C     C_R   0.494893 0.341924 0.537143 0.410837
C106  C     C_R   0.341924 0.505107 0.537144 0.410967
C107  C     C_R   0.505107 0.658076 0.537143 0.410837
C108  C     C_R   0.658076 0.494893 0.537144 0.410967
C109  C     C_R   0.494893 0.658076 0.462855 0.410996
C110  C     C_R   0.341924 0.494893 0.462857 0.410941
C111  C     C_R   0.505107 0.341924 0.462855 0.410996
C112  C     C_R   0.566239 0.000000 1.000000 0.546770
C113  C     C_R   0.232101 0.976356 0.975552 0.428588
C114  C     C_R   0.658076 0.505107 0.462857 0.410941
C115  C     C_R   0.000000 0.823791 0.000000 0.098057
C116  C     C_R   0.823791 1.000000 0.999999 0.098015
C117  C     C_R   1.000000 0.176208 0.000000 0.098057
C118  C     C_R   0.176208 0.000000 0.999999 0.098015
C119  C     C_R   0.500000 0.323791 0.499999 0.097938
C120  C     C_R   0.323791 0.500000 0.500000 0.097895
C121  C     C_R   0.500000 0.676208 0.499999 0.097938
C122  C     C_R   0.676209 0.500000 0.500000 0.097895
C123  C     C_R   0.976355 0.232101 0.024446 0.428524
C124  C     C_R   0.767898 0.976356 0.024445 0.428583
C125  C     C_R   0.023645 0.767899 0.024446 0.428526
C126  C     C_R   0.232101 0.023644 0.024445 0.428583
C127  C     C_R   0.476356 0.267899 0.475552 0.428652
C128  C     C_R   0.267898 0.523644 0.475555 0.428736
C129  C     C_R   0.523644 0.732101 0.475552 0.428652
C130  C     C_R   0.732101 0.476355 0.475555 0.428736
C131  C     C_R   0.476356 0.732102 0.524444 0.428669
C132  C     C_R   0.000000 0.433761 0.000000 0.546137
C133  C     C_R   0.267899 0.476356 0.524447 0.428715
C134  C     C_R   0.523644 0.267898 0.524445 0.428671
C135  C     C_R   0.732101 0.523644 0.524447 0.428715
C136  C     C_R   0.976412 0.732140 0.975438 0.369884
C137  C     C_R   0.732140 0.023587 0.975435 0.370452
C138  C     C_R   0.023588 0.267860 0.975438 0.369885
C139  C     C_R   0.267860 0.976413 0.975435 0.370452
C140  C     C_R   0.976412 0.267860 0.024563 0.370059
C141  C     C_R   0.732140 0.976413 0.024560 0.369853
C142  C     C_R   0.023588 0.732140 0.024563 0.370057
C143  C     C_R   0.433761 0.000000 1.000000 0.546770
C144  C     C_R   0.267860 0.023587 0.024560 0.369853
C145  C     C_R   0.476413 0.232140 0.475435 0.370572
C146  C     C_R   0.232140 0.523588 0.475439 0.370378
C147  C     C_R   0.523587 0.767860 0.475435 0.370573
C148  C     C_R   0.767860 0.476412 0.475439 0.370378
C149  C     C_R   0.476412 0.767860 0.524560 0.369981
C150  C     C_R   0.232140 0.476413 0.524564 0.370547
C151  C     C_R   0.523587 0.232140 0.524560 0.369980
C152  C     C_R   0.767860 0.523587 0.524564 0.370547
C153  C     C_R   0.000000 0.713948 0.000001 -0.102577
C154  C     C_R   0.500000 0.066239 0.499999 0.547154
C155  C     C_R   0.713949 1.000000 0.999998 -0.102591
C156  C     C_R   1.000000 0.286051 0.000001 -0.102578
C157  C     C_R   0.286051 0.000000 0.999998 -0.102591
C158  C     C_R   0.500000 0.213949 0.499997 -0.102598
C159  C     C_R   0.213948 0.500000 0.500001 -0.102601
C160  C     C_R   0.500000 0.786051 0.499997 -0.102598
C161  C     C_R   0.786052 0.500000 0.500001 -0.102601
C162  C     C_R   1.000000 0.786007 0.000000 -0.030584
C163  C     C_R   0.786007 0.000000 0.999999 -0.030630
C164  C     C_R   1.000000 0.213993 0.000000 -0.030584
C165  C     C_R   0.066239 0.500000 0.500000 0.547787
C166  C     C_R   0.213993 0.000000 0.999999 -0.030630
C167  C     C_R   0.500000 0.286007 0.499998 -0.030674
C168  C     C_R   0.286007 0.500000 0.500001 -0.030714
C169  C     C_R   0.500000 0.713993 0.499998 -0.030674
C170  C     C_R   0.713993 0.500000 0.500001 -0.030714
C171  C     C_R   0.969445 0.657959 0.006530 -0.030764
C172  C     C_R   0.657959 0.030556 0.006526 -0.030566
C173  C     C_R   0.030556 0.342041 0.006530 -0.030764
C174  C     C_R   0.342041 0.969444 0.006526 -0.030566
C175  C     C_R   0.969444 0.342041 0.993471 -0.030799
C176  C     C_R   0.500000 0.933761 0.499999 0.547154
C177  C     C_R   0.657959 0.969444 0.993469 -0.030259
C178  C     C_R   0.030556 0.657959 0.993471 -0.030799
C179  C     C_R   0.342041 0.030556 0.993469 -0.030259
C180  C     C_R   0.469444 0.157959 0.506526 -0.030408
C181  C     C_R   0.157959 0.530555 0.506531 -0.029740
C182  C     C_R   0.530556 0.842040 0.506526 -0.030408
C183  C     C_R   0.842041 0.469444 0.506531 -0.029740
C184  C     C_R   0.469444 0.842041 0.493468 -0.029995
C185  C     C_R   0.157959 0.469444 0.493472 -0.029916
C186  C     C_R   0.530556 0.157959 0.493468 -0.029995
C187  C     C_R   0.933761 0.500000 0.500000 0.547788
C188  C     C_R   0.842040 0.530555 0.493472 -0.029916
C189  C     C_R   0.969408 0.622221 0.006383 -0.100718
C190  C     C_R   0.622222 0.030592 0.006379 -0.100315
C191  C     C_R   0.030592 0.377778 0.006383 -0.100718
C192  C     C_R   0.377778 0.969408 0.006379 -0.100314
C193  C     C_R   0.969408 0.377778 0.993618 -0.100675
C194  C     C_R   0.622222 0.969408 0.993616 -0.100181
C195  C     C_R   0.030592 0.622222 0.993618 -0.100676
C196  C     C_R   0.377778 0.030592 0.993616 -0.100181
C197  C     C_R   0.469408 0.122222 0.506380 -0.100154
C198  C     C_R   0.000000 0.895859 0.000000 -0.108317
C199  C     C_R   0.122221 0.530592 0.506383 -0.099465
C200  C     C_R   0.530592 0.877778 0.506380 -0.100154
C201  C     C_R   0.877778 0.469408 0.506383 -0.099465
C202  C     C_R   0.469408 0.877779 0.493616 -0.099856
C203  C     C_R   0.122222 0.469408 0.493619 -0.099645
C204  C     C_R   0.530592 0.122221 0.493616 -0.099856
C205  C     C_R   0.877778 0.530592 0.493619 -0.099645
C206  C     C_R   1.000000 0.604009 0.000000 0.012424
C207  C     C_R   0.604010 0.000000 0.999998 0.012842
C208  C     C_R   1.000000 0.395990 0.000000 0.012424
Cu1   Cu    Cu3+1 0.034230 0.500000 0.000000 1.080104
Cu2   Cu    Cu3+1 0.000000 0.000000 0.041040 1.068225
Cu3   Cu    Cu3+1 0.500000 0.500000 0.458960 1.069086
Cu4   Cu    Cu3+1 0.500000 0.500000 0.541040 1.068877
Cu5   Cu    Cu3+1 0.500000 0.965770 0.000000 1.078772
Cu6   Cu    Cu3+1 0.965770 0.500000 0.000000 1.080104
Cu7   Cu    Cu3+1 0.500000 0.034230 0.000000 1.078772
Cu8   Cu    Cu3+1 0.534230 0.000000 0.500000 1.077827
Cu9   Cu    Cu3+1 0.000000 0.465770 0.500000 1.076495
Cu10  Cu    Cu3+1 0.465770 0.000000 0.500000 1.077828
Cu11  Cu    Cu3+1 0.000000 0.534230 0.500000 1.076494
Cu12  Cu    Cu3+1 0.000000 0.000000 0.958960 1.068435
F1    F     F_    0.950203 0.535853 0.792468 -0.523284
F2    F     F_    0.047200 0.539208 0.292468 -0.523699
F3    F     F_    0.536855 0.950940 0.292468 -0.523778
F4    F     F_    0.952800 0.460791 0.292468 -0.523699
F5    F     F_    0.453118 0.960412 0.707532 -0.523409
F6    F     F_    0.049800 0.464150 0.707531 -0.523859
F7    F     F_    0.546882 0.039588 0.707532 -0.523409
F8    F     F_    0.950200 0.535850 0.707531 -0.523859
F9    F     F_    0.989190 0.825026 0.073310 -0.538113
F10   F     F_    0.825025 0.010812 0.073309 -0.538192
F11   F     F_    0.010811 0.174974 0.073310 -0.538113
F12   F     F_    0.546885 0.039585 0.792468 -0.523621
F13   F     F_    0.174975 0.989188 0.073309 -0.538192
F14   F     F_    0.989189 0.174974 0.926690 -0.538162
F15   F     F_    0.825026 0.989188 0.926689 -0.537766
F16   F     F_    0.010811 0.825026 0.926690 -0.538162
F17   F     F_    0.174974 0.010812 0.926689 -0.537766
F18   F     F_    0.489188 0.325025 0.573309 -0.537953
F19   F     F_    0.325026 0.510811 0.573310 -0.537515
F20   F     F_    0.510811 0.674975 0.573309 -0.537953
F21   F     F_    0.674974 0.489189 0.573310 -0.537515
F22   F     F_    0.489188 0.674974 0.426689 -0.537493
F23   F     F_    0.049797 0.464147 0.792468 -0.523284
F24   F     F_    0.325026 0.489189 0.426690 -0.537604
F25   F     F_    0.510812 0.325026 0.426689 -0.537493
F26   F     F_    0.674974 0.510811 0.426690 -0.537604
F27   F     F_    0.952935 0.784895 0.952169 -0.492497
F28   F     F_    0.784895 0.047065 0.952166 -0.492201
F29   F     F_    0.047065 0.215105 0.952169 -0.492497
F30   F     F_    0.215105 0.952935 0.952166 -0.492201
F31   F     F_    0.952934 0.215105 0.047831 -0.492424
F32   F     F_    0.784895 0.952935 0.047831 -0.492470
F33   F     F_    0.047066 0.784895 0.047831 -0.492425
F34   F     F_    0.453115 0.960415 0.792468 -0.523621
F35   F     F_    0.215105 0.047065 0.047831 -0.492470
F36   F     F_    0.452935 0.284895 0.452166 -0.492067
F37   F     F_    0.284895 0.547065 0.452169 -0.492053
F38   F     F_    0.547065 0.715105 0.452166 -0.492067
F39   F     F_    0.715105 0.452935 0.452169 -0.492053
F40   F     F_    0.452935 0.715105 0.547831 -0.492273
F41   F     F_    0.284895 0.452935 0.547832 -0.492049
F42   F     F_    0.547065 0.284895 0.547831 -0.492274
F43   F     F_    0.715105 0.547065 0.547832 -0.492049
F44   F     F_    0.953843 0.715286 0.950714 -0.532971
F45   F     F_    0.952803 0.460788 0.207532 -0.523325
F46   F     F_    0.715287 0.046156 0.950709 -0.531834
F47   F     F_    0.046157 0.284714 0.950714 -0.532972
F48   F     F_    0.284713 0.953844 0.950709 -0.531834
F49   F     F_    0.953843 0.284714 0.049287 -0.532613
F50   F     F_    0.715286 0.953844 0.049286 -0.532952
F51   F     F_    0.046157 0.715286 0.049287 -0.532614
F52   F     F_    0.284714 0.046156 0.049286 -0.532952
F53   F     F_    0.453844 0.215287 0.450709 -0.531632
F54   F     F_    0.215286 0.546156 0.450713 -0.531891
F55   F     F_    0.546156 0.784713 0.450709 -0.531632
F56   F     F_    0.536859 0.950943 0.207532 -0.523328
F57   F     F_    0.784714 0.453844 0.450713 -0.531891
F58   F     F_    0.453844 0.784714 0.549286 -0.532663
F59   F     F_    0.215287 0.453844 0.549289 -0.531642
F60   F     F_    0.546156 0.215286 0.549286 -0.532663
F61   F     F_    0.784713 0.546156 0.549289 -0.531642
F62   F     F_    0.047197 0.539212 0.207532 -0.523325
F63   F     F_    0.463141 0.049057 0.207532 -0.523328
F64   F     F_    0.463145 0.049060 0.292468 -0.523778
H1    H     H_    0.990922 0.891080 0.066104 0.191266
H2    H     H_    0.391080 0.509079 0.566103 0.191422
H3    H     H_    0.509079 0.608921 0.566103 0.191383
H4    H     H_    0.608920 0.490921 0.566103 0.191421
H5    H     H_    0.490921 0.608920 0.433896 0.191448
H6    H     H_    0.391079 0.490921 0.433897 0.191444
H7    H     H_    0.509079 0.391080 0.433896 0.191448
H8    H     H_    0.608920 0.509078 0.433897 0.191444
H9    H     H_    0.945650 0.671462 0.012126 0.182143
H10   H     H_    0.671462 0.054351 0.012121 0.182036
H11   H     H_    0.054350 0.328538 0.012126 0.182143
H12   H     H_    0.891079 0.009079 0.066103 0.191263
H13   H     H_    0.328538 0.945649 0.012121 0.182036
H14   H     H_    0.945650 0.328538 0.987876 0.182129
H15   H     H_    0.671462 0.945649 0.987874 0.182203
H16   H     H_    0.054350 0.671462 0.987875 0.182129
H17   H     H_    0.328538 0.054350 0.987874 0.182203
H18   H     H_    0.445649 0.171462 0.512121 0.181981
H19   H     H_    0.171462 0.554350 0.512126 0.182136
H20   H     H_    0.554351 0.828538 0.512121 0.181981
H21   H     H_    0.828538 0.445649 0.512126 0.182136
H22   H     H_    0.445649 0.828538 0.487873 0.182215
H23   H     H_    0.009078 0.108920 0.066103 0.191266
H24   H     H_    0.171462 0.445650 0.487877 0.182036
H25   H     H_    0.554350 0.171462 0.487873 0.182215
H26   H     H_    0.828538 0.554350 0.487877 0.182036
H27   H     H_    0.945470 0.608882 0.011604 0.159320
H28   H     H_    0.608882 0.054530 0.011600 0.159220
H29   H     H_    0.054530 0.391118 0.011604 0.159320
H30   H     H_    0.391118 0.945470 0.011600 0.159220
H31   H     H_    0.945470 0.391118 0.988397 0.159377
H32   H     H_    0.608882 0.945470 0.988396 0.159213
H33   H     H_    0.054530 0.608882 0.988397 0.159377
H34   H     H_    0.108921 0.990921 0.066103 0.191263
H35   H     H_    0.391118 0.054530 0.988396 0.159213
H36   H     H_    0.445470 0.108882 0.511600 0.159056
H37   H     H_    0.108882 0.554530 0.511604 0.159025
H38   H     H_    0.554530 0.891118 0.511600 0.159056
H39   H     H_    0.891118 0.445470 0.511604 0.159025
H40   H     H_    0.445470 0.891118 0.488396 0.159158
H41   H     H_    0.108882 0.445470 0.488398 0.158938
H42   H     H_    0.554530 0.108882 0.488396 0.159158
H43   H     H_    0.891118 0.554530 0.488398 0.158938
H44   H     H_    0.990922 0.108920 0.933897 0.191291
H45   H     H_    0.891080 0.990921 0.933896 0.191326
H46   H     H_    0.009078 0.891080 0.933897 0.191291
H47   H     H_    0.108920 0.009079 0.933896 0.191326
H48   H     H_    0.490921 0.391079 0.566103 0.191383
O1    O     O_R   0.028910 0.549920 0.999960 -0.505288
O2    O     O_R   0.049920 0.471090 0.499960 -0.505331
O3    O     O_R   0.471090 0.950080 0.499960 -0.505317
O4    O     O_R   0.950080 0.528910 0.499960 -0.505331
O5    O     O_R   0.528910 0.950080 0.500040 -0.505316
O6    O     O_R   0.049920 0.528910 0.500040 -0.505260
O7    O     O_R   0.471090 0.049920 0.500040 -0.505316
O8    O     O_R   0.950080 0.471090 0.500040 -0.505259
O9    O     O_R   0.028910 0.500000 0.940120 -0.489743
O10   O     O_R   0.500000 0.971090 0.940120 -0.490882
O11   O     O_R   0.971090 0.500000 0.940120 -0.489742
O12   O     O_R   0.549920 0.971090 0.999960 -0.505388
O13   O     O_R   0.500000 0.028910 0.940120 -0.490883
O14   O     O_R   0.028910 0.500000 0.059880 -0.490055
O15   O     O_R   0.500000 0.028910 0.059880 -0.489844
O16   O     O_R   0.971090 0.500000 0.059880 -0.490055
O17   O     O_R   0.500000 0.971090 0.059880 -0.489843
O18   O     O_R   0.528910 0.000000 0.440120 -0.491158
O19   O     O_R   0.000000 0.471090 0.440120 -0.490949
O20   O     O_R   0.471090 0.000000 0.440120 -0.491158
O21   O     O_R   0.000000 0.528910 0.440120 -0.490949
O22   O     O_R   0.528910 0.000000 0.559880 -0.490122
O23   O     O_R   0.971090 0.450080 0.999960 -0.505288
O24   O     O_R   1.000000 0.528910 0.559880 -0.491258
O25   O     O_R   0.471090 0.000000 0.559880 -0.490122
O26   O     O_R   0.000000 0.471090 0.559880 -0.491258
O27   O     O_R   0.950050 0.000070 0.965410 -0.500109
O28   O     O_R   0.000070 0.049950 0.965410 -0.500117
O29   O     O_R   0.049950 0.999930 0.965410 -0.500109
O30   O     O_R   0.999930 0.950050 0.965410 -0.500117
O31   O     O_R   0.950050 0.999930 0.034590 -0.500148
O32   O     O_R   0.000070 0.950050 0.034590 -0.500147
O33   O     O_R   0.049950 0.000070 0.034590 -0.500148
O34   O     O_R   0.450080 0.028910 0.999960 -0.505389
O35   O     O_R   0.999930 0.049950 0.034590 -0.500147
O36   O     O_R   0.450050 0.500070 0.465410 -0.500075
O37   O     O_R   0.500070 0.549950 0.465410 -0.500075
O38   O     O_R   0.549950 0.499930 0.465410 -0.500075
O39   O     O_R   0.499930 0.450050 0.465410 -0.500075
O40   O     O_R   0.450050 0.499930 0.534590 -0.500106
O41   O     O_R   0.500070 0.450050 0.534590 -0.500112
O42   O     O_R   0.549950 0.500070 0.534590 -0.500106
O43   O     O_R   0.499930 0.549950 0.534590 -0.500112
O44   O     O_R   0.028910 0.450080 0.000040 -0.505400
O45   O     O_R   0.549920 0.028910 0.000040 -0.505252
O46   O     O_R   0.971090 0.549920 0.000040 -0.505400
O47   O     O_R   0.450080 0.971090 0.000040 -0.505251
O48   O     O_R   0.528910 0.049920 0.499960 -0.505317

loop_
_geom_bond_atom_site_label_1
_geom_bond_atom_site_label_2
_ccdc_geom_bond_type
C103  F16   S    
C165  O2    A    
C100  F14   S    
C36   C50   A    
C120  C168  S    
C49   C60   A    
C13   C18   S    
C50   C59   A    
C19   O29   A    
Cu5   O47   S    
C52   C61   S    
C200  H38   S    
C99   F13   S    
C92   C109  A    
C54   C63   S    
C180  H18   S    
C94   C111  A    
C148  F57   S    
C181  H19   S    
C182  H20   S    
C179  H17   S    
C36   C53   A    
C80   H12   S    
C66   C72   T    
C45   C56   A    
C78   C96   A    
C122  C170  S    
C84   H45   S    
C185  H24   S    
C154  O7    A    
C78   H1    S    
C85   C103  A    
C93   C110  A    
Cu8   O48   S    
C171  H9    S    
C112  O45   A    
Cu7   O34   S    
Cu5   O10   S    
C86   H47   S    
Cu9   O8    S    
Cu5   Cu7   S    
C188  C205  A    
C68   C95   A    
C150  C159  A    
C183  C201  A    
C151  C158  A    
C3    C143  S    
C16   C188  A    
C113  C166  A    
C32   O25   A    
C28   O14   A    
C172  C190  A    
Cu5   O17   S    
C173  C191  A    
C192  H30   S    
C127  F36   S    
Cu4   O41   S    
Cu11  O24   S    
C173  H11   S    
C189  C206  A    
C40   C55   A    
C15   C184  A    
C184  H22   S    
C141  F50   S    
Cu3   O38   S    
C20   C198  S    
C127  C145  A    
C43   F63   S    
C37   F6    S    
C89   H3    S    
C83   C100  A    
C25   O39   A    
Cu10  O7    S    
Cu8   O18   S    
C39   F4    S    
C131  C149  A    
C11   C179  A    
C110  C120  A    
C119  C167  S    
C27   C71   S    
C187  O8    A    
C11   C157  S    
C39   C47   A    
C14   C185  A    
C131  C169  A    
Cu1   Cu6   S    
C146  F54   S    
C195  H33   S    
C45   F56   S    
C107  F20   S    
C15   C160  S    
C7    C201  A    
C136  C153  A    
C109  C121  A    
C38   C53   A    
C109  F22   S    
C51   F1    S    
C134  C151  A    
C197  H36   S    
Cu12  O30   S    
C69   C70   T    
C129  C147  A    
C131  F40   S    
C85   C198  A    
C139  C157  A    
Cu5   O12   S    
C100  C117  A    
C78   C198  A    
C175  C193  A    
C147  F55   S    
C187  O4    A    
C175  H14   S    
C123  C164  A    
C57   C92   A    
C80   C97   A    
C84   C102  A    
C125  C162  A    
C86   C104  A    
Cu2   O35   S    
C28   O16   A    
C82   H34   S    
C133  F41   S    
C79   C136  A    
C34   C51   A    
C93   H6    S    
Cu4   O43   S    
C7    C187  S    
C144  F52   S    
Cu8   Cu10  S    
C88   H2    S    
C112  O12   A    
C30   C74   S    
C39   C54   A    
C138  F47   S    
Cu12  O28   S    
C135  C152  A    
C15   C182  A    
C140  F49   S    
C137  C155  A    
C111  C119  A    
C132  O23   A    
C150  F59   S    
C59   C67   S    
C35   C87   A    
Cu1   O9    S    
C61   C77   T    
C25   O41   A    
C108  F21   S    
C113  C139  A    
C50   F12   S    
C38   C48   A    
C152  C161  A    
C8    C171  A    
C33   O24   A    
C47   F45   S    
C17   O27   A    
C2    C17   S    
C29   O17   A    
C22   O43   A    
C85   H46   S    
C31   O19   A    
C147  C160  A    
C49   F23   S    
C31   O21   A    
C40   F3    S    
C176  O5    A    
C133  C168  A    
C37   C52   A    
C149  F58   S    
C79   F27   S    
Cu6   O46   S    
C34   F8    S    
C151  F60   S    
C1    C206  S    
Cu2   O32   S    
C1    O1    A    
C137  F46   S    
C97   F10   S    
C87   C105  A    
C44   F62   S    
Cu4   O40   S    
C96   F9    S    
C8    C153  S    
C12   C180  A    
C36   F7    S    
C17   O31   A    
C124  C141  A    
C181  C199  A    
Cu2   O33   S    
Cu3   O39   S    
C81   H23   S    
C48   C59   A    
C35   C94   A    
C10   C175  A    
Cu7   O45   S    
C1    O46   A    
C11   C174  A    
C94   H7    S    
C101  F29   S    
C133  C150  A    
C112  C207  S    
C32   C76   S    
C14   C159  S    
C128  F37   S    
C124  F32   S    
C3    C192  A    
C33   C77   S    
C195  C206  A    
C63   C75   T    
C60   C69   S    
C126  C144  A    
C188  H26   S    
C149  C160  A    
C165  O6    A    
C189  H27   S    
C20   O30   A    
C190  H28   S    
C33   O26   A    
C190  C207  A    
C18   O35   A    
C9    C155  S    
C193  C208  A    
C51   C60   A    
C12   C158  S    
C144  C157  A    
C24   C86   A    
C9    C177  A    
C174  C192  A    
C5    C203  A    
C27   O10   A    
C4    C154  S    
Cu10  O20   S    
C82   C99   A    
C116  C163  S    
C2    C84   A    
C7    C205  A    
C5    C199  A    
C18   O28   A    
C205  H43   S    
C57   C89   A    
C186  H25   S    
C201  H39   S    
C199  H37   S    
C81   C98   A    
C95   C114  A    
C13   C81   A    
Cu4   O42   S    
C142  F51   S    
Cu6   O11   S    
C44   C58   A    
C191  H29   S    
C90   F28   S    
Cu9   O26   S    
Cu3   O37   S    
C10   C173  A    
C102  F15   S    
C183  H21   S    
Cu1   O44   S    
C62   C76   T    
C91   H4    S    
C28   C72   S    
C176  O3    A    
C104  C118  A    
C179  C196  A    
C117  C164  S    
C40   C45   A    
C177  C194  A    
C182  C200  A    
C141  C155  A    
C196  H35   S    
C103  C115  A    
Cu9   O19   S    
C194  C207  A    
C37   C49   A    
C31   C75   S    
Cu3   Cu4   S    
C111  F25   S    
C12   C186  A    
C89   C107  A    
C23   O42   A    
C97   C116  A    
C143  O34   A    
C154  O48   A    
C25   C35   S    
C38   F5    S    
Cu8   O5    S    
C26   C70   S    
C41   C44   A    
Cu9   Cu11  S    
C42   C43   A    
C107  C121  A    
C79   C162  A    
C48   F34   S    
C14   C181  A    
C104  F17   S    
C30   O20   A    
C91   C108  A    
C22   O37   A    
C26   O11   A    
C126  C166  A    
C42   F64   S    
C101  C138  A    
C16   C161  S    
C13   C83   A    
C34   C52   A    
C3    C196  A    
C90   C163  A    
C185  C203  A    
C19   C24   S    
Cu11  O21   S    
C6    C200  A    
C145  C158  A    
C114  F26   S    
C130  C170  A    
C21   O40   A    
C67   C71   T    
C19   O33   A    
C202  H40   S    
C4    C204  A    
C98   F11   S    
C177  H15   S    
C64   C74   T    
C105  C119  A    
C9    C172  A    
C178  H16   S    
C99   C118  A    
C121  C169  S    
C139  F48   S    
C135  F43   S    
C136  F44   S    
C128  C146  A    
C68   C91   A    
C22   C57   S    
C130  F39   S    
C16   C183  A    
Cu2   Cu12  S    
Cu6   O16   S    
C148  C161  A    
C129  C169  A    
C6    C202  A    
C42   C55   A    
C135  C170  A    
C29   C73   S    
C56   C65   S    
Cu12  O29   S    
C29   O15   A    
C21   O36   A    
C65   C73   T    
C171  C189  A    
C24   C82   A    
C132  O44   A    
C180  C197  A    
Cu3   O36   S    
C58   C66   S    
Cu9   O2    S    
C92   H5    S    
C105  F18   S    
C96   C115  A    
C126  F35   S    
Cu7   O15   S    
C30   O18   A    
C143  O47   A    
C26   O9    A    
C32   O22   A    
C27   O13   A    
C46   C88   A    
C203  H41   S    
Cu8   O22   S    
C184  C202  A    
C130  C148  A    
Cu10  O3    S    
C2    C80   A    
C129  F38   S    
C10   C156  S    
C146  C159  A    
Cu12  O27   S    
C123  C140  A    
C118  C166  S    
C113  F30   S    
C20   O32   A    
C23   C68   S    
C145  F53   S    
C193  H31   S    
C123  F31   S    
C194  H32   S    
C88   C106  A    
C53   C62   S    
C43   C56   A    
C125  C142  A    
C55   C64   S    
Cu11  O4    S    
C186  C204  A    
C95   H8    S    
C125  F33   S    
C8    C178  A    
C127  C167  A    
C4    C197  A    
C140  C156  A    
C132  C208  S    
C5    C165  S    
C90   C137  A    
C152  F61   S    
C98   C117  A    
Cu1   O1    S    
C21   C46   S    
C138  C156  A    
C106  C120  A    
C83   H44   S    
C41   F2    S    
C108  C122  A    
Cu10  O25   S    
C101  C164  A    
C178  C195  A    
C174  H13   S    
C106  F19   S    
C124  C163  A    
C115  C162  S    
C204  H42   S    
Cu2   O31   S    
C47   C58   A    
Cu6   O23   S    
C46   C93   A    
C6    C176  S    
Cu11  O6    S    
Cu1   O14   S    
C172  H10   S    
C191  C208  A    
Cu7   O13   S    
C142  C153  A    
C41   C54   A    
C102  C116  A    
C114  C122  A    
C110  F24   S    
C87   H48   S    
C134  F42   S    
C128  C168  A    
C134  C167  A    
C23   O38   A    
