data_mof_unit_61957.cif
_audit_creation_date              2012-12-10T20:14:39-0500
_audit_creation_method            fapswitch 2.2
_symmetry_space_group_name_H-M    P1
_symmetry_Int_Tables_number       1
_space_group_crystal_system       triclinic
_cell_length_a                    35.513833
_cell_length_b                    35.514453
_cell_length_c                    21.69658
_cell_angle_alpha                 90.022906
_cell_angle_beta                  89.9975
_cell_angle_gamma                 89.935812
_cell_volume                      27364.886583

loop_
_atom_site_label
_atom_site_type_symbol
_atom_type_description
_atom_site_fract_x
_atom_site_fract_y
_atom_site_fract_z
_atom_type_partial_charge
C1    C     C_R   0.073401 0.499980 0.500000 0.899235
C2    C     C_R   0.500119 0.692896 0.500035 -0.128256
C3    C     C_R   0.456086 0.945550 0.312751 -0.379711
C4    C     C_R   0.054446 0.543933 0.687232 -0.379833
C5    C     C_R   0.456026 0.054494 0.687239 -0.380268
C6    C     C_R   0.945528 0.456119 0.687179 -0.379667
C7    C     C_R   0.543968 0.945488 0.687152 -0.379749
C8    C     C_R   0.445499 0.043970 0.812829 -0.379629
C9    C     C_R   0.043905 0.554467 0.812835 -0.379688
C10   C     C_R   0.554475 0.955985 0.812764 -0.379760
C11   C     C_R   0.956089 0.445551 0.812754 -0.379713
C12   C     C_R   0.554442 0.043938 0.187239 -0.379618
C13   C     C_R   0.692903 0.500184 0.500041 -0.128065
C14   C     C_R   0.956008 0.554482 0.187247 -0.379701
C15   C     C_R   0.445528 0.956118 0.187176 -0.379567
C16   C     C_R   0.043974 0.445493 0.187152 -0.379686
C17   C     C_R   0.923306 0.570496 0.281399 0.506617
C18   C     C_R   0.570414 0.076621 0.281404 0.506407
C19   C     C_R   0.076661 0.429452 0.281281 0.506589
C20   C     C_R   0.429560 0.923410 0.281278 0.506589
C21   C     C_R   0.076593 0.570452 0.718710 0.506547
C22   C     C_R   0.429486 0.076677 0.718714 0.506399
C23   C     C_R   0.923382 0.429595 0.718617 0.506571
C24   C     C_R   0.496338 0.307116 0.497642 -0.121206
C25   C     C_R   0.570501 0.923297 0.718595 0.506589
C26   C     C_R   0.423325 0.070518 0.781388 0.506888
C27   C     C_R   0.070423 0.576618 0.781390 0.506585
C28   C     C_R   0.576652 0.929442 0.781281 0.506597
C29   C     C_R   0.929562 0.423412 0.781282 0.506589
C30   C     C_R   0.576587 0.070458 0.218723 0.506670
C31   C     C_R   0.929463 0.576657 0.218726 0.506615
C32   C     C_R   0.423382 0.929594 0.218613 0.506571
C33   C     C_R   0.070511 0.423306 0.218594 0.506605
C34   C     C_R   0.976747 0.525956 0.217964 0.034726
C35   C     C_R   0.807104 0.999868 0.000050 -0.128298
C36   C     C_R   0.525936 0.023232 0.217960 0.034773
C37   C     C_R   0.023236 0.474015 0.217920 0.034737
C38   C     C_R   0.474042 0.976808 0.217927 0.034798
C39   C     C_R   0.023208 0.525960 0.782075 0.034715
C40   C     C_R   0.474023 0.023231 0.782073 0.034721
C41   C     C_R   0.976784 0.474065 0.782038 0.034694
C42   C     C_R   0.525956 0.976732 0.782039 0.034697
C43   C     C_R   0.476755 0.025962 0.717960 0.034741
C44   C     C_R   0.025939 0.523231 0.717957 0.034683
C45   C     C_R   0.523233 0.974012 0.717920 0.034710
C46   C     C_R   0.000121 0.192896 0.000034 -0.128317
C47   C     C_R   0.974043 0.476809 0.717929 0.034715
C48   C     C_R   0.523203 0.025959 0.282077 0.034677
C49   C     C_R   0.974017 0.523223 0.282077 0.034739
C50   C     C_R   0.476783 0.974062 0.282037 0.034702
C51   C     C_R   0.025959 0.476735 0.282039 0.034707
C52   C     C_R   0.999996 0.499991 0.186249 -0.101522
C53   C     C_R   0.499991 0.000020 0.186249 -0.101501
C54   C     C_R   1.000000 0.500007 0.813750 -0.101601
C55   C     C_R   0.499989 0.999981 0.813750 -0.101549
C56   C     C_R   0.499997 0.999991 0.686248 -0.101516
C57   C     C_R   0.192896 0.000130 0.000034 -0.128326
C58   C     C_R   0.999991 0.500020 0.686249 -0.101629
C59   C     C_R   0.499998 0.000004 0.313751 -0.101670
C60   C     C_R   0.999990 0.499979 0.313751 -0.101542
C61   C     C_R   0.326540 0.525524 0.538187 -0.124269
C62   C     C_R   0.525717 0.673361 0.538245 -0.123433
C63   C     C_R   0.673474 0.474624 0.538381 -0.123746
C64   C     C_R   0.473174 0.327094 0.539261 -0.118503
C65   C     C_R   0.673356 0.525697 0.461703 -0.123494
C66   C     C_R   0.474480 0.673454 0.461825 -0.123611
C67   C     C_R   0.326655 0.474191 0.461904 -0.122871
C68   C     C_R   0.999860 0.807104 0.999881 -0.128309
C69   C     C_R   0.520910 0.326082 0.457007 -0.124894
C70   C     C_R   0.826542 0.025511 0.038264 -0.123560
C71   C     C_R   0.025720 0.173360 0.038241 -0.123418
C72   C     C_R   0.173457 0.974488 0.038218 -0.123520
C73   C     C_R   0.974261 0.826647 0.038107 -0.123444
C74   C     C_R   0.173357 0.025730 0.961837 -0.123397
C75   C     C_R   0.974481 0.173454 0.961827 -0.123556
C76   C     C_R   0.826643 0.974267 0.961820 -0.123434
C77   C     C_R   0.025501 0.826539 0.961686 -0.123508
C78   C     C_R   0.366281 0.524584 0.539528 0.327459
C79   C     C_1   0.266807 0.499808 0.500030 0.143125
C80   C     C_R   0.524679 0.633625 0.539601 0.327017
C81   C     C_R   0.633734 0.475560 0.539716 0.325809
C82   C     C_R   0.474336 0.366834 0.539515 0.333834
C83   C     C_R   0.633620 0.524641 0.460334 0.327701
C84   C     C_R   0.475432 0.633714 0.460468 0.327172
C85   C     C_R   0.366391 0.475236 0.460529 0.318503
C86   C     C_R   0.521863 0.365825 0.457628 0.327584
C87   C     C_R   0.866282 0.024562 0.039599 0.326946
C88   C     C_R   0.024682 0.133625 0.039598 0.327036
C89   C     C_R   0.133717 0.975437 0.039558 0.326922
C90   C     C_1   0.500152 0.733196 0.500044 0.144240
C91   C     C_R   0.975303 0.866382 0.039503 0.327046
C92   C     C_R   0.133621 0.024690 0.960462 0.327021
C93   C     C_R   0.975432 0.133714 0.960469 0.326915
C94   C     C_R   0.866380 0.975308 0.960442 0.327048
C95   C     C_R   0.024553 0.866279 0.960368 0.326939
C96   C     C_R   0.385714 0.499941 0.500012 -0.128831
C97   C     C_R   0.500034 0.614290 0.500034 -0.128738
C98   C     C_R   0.614295 0.500065 0.500006 -0.128767
C99   C     C_R   0.499259 0.385681 0.499797 -0.132368
C100  C     C_R   0.885711 0.999959 0.000008 -0.128806
C101  C     C_1   0.733202 0.500212 0.500017 0.144224
C102  C     C_R   0.000035 0.114289 0.000034 -0.128823
C103  C     C_R   0.114289 0.000040 1.000000 -0.128827
C104  C     C_R   0.999954 0.885710 0.999959 -0.128816
C105  C     C_2   0.305426 0.554082 0.574745 0.945800
C106  C     C_2   0.554283 0.694357 0.574860 0.945470
C107  C     C_2   0.694592 0.446196 0.575166 0.946030
C108  C     C_2   0.449228 0.306440 0.584247 0.921467
C109  C     C_2   0.694341 0.554197 0.424959 0.945438
C110  C     C_2   0.445961 0.694557 0.425204 0.945566
C111  C     C_2   0.305669 0.445573 0.425376 0.943712
C112  C     C_R   0.500019 0.926599 0.499998 0.899294
C113  C     C_1   0.497049 0.266819 0.499806 0.139478
C114  C     C_2   0.546990 0.304315 0.416687 0.946571
C115  C     C_2   0.805434 0.054032 0.074909 0.945541
C116  C     C_2   0.054288 0.194357 0.074854 0.945236
C117  C     C_2   0.194565 0.945968 0.074826 0.945443
C118  C     C_2   0.945691 0.805658 0.074703 0.945320
C119  C     C_2   0.194350 0.054299 0.925253 0.945252
C120  C     C_2   0.945961 0.194557 0.925208 0.945501
C121  C     C_2   0.805651 0.945697 0.925203 0.945314
C122  C     C_2   0.054019 0.805427 0.925044 0.945456
C123  C     C_1   0.766804 0.999839 0.000049 0.144239
C124  C     C_1   0.000154 0.233196 0.000045 0.144220
C125  C     C_1   0.233196 0.000159 0.000031 0.144237
C126  C     C_1   0.999834 0.766804 0.999877 0.144234
C127  C     C_1   0.233175 0.499812 0.500021 0.210224
C128  C     C_1   0.500156 0.766827 0.500042 0.210804
C129  C     C_1   0.766833 0.500205 0.500004 0.210882
C130  C     C_1   0.497787 0.233197 0.501065 0.201533
C131  C     C_1   0.733172 0.999837 0.000047 0.210810
C132  C     C_R   0.926600 0.500020 0.499998 0.899302
C133  C     C_1   0.000158 0.266827 0.000043 0.210751
C134  C     C_1   0.266827 0.000162 0.000030 0.210786
C135  C     C_1   0.999833 0.733172 0.999881 0.210784
C136  C     C_R   0.173727 0.533050 0.515040 0.424819
C137  C     C_R   0.533291 0.826268 0.515046 0.424799
C138  C     C_R   0.826273 0.466972 0.515059 0.424730
C139  C     C_R   0.465485 0.173275 0.515377 0.426677
C140  C     C_R   0.826276 0.533308 0.484939 0.424820
C141  C     C_R   0.466937 0.826275 0.484987 0.424712
C142  C     C_R   0.173734 0.466688 0.484991 0.424349
C143  C     C_R   0.499956 0.073405 0.500216 0.899351
C144  C     C_R   0.532263 0.174202 0.488027 0.421509
C145  C     C_R   0.673719 0.033059 0.015090 0.424696
C146  C     C_R   0.033292 0.326268 0.015046 0.424714
C147  C     C_R   0.326279 0.966943 0.015054 0.424697
C148  C     C_R   0.966702 0.673743 0.014941 0.424772
C149  C     C_R   0.326263 0.033292 0.985008 0.424766
C150  C     C_R   0.966938 0.326275 0.984989 0.424690
C151  C     C_R   0.673738 0.966705 0.984995 0.424768
C152  C     C_R   0.033057 0.673714 0.984878 0.424699
C153  C     C_R   0.134287 0.532891 0.514715 -0.309016
C154  C     C_R   0.573401 0.999981 0.000003 0.899157
C155  C     C_R   0.533055 0.865709 0.514713 -0.308968
C156  C     C_R   0.865713 0.467126 0.514736 -0.308817
C157  C     C_R   0.466258 0.133870 0.514767 -0.313506
C158  C     C_R   0.865717 0.533060 0.485258 -0.308920
C159  C     C_R   0.467104 0.865715 0.485293 -0.308859
C160  C     C_R   0.134292 0.466933 0.485303 -0.308962
C161  C     C_R   0.532606 0.134735 0.487931 -0.307747
C162  C     C_R   0.634279 0.032894 0.014757 -0.308786
C163  C     C_R   0.033056 0.365709 0.014713 -0.309023
C164  C     C_R   0.365719 0.967109 0.014726 -0.308876
C165  C     C_R   0.000019 0.426599 0.999998 0.899204
C166  C     C_R   0.966942 0.634301 0.014658 -0.308879
C167  C     C_R   0.365705 0.033054 0.985318 -0.308803
C168  C     C_R   0.967105 0.365714 0.985295 -0.308821
C169  C     C_R   0.634296 0.966943 0.985300 -0.308899
C170  C     C_R   0.032893 0.634275 0.985234 -0.308893
C171  C     C_R   0.114563 0.499934 0.500005 -0.116506
C172  C     C_R   0.500062 0.885438 0.499999 -0.116523
C173  C     C_R   0.885440 0.500069 0.499996 -0.116501
C174  C     C_R   0.499669 0.114572 0.501005 -0.116230
C175  C     C_R   0.614562 0.999938 0.000019 -0.116545
C176  C     C_R   0.426599 0.000019 0.000002 0.899158
C177  C     C_R   0.000062 0.385438 0.000000 -0.116536
C178  C     C_R   0.385438 0.000062 0.000015 -0.116560
C179  C     C_R   0.999937 0.614562 0.999966 -0.116527
C180  C     C_R   0.193078 0.499848 0.500019 0.012900
C181  C     C_R   0.500130 0.806924 0.500025 0.012731
C182  C     C_R   0.806928 0.500163 0.500001 0.012771
C183  C     C_R   0.498580 0.193095 0.501812 0.010067
C184  C     C_R   0.693076 0.999865 0.000048 0.012681
C185  C     C_R   0.000131 0.306924 0.000026 0.012698
C186  C     C_R   0.306924 0.000134 0.000033 0.012681
C187  C     C_R   0.999981 0.573401 0.999996 0.899227
C188  C     C_R   0.999861 0.693076 0.999893 0.012709
C189  C     C_R   0.500003 0.573114 0.500011 1.016960
C190  C     C_R   0.573116 0.500010 0.500000 1.014734
C191  C     C_R   0.500041 0.426873 0.499966 1.009859
C192  C     C_R   0.426887 0.499991 0.500002 1.012805
C193  C     C_R   0.000003 0.073114 0.000011 1.017702
C194  C     C_R   0.073114 0.000004 0.999999 1.017714
C195  C     C_R   0.999995 0.926886 0.999988 1.017700
C196  C     C_R   0.926886 0.999996 0.000001 1.017700
C197  C     C_R   1.000000 0.499993 0.379903 0.880566
C198  C     C_R   0.307108 0.499835 0.500047 -0.128793
C199  C     C_R   0.500000 0.999997 0.379903 0.880914
C200  C     C_R   1.000000 0.500007 0.620097 0.880552
C201  C     C_R   0.499999 0.999997 0.620096 0.880311
C202  C     C_R   0.499998 0.999993 0.879903 0.880405
C203  C     C_R   0.000001 0.500001 0.879903 0.880501
C204  C     C_R   0.500001 0.000007 0.120097 0.880419
C205  C     C_R   0.999999 0.499999 0.120097 0.880504
C206  C     C_R   0.945488 0.543954 0.312837 -0.379675
C207  C     C_R   0.543896 0.054467 0.312841 -0.379360
C208  C     C_R   0.054481 0.455992 0.312764 -0.379740
H1    H     H_    0.939813 0.539596 0.361238 0.167110
H2    H     H_    0.039539 0.560151 0.861240 0.167170
H3    H     H_    0.560149 0.960332 0.861173 0.167162
H4    H     H_    0.960464 0.439854 0.861145 0.167130
H5    H     H_    0.560131 0.039577 0.138834 0.167137
H6    H     H_    0.960364 0.560163 0.138848 0.167117
H7    H     H_    0.439834 0.960496 0.138783 0.167135
H8    H     H_    0.039625 0.439825 0.138741 0.167146
H9    H     H_    0.119064 0.558363 0.526424 0.164968
H10   H     H_    0.558493 0.880928 0.526423 0.164878
H11   H     H_    0.880932 0.441662 0.526472 0.164903
H12   H     H_    0.539526 0.060150 0.361245 0.167554
H13   H     H_    0.440818 0.118337 0.525286 0.166126
H14   H     H_    0.880940 0.558487 0.473521 0.164864
H15   H     H_    0.441639 0.880937 0.473573 0.164953
H16   H     H_    0.119073 0.441494 0.473588 0.164781
H17   H     H_    0.558408 0.119849 0.477031 0.165962
H18   H     H_    0.619052 0.058361 0.026481 0.165065
H19   H     H_    0.058494 0.380929 0.026422 0.164889
H20   H     H_    0.380945 0.941644 0.026432 0.164957
H21   H     H_    0.941504 0.619091 0.026388 0.164959
H22   H     H_    0.380921 0.058489 0.973604 0.165082
H23   H     H_    0.060153 0.460338 0.361174 0.167159
H24   H     H_    0.941639 0.380936 0.973576 0.165030
H25   H     H_    0.619081 0.941505 0.973565 0.164924
H26   H     H_    0.058361 0.619044 0.973531 0.164935
H27   H     H_    0.105024 0.416223 0.354898 0.321382
H28   H     H_    0.416393 0.895032 0.354871 0.321463
H29   H     H_    0.894934 0.583705 0.355037 0.321418
H30   H     H_    0.583576 0.104982 0.355054 0.322446
H31   H     H_    0.895005 0.416437 0.644995 0.321433
H32   H     H_    0.583720 0.894935 0.644942 0.321423
H33   H     H_    0.104956 0.583633 0.645096 0.321448
H34   H     H_    0.460460 0.939853 0.361143 0.167106
H35   H     H_    0.416282 0.105055 0.645109 0.321276
H36   H     H_    0.605012 0.916210 0.854900 0.321461
H37   H     H_    0.916397 0.395034 0.854876 0.321502
H38   H     H_    0.394953 0.083735 0.855023 0.321555
H39   H     H_    0.083598 0.604979 0.855032 0.321437
H40   H     H_    0.395006 0.916436 0.144988 0.321452
H41   H     H_    0.083733 0.394946 0.144941 0.321437
H42   H     H_    0.604952 0.083643 0.145114 0.321532
H43   H     H_    0.916246 0.605031 0.145123 0.321486
H44   H     H_    0.262568 0.565168 0.633077 0.374165
H45   H     H_    0.060134 0.539569 0.638828 0.167162
H46   H     H_    0.565405 0.737192 0.633187 0.374095
H47   H     H_    0.737452 0.435320 0.633580 0.374217
H48   H     H_    0.411656 0.264875 0.599195 0.374626
H49   H     H_    0.737165 0.565218 0.366592 0.374063
H50   H     H_    0.434936 0.737402 0.366857 0.374093
H51   H     H_    0.262849 0.434366 0.367085 0.374021
H52   H     H_    0.553834 0.261481 0.356582 0.371292
H53   H     H_    0.762579 0.065060 0.133276 0.374136
H54   H     H_    0.065413 0.237191 0.133180 0.373985
H55   H     H_    0.237418 0.934942 0.133177 0.374061
H56   H     H_    0.460383 0.060171 0.638840 0.167045
H57   H     H_    0.934562 0.762840 0.133004 0.374040
H58   H     H_    0.237178 0.065427 0.866945 0.373960
H59   H     H_    0.934935 0.237403 0.866862 0.374071
H60   H     H_    0.762825 0.934567 0.866885 0.374037
H61   H     H_    0.065043 0.762566 0.866671 0.374060
H62   H     H_    0.371818 0.554782 0.614132 0.360245
H63   H     H_    0.554776 0.627978 0.614281 0.360359
H64   H     H_    0.628202 0.445631 0.614570 0.361338
H65   H     H_    0.427738 0.373643 0.586082 0.362906
H66   H     H_    0.627960 0.554587 0.385509 0.360211
H67   H     H_    0.939834 0.460496 0.638786 0.167147
H68   H     H_    0.445323 0.628164 0.385786 0.360270
H69   H     H_    0.372056 0.445028 0.385946 0.361266
H70   H     H_    0.549407 0.371441 0.380395 0.360468
H71   H     H_    0.871826 0.054674 0.114294 0.360176
H72   H     H_    0.054782 0.127977 0.114274 0.360117
H73   H     H_    0.128172 0.945326 0.114216 0.360157
H74   H     H_    0.945197 0.872041 0.114183 0.360136
H75   H     H_    0.127968 0.054795 0.885807 0.360076
H76   H     H_    0.945321 0.128164 0.885790 0.360145
H77   H     H_    0.872034 0.945200 0.885750 0.360138
H78   H     H_    0.539619 0.939821 0.638740 0.167175
H79   H     H_    0.054659 0.871817 0.885685 0.360161
H80   H     H_    0.176023 0.585748 0.539430 0.352170
H81   H     H_    0.585984 0.823963 0.539447 0.352197
H82   H     H_    0.823969 0.414297 0.539507 0.352252
H83   H     H_    0.412360 0.174785 0.537398 0.350070
H84   H     H_    0.823979 0.585987 0.460488 0.352209
H85   H     H_    0.414246 0.823980 0.460588 0.352180
H86   H     H_    0.176039 0.413987 0.460600 0.351722
H87   H     H_    0.585250 0.177250 0.465707 0.353021
H88   H     H_    0.676005 0.085751 0.039519 0.352355
H89   H     H_    0.439820 0.039614 0.861229 0.167105
H90   H     H_    0.085985 0.323964 0.039445 0.352176
H91   H     H_    0.323992 0.914257 0.039444 0.352214
H92   H     H_    0.914008 0.676066 0.039343 0.352191
H93   H     H_    0.323950 0.085981 0.960618 0.352342
H94   H     H_    0.914247 0.323979 0.960592 0.352277
H95   H     H_    0.676053 0.914010 0.960567 0.352187
H96   H     H_    0.085748 0.675991 0.960474 0.352230
O1    O     O_R   0.055450 0.468680 0.499980 -0.624105
O2    O     O_R   0.968680 0.444550 0.999980 -0.623850
O3    O     O_3   0.450610 0.388286 0.576051 -0.711120
O4    O     O_3   0.612689 0.547673 0.421917 -0.710575
O5    O     O_3   0.452277 0.612873 0.422162 -0.710480
O6    O     O_3   0.387328 0.452078 0.422290 -0.718375
O7    O     O_3   0.544749 0.386224 0.418302 -0.707752
O8    O     O_3   0.887119 0.047720 0.077906 -0.710915
O9    O     O_3   0.047795 0.112701 0.077897 -0.710958
O10   O     O_3   0.112879 0.952280 0.077838 -0.710938
O11   O     O_3   0.952190 0.887313 0.077822 -0.710939
O12   O     O_3   0.112694 0.047804 0.922172 -0.710995
O13   O     O_R   0.444550 0.031320 0.999980 -0.623807
O14   O     O_3   0.952276 0.112874 0.922165 -0.710928
O15   O     O_3   0.887308 0.952193 0.922121 -0.710944
O16   O     O_3   0.047710 0.887112 0.922079 -0.710934
O17   O     O_3   0.193883 0.565076 0.529822 -0.728316
O18   O     O_3   0.565350 0.806106 0.529840 -0.728301
O19   O     O_3   0.806111 0.434962 0.529876 -0.728416
O20   O     O_3   0.432891 0.192939 0.528759 -0.712188
O21   O     O_3   0.806118 0.565365 0.470123 -0.728254
O22   O     O_3   0.434911 0.806119 0.470209 -0.728424
O23   O     O_3   0.193896 0.434620 0.470213 -0.729891
O24   O     O_R   0.031320 0.555450 0.999980 -0.623911
O25   O     O_3   0.564207 0.194817 0.474581 -0.729914
O26   O     O_3   0.693870 0.065084 0.029899 -0.728265
O27   O     O_3   0.065351 0.306106 0.029839 -0.728383
O28   O     O_3   0.306128 0.934921 0.029836 -0.728415
O29   O     O_3   0.934641 0.693916 0.029713 -0.728329
O30   O     O_3   0.306096 0.065349 0.970231 -0.728236
O31   O     O_3   0.934912 0.306118 0.970212 -0.728335
O32   O     O_3   0.693906 0.934644 0.970197 -0.728327
O33   O     O_3   0.065081 0.693859 0.970075 -0.728388
O34   O     O_R   0.444550 0.968680 0.000020 -0.623947
O35   O     O_R   0.031320 0.444550 0.000020 -0.624010
O36   O     O_R   0.555450 0.031320 0.000020 -0.623805
O37   O     O_R   0.968680 0.555450 0.000020 -0.623942
O38   O     O_R   0.000010 0.468680 0.408370 -0.616169
O39   O     O_R   0.468680 0.999990 0.408370 -0.616018
O40   O     O_R   0.999990 0.531320 0.408370 -0.616107
O41   O     O_R   0.468680 0.944550 0.499980 -0.623916
O42   O     O_R   0.531320 0.000010 0.408370 -0.616040
O43   O     O_R   0.999990 0.468680 0.591630 -0.616224
O44   O     O_R   0.531320 0.999990 0.591630 -0.616325
O45   O     O_R   0.000010 0.531320 0.591630 -0.616127
O46   O     O_R   0.468680 0.000010 0.591630 -0.616175
O47   O     O_R   0.500010 0.968680 0.908370 -0.616178
O48   O     O_R   0.968680 0.499990 0.908370 -0.616085
O49   O     O_R   0.499990 0.031320 0.908370 -0.615992
O50   O     O_R   0.031320 0.500010 0.908370 -0.616205
O51   O     O_R   0.499990 0.968680 0.091630 -0.616172
O52   O     O_R   0.944550 0.531320 0.499980 -0.623969
O53   O     O_R   0.031320 0.499990 0.091630 -0.616124
O54   O     O_R   0.500010 0.031320 0.091630 -0.616000
O55   O     O_R   0.968680 0.500010 0.091630 -0.616092
O56   O     O_R   0.500050 0.555340 0.448290 -0.588883
O57   O     O_R   0.555340 0.499950 0.448290 -0.589441
O58   O     O_R   0.499950 0.444660 0.448290 -0.590361
O59   O     O_R   0.444660 0.500050 0.448290 -0.588132
O60   O     O_R   0.499950 0.555340 0.551710 -0.589118
O61   O     O_R   0.444660 0.499950 0.551710 -0.589094
O62   O     O_R   0.500050 0.444660 0.551710 -0.577572
O63   O     O_R   0.531320 0.055450 0.499980 -0.624227
O64   O     O_R   0.555340 0.500050 0.551710 -0.587930
O65   O     O_R   0.000050 0.055340 0.948290 -0.589048
O66   O     O_R   0.055340 0.999950 0.948290 -0.589191
O67   O     O_R   0.999950 0.944660 0.948290 -0.589071
O68   O     O_R   0.944660 0.000050 0.948290 -0.589163
O69   O     O_R   0.999950 0.055340 0.051710 -0.589184
O70   O     O_R   0.944660 0.999950 0.051710 -0.589048
O71   O     O_R   0.000050 0.944660 0.051710 -0.589140
O72   O     O_R   0.055340 0.000050 0.051710 -0.589059
O73   O     O_3   0.104106 0.408673 0.310912 -0.688884
O74   O     O_R   0.944550 0.468680 0.500020 -0.623901
O75   O     O_3   0.408824 0.895976 0.310899 -0.688636
O76   O     O_3   0.895854 0.591264 0.311065 -0.688596
O77   O     O_3   0.591146 0.104050 0.311078 -0.688014
O78   O     O_3   0.895945 0.408866 0.688962 -0.688556
O79   O     O_3   0.591272 0.895848 0.688924 -0.688613
O80   O     O_3   0.104022 0.591193 0.689078 -0.688653
O81   O     O_3   0.408720 0.104131 0.689086 -0.688964
O82   O     O_3   0.604094 0.908660 0.810913 -0.688594
O83   O     O_3   0.908827 0.395977 0.810905 -0.688493
O84   O     O_3   0.395877 0.091294 0.811050 -0.688234
O85   O     O_R   0.531320 0.944550 0.500020 -0.623960
O86   O     O_3   0.091159 0.604048 0.811054 -0.688620
O87   O     O_3   0.395945 0.908865 0.188955 -0.688619
O88   O     O_3   0.091285 0.395860 0.188922 -0.688710
O89   O     O_3   0.604016 0.091202 0.189097 -0.688267
O90   O     O_3   0.908688 0.604106 0.189102 -0.688566
O91   O     O_2   0.314866 0.587175 0.572945 -0.554008
O92   O     O_R   0.274723 0.543161 0.610889 -0.775167
O93   O     O_2   0.587355 0.684760 0.573152 -0.554285
O94   O     O_R   0.543395 0.725131 0.610952 -0.774503
O95   O     O_2   0.685159 0.413096 0.573632 -0.554838
O96   O     O_R   0.055450 0.531320 0.500020 -0.623873
O97   O     O_R   0.725293 0.457248 0.611219 -0.774241
O98   O     O_2   0.449606 0.315328 0.638716 -0.570214
O99   O     O_R   0.426424 0.276781 0.564297 -0.740880
O100  O     O_2   0.684734 0.587269 0.426511 -0.554293
O101  O     O_R   0.725113 0.543248 0.388925 -0.774523
O102  O     O_2   0.412867 0.685113 0.426923 -0.554234
O103  O     O_R   0.456919 0.725255 0.389094 -0.774527
O104  O     O_2   0.315268 0.412505 0.427183 -0.566451
O105  O     O_R   0.274903 0.456408 0.389253 -0.772771
O106  O     O_2   0.580417 0.312492 0.414725 -0.555076
O107  O     O_R   0.468680 0.055450 0.500020 -0.624187
O108  O     O_R   0.533346 0.274270 0.381535 -0.774049
O109  O     O_2   0.814879 0.087125 0.073209 -0.554237
O110  O     O_R   0.774729 0.043076 0.111022 -0.774583
O111  O     O_2   0.087360 0.184759 0.073142 -0.554438
O112  O     O_R   0.043401 0.225130 0.110948 -0.774658
O113  O     O_2   0.185120 0.912875 0.073084 -0.554414
O114  O     O_R   0.225268 0.956926 0.110951 -0.774604
O115  O     O_2   0.912618 0.815253 0.072992 -0.554339
O116  O     O_R   0.956575 0.774897 0.110782 -0.774655
O117  O     O_2   0.184755 0.087370 0.926989 -0.554458
O118  O     O_R   0.555450 0.968680 0.999980 -0.623995
O119  O     O_R   0.225119 0.043414 0.889157 -0.774729
O120  O     O_2   0.912866 0.185114 0.926930 -0.554273
O121  O     O_R   0.956918 0.225255 0.889097 -0.774714
O122  O     O_2   0.815247 0.912625 0.926898 -0.554343
O123  O     O_R   0.774884 0.956580 0.889123 -0.774645
O124  O     O_2   0.087113 0.814874 0.926757 -0.554413
O125  O     O_R   0.043060 0.774718 0.888921 -0.774605
O126  O     O_3   0.387114 0.547786 0.577768 -0.710357
O127  O     O_3   0.547791 0.612702 0.577902 -0.710785
O128  O     O_3   0.612910 0.452480 0.578138 -0.709224
Zn1   Zn    Zn3+2 0.000000 0.458180 0.500000 0.993227
Zn2   Zn    Zn3+2 0.500000 0.500000 0.569090 1.124690
Zn3   Zn    Zn3+2 0.000000 1.000000 0.930910 1.113947
Zn4   Zn    Zn3+2 1.000000 0.000000 0.069090 1.113990
Zn5   Zn    Zn3+2 0.458180 0.000000 0.500000 0.993215
Zn6   Zn    Zn3+2 1.000000 0.541820 0.500000 0.993543
Zn7   Zn    Zn3+2 0.541820 0.000000 0.500000 0.993352
Zn8   Zn    Zn3+2 0.500000 0.958180 0.000000 0.993598
Zn9   Zn    Zn3+2 0.958180 0.500000 0.000000 0.993810
Zn10  Zn    Zn3+2 0.500000 0.041820 0.000000 0.994515
Zn11  Zn    Zn3+2 0.041820 0.500000 0.000000 0.993572
Zn12  Zn    Zn3+2 0.500000 0.500000 0.430910 1.113797

loop_
_geom_bond_atom_site_label_1
_geom_bond_atom_site_label_2
_ccdc_geom_bond_type
C82   O3    S    
C92   O12   S    
H29   O76   S    
C8    C26   A    
O36   Zn10  S    
C98   C190  S    
H65   O3    S    
C150  C185  A    
H66   O4    S    
C151  C184  A    
C21   O80   S    
C165  O2    A    
C145  C184  A    
C176  O13   A    
C49   C60   A    
C124  C133  T    
C23   O78   S    
C127  C180  S    
C17   C206  A    
C147  C164  A    
C85   C96   A    
H30   O77   S    
C9    C39   A    
C74   C92   A    
C2    C90   S    
C165  O35   A    
C77   C122  S    
C76   C94   A    
C143  O107  A    
O85   Zn7   S    
C40   C43   A    
C80   O127  S    
C78   C96   A    
C24   C69   A    
H49   O101  S    
O52   Zn6   S    
C142  O23   S    
C12   C30   A    
H64   O128  S    
C25   O79   S    
C46   C75   A    
C149  C186  A    
C33   O88   S    
O35   Zn11  S    
C29   O83   S    
C163  H19   S    
C100  C196  S    
H55   O114  S    
O96   Zn6   S    
C156  C173  A    
C67   C85   A    
C159  C172  A    
C15   C32   A    
C15   H7    S    
C113  C130  T    
H32   O79   S    
C1    C171  S    
O38   Zn1   S    
C42   C45   A    
C93   C102  A    
C42   C55   A    
C168  H24   S    
C152  C170  A    
O45   Zn6   S    
C13   C63   A    
C40   C55   A    
C150  C168  A    
C207  H12   S    
C66   C110  S    
C86   C99   A    
O51   Zn8   S    
C62   C106  S    
C160  H16   S    
C116  O112  S    
C166  H21   S    
O71   Zn4   S    
C50   C59   A    
C75   C93   A    
H91   O28   S    
C79   C127  T    
H86   O23   S    
C91   O11   S    
C137  O18   S    
H79   O16   S    
C203  O50   A    
C128  C181  S    
H82   O19   S    
C88   C102  A    
C85   O6    S    
C56   C201  S    
C70   C115  S    
C148  C188  A    
H63   O127  S    
H75   O12   S    
O72   Zn4   S    
O58   Zn12  S    
C7    H78   S    
C136  C153  A    
C38   C53   A    
C196  O68   A    
O43   Zn1   S    
C88   O9    S    
C104  C195  S    
H88   O26   S    
C141  C181  A    
C138  C182  A    
C71   C88   A    
C167  C178  A    
C139  O20   S    
C139  C157  A    
C30   O89   S    
C8    C40   A    
C117  O113  D    
C193  O65   A    
O67   Zn3   S    
C109  O101  S    
C161  C174  A    
O34   Zn8   S    
C80   C97   A    
C105  O91   D    
C165  C177  S    
C134  C186  S    
C146  C185  A    
C14   C31   A    
C67   C198  A    
C31   O90   S    
H61   O125  S    
C14   H6    S    
C199  O42   A    
C169  H25   S    
C23   C29   A    
C62   C80   A    
C130  C183  S    
C22   O81   S    
C57   C125  S    
H94   O31   S    
O47   Zn8   S    
C109  O100  D    
C137  C181  A    
C54   C203  S    
H51   O105  S    
C26   O84   S    
C137  C155  A    
C106  O93   D    
C140  C158  A    
C141  C159  A    
C142  C180  A    
H58   O119  S    
C83   C98   A    
C146  O27   S    
C36   C53   A    
C103  C194  S    
C112  O85   A    
C153  H9    S    
O69   Zn4   S    
C133  C185  S    
C157  C174  A    
C176  C178  S    
C79   C198  S    
C89   C103  A    
C157  H13   S    
C148  O29   S    
C70   C87   A    
C84   O5    S    
C162  H18   S    
C3    C50   A    
H46   O94   S    
C64   C108  S    
O1    Zn1   S    
C147  C186  A    
C86   O7    S    
C68   C77   A    
C35   C76   A    
C6    C47   A    
C52   C205  S    
C45   C56   A    
C19   C33   A    
C78   O126  S    
C37   C52   A    
C154  O118  A    
C162  C175  A    
H28   O75   S    
C196  O70   A    
C1    O1    A    
H44   O92   S    
C140  C182  A    
H42   O89   S    
C18   C207  A    
O41   Zn5   S    
C149  O30   S    
O50   Zn11  S    
C11   H4    S    
O40   Zn6   S    
C94   C100  A    
C9    H2    S    
C41   C47   A    
C147  O28   S    
C136  O17   S    
C49   C206  A    
C118  O116  S    
C115  O109  D    
O65   Zn3   S    
C18   O77   S    
C204  O54   A    
C19   C208  A    
C107  O97   S    
H73   O10   S    
C164  C178  A    
H84   O21   S    
C48   C59   A    
O64   Zn2   S    
C87   C100  A    
C20   C32   A    
C34   C49   A    
C73   C118  S    
O48   Zn9   S    
C75   C120  S    
C2    C66   A    
O44   Zn7   S    
C14   C34   A    
H54   O112  S    
C152  O33   S    
C187  O37   A    
C39   C44   A    
C151  C169  A    
C170  C179  A    
C108  O99   S    
C96   C192  S    
H31   O78   S    
C35   C123  S    
C191  O58   A    
C83   O4    S    
C199  O39   A    
C200  O45   A    
O13   Zn10  S    
C71   C116  S    
C36   C48   A    
C5    C43   A    
O42   Zn7   S    
H53   O110  S    
C154  O36   A    
C51   C60   A    
C93   O14   S    
O2    Zn9   S    
C63   C107  S    
C201  O44   A    
H80   O17   S    
C101  C129  T    
C125  C134  T    
O74   Zn1   S    
C129  C182  S    
C68   C126  S    
C144  C161  A    
C10   C42   A    
C148  C166  A    
C82   C99   A    
C149  C167  A    
C152  C188  A    
C46   C124  S    
C139  C183  A    
C25   C28   A    
H90   O27   S    
O54   Zn10  S    
C84   C97   A    
H95   O32   S    
H92   O29   S    
C121  O123  S    
C122  O124  D    
C179  C187  S    
C81   C98   A    
O62   Zn2   S    
C168  C177  A    
C119  O119  S    
C190  O64   A    
H96   O33   S    
C120  O120  D    
C16   H8    S    
C193  O69   A    
C27   O86   S    
C195  O71   A    
C155  C172  A    
C44   C58   A    
C110  O102  D    
C163  C177  A    
H93   O30   S    
C122  O125  S    
H74   O11   S    
C16   C37   A    
C21   C27   A    
C144  C183  A    
C24   C64   A    
C190  O57   A    
C138  O19   S    
C95   O16   S    
H47   O97   S    
C150  O31   S    
C28   O82   S    
O56   Zn12  S    
O118  Zn8   S    
H35   O81   S    
C189  O60   A    
C4    C44   A    
O59   Zn12  S    
C3    H34   S    
H57   O116  S    
C112  O41   A    
H48   O99   S    
H87   O25   S    
C151  O32   S    
C111  O105  S    
C158  C173  A    
C187  O24   A    
H40   O87   S    
C169  C175  A    
C3    C20   A    
C65   C109  S    
C46   C71   A    
C60   C197  S    
C67   C111  S    
C63   C81   A    
C203  O48   A    
H59   O121  S    
C17   C31   A    
C120  O121  S    
C102  C193  S    
C7    C45   A    
C9    C27   A    
C167  H22   S    
C10   C28   A    
C87   O8    S    
C20   O75   S    
C123  C131  T    
C61   C198  A    
O39   Zn5   S    
C119  O117  D    
C34   C52   A    
C7    C25   A    
C99   C191  S    
H43   O90   S    
C112  C172  S    
C48   C207  A    
C114  O108  S    
C160  C171  A    
C106  O94   S    
C156  H11   S    
C108  O98   D    
C132  O52   A    
C57   C72   A    
H27   O73   S    
C208  H23   S    
C39   C54   A    
C81   O128  S    
C10   H3    S    
C8    H89   S    
C116  O111  D    
C22   C26   A    
C94   O15   S    
C194  O66   A    
C143  C174  S    
H50   O103  S    
O70   Zn4   S    
H77   O15   S    
C72   C89   A    
C17   O76   S    
O55   Zn9   S    
C91   C104  A    
C191  O62   A    
O24   Zn11  S    
C13   C65   A    
C74   C119  S    
C170  H26   S    
C58   C200  S    
C154  C175  S    
C155  H10   S    
C76   C121  S    
H83   O20   S    
O57   Zn12  S    
C176  O34   A    
H69   O6    S    
C37   C51   A    
C65   C83   A    
H39   O86   S    
C145  C162  A    
C107  O95   D    
C131  C184  S    
C19   O73   S    
C92   C103  A    
O61   Zn2   S    
C197  O38   A    
C35   C70   A    
C59   C199  S    
H72   O9    S    
C72   C117  S    
C5    H56   S    
C140  O21   S    
C18   C30   A    
O46   Zn5   S    
C117  O114  S    
C12   C36   A    
C89   O10   S    
C205  O53   A    
C24   C113  S    
C158  H14   S    
C1    O96   A    
H85   O22   S    
C105  O92   S    
C4    H45   S    
H81   O18   S    
H60   O123  S    
C161  H17   S    
O37   Zn9   S    
O49   Zn10  S    
C41   C54   A    
C69   C114  S    
C53   C204  S    
C141  O22   S    
C5    C22   A    
C73   C91   A    
C195  O67   A    
C51   C208  A    
C68   C73   A    
C55   C202  S    
C77   C95   A    
C12   H5    S    
H71   O8    S    
C57   C74   A    
C15   C38   A    
C16   C33   A    
C32   O87   S    
C61   C78   A    
C111  O104  D    
C153  C171  A    
O63   Zn7   S    
O60   Zn2   S    
C164  H20   S    
C194  O72   A    
C6    H67   S    
C64   C82   A    
C201  O46   A    
H52   O108  S    
C110  O103  S    
C202  O49   A    
H41   O88   S    
H37   O83   S    
H38   O84   S    
C13   C101  S    
C144  O25   S    
C143  O63   A    
C135  C188  S    
C189  O56   A    
H36   O82   S    
C95   C104  A    
C138  C156  A    
C200  O43   A    
C114  O106  D    
C142  C160  A    
H68   O5    S    
C126  C135  T    
O107  Zn5   S    
C192  O61   A    
H70   O7    S    
C38   C50   A    
C146  C163  A    
C136  C180  A    
C121  O122  D    
C132  O74   A    
H62   O126  S    
C47   C58   A    
C4    C21   A    
C206  H1    S    
C197  O40   A    
C159  H15   S    
C6    C23   A    
C97   C189  S    
C61   C105  S    
C11   C41   A    
C132  C173  S    
C145  O26   S    
C118  O115  D    
C205  O55   A    
C115  O110  S    
C66   C84   A    
C43   C56   A    
C11   C29   A    
C192  O59   A    
O66   Zn3   S    
O68   Zn3   S    
H33   O80   S    
C90   C128  T    
C166  C179  A    
O53   Zn11  S    
C202  O47   A    
C69   C86   A    
C2    C62   A    
C204  O51   A    
H76   O14   S    
