data_mof_unit_67600.cif
_audit_creation_date              2013-03-05T16:07:04-0500
_audit_creation_method            fapswitch 2.2
_symmetry_space_group_name_H-M    P1
_symmetry_Int_Tables_number       1
_space_group_crystal_system       triclinic
_cell_length_a                    10.832932
_cell_length_b                    9.693824
_cell_length_c                    9.19868
_cell_angle_alpha                 88.284685
_cell_angle_beta                  96.660271
_cell_angle_gamma                 85.101322
_cell_volume                      955.178126851

loop_
_atom_site_label
_atom_site_type_symbol
_atom_site_description
_atom_site_fract_x
_atom_site_fract_y
_atom_site_fract_z
_atom_type_partial_charge
O1    O     O_R   0.319640 0.618740 0.499990 -0.545765
O2    O     O_R   0.680360 0.381260 0.500010 -0.545647
O3    O     O_R   0.680360 0.618740 0.500010 -0.583942
O4    O     O_R   0.319640 0.381260 0.499990 -0.583828
C1    C     C_R   0.263487 0.503663 0.513677 0.870345
C2    C     C_R   0.736519 0.496344 0.486338 0.870322
O5    O     O_R   0.500000 0.618760 0.288390 -0.592415
O6    O     O_R   0.500000 0.381240 0.711610 -0.592477
O7    O     O_R   0.500000 0.618760 0.711610 -0.578205
O8    O     O_R   0.500000 0.381240 0.288390 -0.578140
C3    C     C_R   0.499436 0.501297 0.220795 0.842424
C4    C     C_R   0.500568 0.498704 0.779205 0.842378
Cu1   Cu    Cu3+1 0.500000 0.640660 0.500000 0.950750
Cu2   Cu    Cu3+1 0.500000 0.359340 0.500000 0.950879
C5    C     C_1   0.499870 0.501677 0.065332 -0.196319
C6    C     C_1   0.500141 0.498331 0.934669 -0.196341
C7    C     C_R   0.077386 0.383507 0.563056 0.147124
C8    C     C_R   0.922632 0.616564 0.437056 0.147068
C9    C     C_R   0.951102 0.372203 0.513504 0.152906
C10   C     C_R   0.048923 0.627869 0.486637 0.152908
C11   C     C_R   0.871191 0.492194 0.470771 -0.180650
C12   C     C_R   0.128830 0.507854 0.529311 -0.180700
C13   C     C_R   0.426838 0.084709 0.393412 0.030287
C14   C     C_R   0.573162 0.915294 0.606578 0.029993
C15   C     C_R   0.572390 0.063263 0.606955 0.012513
C16   C     C_R   0.427603 0.936739 0.393047 0.012415
N1    N     N_R   0.500000 0.852070 0.500000 -0.208504
N2    N     N_R   0.500000 0.147930 0.500000 -0.208374
N3    N     N_2   0.132412 0.301643 0.690281 -0.432162
H1    H     H_    0.069440 0.292459 0.764930 0.246762
C17   C     C_3   0.205291 0.170584 0.677096 -0.726306
H2    H     H_    0.158885 0.103360 0.597296 0.198636
H3    H     H_    0.218336 0.111920 0.784150 0.216349
H4    H     H_    0.299590 0.186767 0.650137 0.277269
N4    N     N_2   0.867621 0.698420 0.309810 -0.432038
H5    H     H_    0.930609 0.707612 0.235173 0.246805
C18   C     C_3   0.794685 0.829467 0.322913 -0.726316
H6    H     H_    0.841292 0.897012 0.402246 0.198442
H7    H     H_    0.700570 0.813306 0.350547 0.277343
H8    H     H_    0.781156 0.887795 0.215624 0.216481
N5    N     N_2   0.907084 0.238956 0.498898 -0.400151
H9    H     H_    0.964592 0.159305 0.552144 0.251150
C19   C     C_3   0.859381 0.203297 0.352316 -0.708313
H10   H     H_    0.929681 0.131830 0.306940 0.196701
H11   H     H_    0.836302 0.296067 0.277045 0.219994
H12   H     H_    0.773085 0.150186 0.357024 0.243626
N6    N     N_2   0.092964 0.761118 0.501247 -0.400210
H13   H     H_    0.035412 0.840855 0.448216 0.251054
C20   C     C_3   0.141148 0.796644 0.647737 -0.707745
H14   H     H_    0.071250 0.868540 0.693279 0.196547
H15   H     H_    0.227687 0.849275 0.642761 0.243892
H16   H     H_    0.163948 0.703862 0.723040 0.219808
C21   C     C_R   0.346576 0.168809 0.273417 0.182336
C22   C     C_R   0.224398 0.221418 0.290631 -0.117025
C23   C     C_R   0.152309 0.305657 0.181611 -0.173850
C24   C     C_R   0.198556 0.331221 0.049643 -0.118546
C25   C     C_R   0.312975 0.265043 0.023617 -0.132443
C26   C     C_R   0.386177 0.182213 0.134184 -0.132258
H17   H     H_    0.185269 0.200153 0.389312 0.146859
H18   H     H_    0.061205 0.351903 0.200074 0.130599
H19   H     H_    0.145144 0.401394 0.967638 0.129179
H20   H     H_    0.345946 0.281738 0.918949 0.159537
H21   H     H_    0.475625 0.133103 0.114357 0.100153
C27   C     C_R   0.653472 0.831194 0.726515 0.182388
C28   C     C_R   0.613913 0.817718 0.865759 -0.132161
C29   C     C_R   0.687176 0.734908 0.976286 -0.132683
C30   C     C_R   0.801639 0.668858 0.950221 -0.118620
C31   C     C_R   0.847834 0.694495 0.818230 -0.173660
C32   C     C_R   0.775666 0.778697 0.709234 -0.117024
H22   H     H_    0.524449 0.866757 0.885627 0.100168
H23   H     H_    0.654223 0.718158 0.080957 0.159579
H24   H     H_    0.855125 0.598732 0.032219 0.129136
H25   H     H_    0.938959 0.648339 0.799733 0.130614
H26   H     H_    0.814741 0.800059 0.610518 0.146862
C33   C     C_R   0.657833 0.120377 0.723067 0.181966
C34   C     C_R   0.786222 0.097307 0.717224 -0.114231
C35   C     C_R   0.871984 0.124803 0.835693 -0.148918
C36   C     C_R   0.829742 0.175598 0.962697 -0.131973
C37   C     C_R   0.701970 0.189221 0.974728 -0.162544
C38   C     C_R   0.616951 0.155744 0.857320 -0.119931
H27   H     H_    0.818542 0.045867 0.624663 0.108669
H28   H     H_    0.970828 0.102109 0.830830 0.130121
H29   H     H_    0.896535 0.198921 0.052962 0.128159
H30   H     H_    0.669294 0.222082 0.075956 0.139332
H31   H     H_    0.519369 0.155828 0.870130 0.110445
C39   C     C_R   0.342159 0.879626 0.276936 0.181967
C40   C     C_R   0.383054 0.844223 0.142698 -0.119846
C41   C     C_R   0.298037 0.810727 0.025296 -0.162578
C42   C     C_R   0.170260 0.824355 0.037318 -0.132070
C43   C     C_R   0.128007 0.875181 0.164302 -0.148893
C44   C     C_R   0.213763 0.902712 0.282764 -0.114264
H32   H     H_    0.480647 0.844103 0.129894 0.110533
H33   H     H_    0.330722 0.777840 0.924085 0.139309
H34   H     H_    0.103469 0.801006 0.947056 0.128127
H35   H     H_    0.029161 0.897892 0.169150 0.130236
H36   H     H_    0.181428 0.954188 0.375297 0.108622

loop_
_geom_bond_atom_site_label_1
_geom_bond_atom_site_label_2
_geom_bond_distance
_ccdc_geom_bond_type
C23   C24   1.389352 A    
C8    C11   1.411634 A    
C7    N3    1.434041 S    
N5    H9    1.024021 S    
N4    H5    1.029698 S    
C14   N1    1.379715 A    
C19   H10   1.111340 S    
O3    C2    1.302713 A    
C43   C44   1.395208 A    
C43   H35   1.080952 S    
N6    C20   1.449889 S    
C21   C22   1.405384 A    
C15   N2    1.385386 A    
O5    C3    1.313732 A    
C16   N1    1.385419 A    
C38   H31   1.077081 S    
O1    C1    1.324973 A    
C9    C11   1.406625 A    
C18   H8    1.110886 S    
C39   C44   1.397299 A    
C37   H30   1.081108 S    
C5    C6    1.203670 T    
C24   C25   1.395505 A    
C30   H24   1.080464 S    
C13   C16   1.433823 A    
C42   H34   1.078884 S    
O7    Cu1   1.951747 S    
C44   H36   1.077471 S    
C22   C23   1.393835 A    
C3    C5    1.430505 S    
C36   H29   1.078852 S    
C1    C12   1.479568 S    
C4    C6    1.430505 S    
C31   C32   1.393872 A    
C20   H15   1.109721 S    
C17   H3    1.110665 S    
N3    H1    1.029651 S    
C33   C38   1.401803 A    
O3    Cu1   1.947215 S    
C16   C39   1.482442 S    
C23   H18   1.082456 S    
C29   C30   1.395533 A    
C14   C27   1.497023 S    
C40   H32   1.077155 S    
N5    C19   1.449623 S    
O2    C2    1.325055 A    
C19   H12   1.109558 S    
C13   C21   1.497136 S    
C22   H17   1.067299 S    
C30   C31   1.389407 A    
N6    H13   1.024061 S    
C25   H20   1.077533 S    
C14   C15   1.433805 A    
O8    Cu2   1.951749 S    
C39   C40   1.401825 A    
C31   H25   1.082450 S    
C35   C36   1.391639 A    
C2    C11   1.479616 S    
C15   C33   1.482452 S    
C28   H22   1.079924 S    
C33   C34   1.397232 A    
C18   H6    1.102627 S    
C29   H23   1.077554 S    
O6    C4    1.313746 A    
C20   H16   1.111237 S    
C17   H4    1.101558 S    
C32   H26   1.067470 S    
C13   N2    1.379753 A    
C34   C35   1.395204 A    
C19   H11   1.111219 S    
C10   C12   1.406682 A    
C20   H14   1.111544 S    
O1    Cu1   1.983295 S    
C8    N4    1.434106 S    
C26   H21   1.079924 S    
C41   H33   1.081082 S    
O6    Cu2   1.964381 S    
N4    C18   1.453420 S    
C36   C37   1.396680 A    
C17   H2    1.102363 S    
O4    C1    1.302772 A    
C34   H27   1.077467 S    
C21   C26   1.402953 A    
C27   C32   1.405374 A    
C7    C12   1.411511 A    
C27   C28   1.402927 A    
N3    C17   1.453354 S    
C25   C26   1.401164 A    
C35   H28   1.080929 S    
C7    C9    1.405426 A    
C8    C10   1.405550 A    
O4    Cu2   1.947215 S    
O2    Cu2   1.983295 S    
O7    C4    1.302178 A    
C10   N6    1.419478 S    
O8    C3    1.302190 A    
C37   C38   1.400459 A    
O5    Cu1   1.964383 S    
C41   C42   1.396728 A    
C40   C41   1.400455 A    
C18   H7    1.101655 S    
C28   C29   1.401117 A    
C24   H19   1.080450 S    
Cu1   N1    2.049371 S    
Cu2   N2    2.049372 S    
C42   C43   1.391636 A    
Cu1   Cu2   2.727067 S    
C9    N5    1.419354 S    
