data_mof_unit_29477.cif
_audit_creation_date              2012-12-10T18:32:55-0500
_audit_creation_method            fapswitch 2.2
_symmetry_space_group_name_H-M    P1
_symmetry_Int_Tables_number       1
_space_group_crystal_system       triclinic
_cell_length_a                    14.912904
_cell_length_b                    15.394086
_cell_length_c                    15.712733
_cell_angle_alpha                 90.512553
_cell_angle_beta                  103.994527
_cell_angle_gamma                 81.735792
_cell_volume                      3462.51719759

loop_
_atom_site_label
_atom_site_type_symbol
_atom_type_description
_atom_site_fract_x
_atom_site_fract_y
_atom_site_fract_z
_atom_type_partial_charge
C1    C     C_R   0.442086 0.663111 0.488099 0.868904
C2    C     C_R   0.593451 0.245634 0.543656 -0.345729
C3    C     C_R   0.282820 0.880256 0.459628 -0.180051
C4    C     C_R   0.500560 0.500285 0.661465 0.889059
C5    C     C_R   0.315118 0.791432 0.454464 -0.283485
C6    C     C_R   0.472688 0.816126 0.525702 0.478188
C7    C     C_R   0.439315 0.904457 0.538473 -0.037513
C8    C     C_R   0.344322 0.937254 0.500231 0.036824
C9    C     C_R   0.500221 0.963376 0.579226 -0.002244
C10   C     C_R   0.473116 0.053164 0.558087 -0.056677
C11   C     C_R   0.376286 0.085609 0.530038 0.541786
C12   C     C_3   0.423111 0.564009 0.032576 -0.594103
C13   C     C_R   0.312755 0.027145 0.500974 -0.330782
C14   C     C_R   0.586791 0.936726 0.639775 -0.123753
C15   C     C_R   0.650224 0.995771 0.666344 -0.207273
C16   C     C_R   0.558627 0.337451 0.515231 0.933495
C17   C     C_R   0.631082 0.080102 0.628142 0.021849
C18   C     C_R   0.543666 0.107236 0.569356 -0.041546
C19   C     C_R   0.697786 0.137428 0.646971 -0.321307
C20   C     C_R   0.678619 0.221242 0.606803 0.469054
C21   C     C_R   0.531745 0.184211 0.518544 0.457789
C22   C     C_R   0.846751 0.616718 0.652203 -0.262569
C23   C     C_3   0.502188 0.491491 0.082876 -0.028662
C24   C     C_R   0.754433 0.605345 0.618083 -0.082742
C25   C     C_R   0.796653 0.510474 0.509695 0.640509
C26   C     C_R   0.893350 0.512517 0.547358 -0.163770
C27   C     C_R   0.917321 0.570099 0.617676 -0.062069
C28   C     C_R   0.499586 0.498872 0.338406 0.876625
C29   C     C_R   0.966143 0.461364 0.517009 -0.078981
C30   C     C_R   0.057828 0.483216 0.542140 -0.077888
C31   C     C_R   0.081828 0.533548 0.618215 0.465875
C32   C     C_R   0.011348 0.578711 0.654299 0.338704
C33   C     C_R   0.952238 0.385592 0.467209 -0.243116
C34   C     C_3   0.473243 0.403606 0.039565 0.229002
C35   C     C_R   0.022885 0.340244 0.432927 0.569838
C36   C     C_R   0.106142 0.375242 0.440403 -0.117317
C37   C     C_R   0.123534 0.448624 0.493552 -0.154162
C38   C     C_R   0.171656 0.338742 0.394785 -0.326882
C39   C     C_R   0.252843 0.376001 0.400617 0.614193
C40   C     C_3   0.424418 0.566153 0.934075 0.262271
C41   C     C_R   0.202692 0.488721 0.490190 0.541713
C42   C     C_3   0.600591 0.511834 0.972853 0.294846
C43   C     C_3   0.598999 0.518217 0.072428 0.840160
C44   C     C_1   0.499178 0.494923 0.249303 -0.196488
C45   C     C_3   0.481593 0.402253 0.942680 0.280218
C46   C     C_3   0.503069 0.493762 0.917464 -0.064090
C47   C     C_3   0.467895 0.259633 0.083015 0.149261
C48   C     C_3   0.529667 0.175610 0.123117 -0.854016
C49   C     C_3   0.495445 0.170899 0.370833 -0.254382
C50   C     C_3   0.812288 0.265717 0.591562 -0.278918
C51   C     C_3   0.600601 0.806278 0.469430 -0.294673
C52   C     C_3   0.354749 0.705615 0.877836 -0.286973
C53   C     C_3   0.347636 0.191947 0.624965 0.063664
C54   C     C_3   0.310099 0.287804 0.632975 -0.797516
C55   C     C_3   0.058313 0.706369 0.710754 0.111802
C56   C     C_1   0.499946 0.492144 0.174059 0.071799
C57   C     C_3   0.073773 0.760370 0.793127 -0.867783
C58   C     C_3   0.147177 0.631535 0.451567 0.106028
C59   C     C_3   0.121194 0.718736 0.492286 -0.860913
C60   C     C_3   0.287496 0.355440 0.268241 -0.322054
C61   C     C_3   0.029232 0.193070 0.443608 -0.370881
C62   C     C_3   0.764631 0.524846 0.362051 -0.299884
C63   C     C_3   0.733291 0.478730 0.916240 -0.269923
C64   C     C_3   0.199810 0.472142 0.731286 -0.309706
C65   C     C_3   0.681244 0.641236 0.111265 0.160524
C66   C     C_3   0.663923 0.740192 0.095708 -0.885459
C67   C     C_1   0.502238 0.496710 0.825776 0.041874
C68   C     C_3   0.693987 0.382049 0.139253 -0.181828
C69   C     C_3   0.519793 0.281901 0.858783 0.136483
C70   C     C_3   0.601349 0.218421 0.842096 -0.788502
C71   C     C_1   0.501982 0.499033 0.750489 -0.181124
C72   C     C_R   0.409025 0.758012 0.489108 -0.163022
H1    H     H_    0.429497 0.629777 0.061386 0.274427
H2    H     H_    0.862643 0.659957 0.706842 0.196154
H3    H     H_    0.700546 0.637149 0.647914 0.182486
H4    H     H_    0.888828 0.357044 0.458027 0.199964
H5    H     H_    0.160890 0.281261 0.355492 0.216923
H6    H     H_    0.609825 0.577909 0.949948 0.118440
H7    H     H_    0.411017 0.393318 0.901469 -0.046903
H8    H     H_    0.397190 0.406556 0.037504 0.027999
H9    H     H_    0.433446 0.247375 0.013764 0.127283
H10   H     H_    0.413588 0.276818 0.120342 0.111042
H11   H     H_    0.564499 0.185824 0.192635 0.243281
H12   H     H_    0.356300 0.549058 0.894649 0.088064
H13   H     H_    0.486662 0.122001 0.120536 0.200367
H14   H     H_    0.583736 0.156224 0.086023 0.264768
H15   H     H_    0.524756 0.099856 0.377597 0.128364
H16   H     H_    0.548972 0.210868 0.361302 0.133976
H17   H     H_    0.437317 0.179771 0.310909 0.199489
H18   H     H_    0.858855 0.316292 0.611128 0.185031
H19   H     H_    0.784869 0.271468 0.519004 0.169099
H20   H     H_    0.855147 0.200384 0.610694 0.137007
H21   H     H_    0.592456 0.878200 0.456107 0.158632
H22   H     H_    0.564691 0.773298 0.410184 0.156849
H23   H     H_    0.353243 0.551057 0.038489 0.142546
H24   H     H_    0.676199 0.780518 0.482837 0.182302
H25   H     H_    0.311343 0.711080 0.926665 0.152835
H26   H     H_    0.315466 0.682013 0.814511 0.179425
H27   H     H_    0.369671 0.772299 0.865613 0.184439
H28   H     H_    0.421198 0.180438 0.664663 0.128959
H29   H     H_    0.305244 0.151019 0.652876 0.123358
H30   H     H_    0.234735 0.300601 0.599664 0.246758
H31   H     H_    0.319188 0.303460 0.703353 0.172491
H32   H     H_    0.348779 0.330338 0.602919 0.285351
H33   H     H_    0.000884 0.743827 0.659714 0.121247
H34   H     H_    0.239316 0.052503 0.476667 0.158361
H35   H     H_    0.124130 0.697411 0.688165 0.191825
H36   H     H_    0.130737 0.724819 0.845441 0.252709
H37   H     H_    0.093520 0.824488 0.778599 0.204747
H38   H     H_    0.008701 0.772318 0.816681 0.255960
H39   H     H_    0.080269 0.606804 0.420883 0.105444
H40   H     H_    0.181589 0.641734 0.397999 0.125885
H41   H     H_    0.183301 0.739265 0.538002 0.279798
H42   H     H_    0.091462 0.770110 0.439944 0.201779
H43   H     H_    0.067669 0.712114 0.529026 0.216585
H44   H     H_    0.346614 0.336775 0.237317 0.181536
H45   H     H_    0.715976 0.974055 0.713071 0.141425
H46   H     H_    0.261912 0.426506 0.252544 0.143071
H47   H     H_    0.232126 0.315205 0.238957 0.144137
H48   H     H_    0.103800 0.185618 0.480814 0.180917
H49   H     H_    0.019104 0.132865 0.405302 0.196517
H50   H     H_    0.982656 0.197667 0.489676 0.149695
H51   H     H_    0.836558 0.534573 0.359998 0.149334
H52   H     H_    0.720934 0.589516 0.364413 0.157149
H53   H     H_    0.733489 0.493924 0.300163 0.236674
H54   H     H_    0.772623 0.526486 0.957281 0.137754
H55   H     H_    0.694715 0.509317 0.851475 0.166597
H56   H     H_    0.210063 0.904671 0.430330 0.145017
H57   H     H_    0.784780 0.423394 0.904227 0.201201
H58   H     H_    0.177858 0.407346 0.711114 0.138920
H59   H     H_    0.170252 0.496869 0.786866 0.192168
H60   H     H_    0.277012 0.461859 0.755123 0.176466
H61   H     H_    0.726987 0.611988 0.069015 0.134342
H62   H     H_    0.718216 0.626773 0.181155 0.165171
H63   H     H_    0.620377 0.771744 0.138861 0.260426
H64   H     H_    0.731529 0.766276 0.110536 0.205033
H65   H     H_    0.627186 0.756374 0.026110 0.271326
H66   H     H_    0.673505 0.349003 0.076410 0.275866
H67   H     H_    0.267376 0.749393 0.420353 0.181676
H68   H     H_    0.659329 0.362888 0.189713 0.199122
H69   H     H_    0.769502 0.358419 0.165230 0.169022
H70   H     H_    0.488184 0.322923 0.798137 0.126888
H71   H     H_    0.467025 0.243349 0.872465 0.107605
H72   H     H_    0.634361 0.175758 0.901217 0.248961
H73   H     H_    0.576185 0.176523 0.786015 0.196003
H74   H     H_    0.654101 0.255520 0.826198 0.275151
H75   H     H_    0.604917 0.871336 0.669097 0.186845
H76   H     H_    0.763431 0.118476 0.694828 0.168454
N1    N     N_R   0.731690 0.552720 0.548990 -0.130972
N2    N     N_R   0.268300 0.447240 0.450950 -0.215258
O1    O     O_R   0.383120 0.605620 0.475300 -0.592560
O2    O     O_3   0.459916 0.199232 0.443389 -0.503652
O3    O     O_3   0.739442 0.281156 0.635090 -0.577933
O4    O     O_3   0.567994 0.787831 0.543622 -0.619619
O5    O     O_3   0.440304 0.650185 0.909505 -0.569176
O6    O     O_3   0.341863 0.173324 0.535687 -0.554704
O7    O     O_3   0.034982 0.624609 0.730812 -0.609045
O8    O     O_3   0.209035 0.573804 0.516586 -0.532618
O9    O     O_3   0.320073 0.338399 0.359348 -0.505598
O10   O     O_3   0.006297 0.266088 0.384865 -0.610017
O11   O     O_3   0.765520 0.468482 0.432657 -0.617104
O12   O     O_R   0.531890 0.639510 0.506740 -0.570998
O13   O     O_3   0.672751 0.445483 0.960093 -0.567215
O14   O     O_3   0.174535 0.534225 0.660992 -0.551532
O15   O     O_3   0.594171 0.609374 0.093404 -0.644551
O16   O     O_3   0.682747 0.473914 0.130589 -0.674899
O17   O     O_3   0.552425 0.333725 0.931382 -0.518646
O18   O     O_R   0.425580 0.483050 0.607130 -0.600270
O19   O     O_R   0.574360 0.516930 0.638570 -0.619156
O20   O     O_R   0.468110 0.360490 0.493260 -0.532475
O21   O     O_R   0.616880 0.394380 0.524700 -0.558337
O22   O     O_R   0.425640 0.483070 0.361430 -0.601275
O23   O     O_R   0.574420 0.516950 0.392870 -0.579611
O24   O     O_3   0.523392 0.327516 0.088568 -0.602415
Zn1   Zn    Zn3+2 0.400660 0.477370 0.479010 1.016887
Zn2   Zn    Zn3+2 0.599340 0.522630 0.520990 1.005147

loop_
_geom_bond_atom_site_label_1
_geom_bond_atom_site_label_2
_ccdc_geom_bond_type
O18   Zn1   S    
C51   O4    S    
C8    C13   A    
C29   C33   A    
C18   C21   A    
C49   H15   S    
C68   H66   S    
C35   C36   A    
C60   O9    S    
C64   O14   S    
C62   H52   S    
C23   C56   S    
C45   C46   S    
C52   O5    S    
C6    C72   A    
C63   H55   S    
C12   C23   S    
C26   C27   A    
C55   H33   S    
C58   H40   S    
C54   H32   S    
C36   C37   A    
C5    C72   A    
C30   C31   A    
C28   O23   A    
C21   O2    S    
C62   O11   S    
O12   Zn2   S    
C50   O3    S    
C65   O15   S    
C52   H25   S    
C23   C43   S    
C60   H47   S    
C61   H49   S    
C42   C46   S    
C47   H10   S    
C40   H12   S    
C35   O10   S    
C34   H8    S    
C28   O22   A    
C57   H37   S    
C64   H60   S    
C53   H29   S    
C12   H23   S    
C60   H46   S    
C70   H74   S    
C2    C16   S    
C9    C10   A    
C67   C71   T    
C65   H62   S    
O22   Zn1   S    
C51   H24   S    
C63   H57   S    
N2    Zn1   S    
C12   H1    S    
C61   H48   S    
C49   H16   S    
C62   H51   S    
C50   H18   S    
C5    H67   S    
O20   Zn1   S    
C43   O15   S    
C53   H28   S    
C1    C72   S    
O1    Zn1   S    
C4    O19   A    
C2    C20   A    
C58   H39   S    
C47   O24   S    
C54   H31   S    
C7    C8    A    
C3    C8    A    
C58   O8    S    
C61   O10   S    
C25   O11   S    
C70   H73   S    
C3    H56   S    
C13   H34   S    
C41   N2    A    
C25   C26   A    
C53   C54   S    
C14   H75   S    
C28   C44   S    
C15   H45   S    
C30   C37   A    
C55   H35   S    
C61   H50   S    
C12   C40   S    
C53   O6    S    
C63   O13   S    
C9    C14   A    
C69   O17   S    
C29   C30   A    
C34   O24   S    
C16   O20   A    
C44   C56   T    
C33   H4    S    
C47   C48   S    
C39   N2    A    
C64   H59   S    
C59   H41   S    
C23   C34   S    
C2    C21   A    
C14   C15   A    
C17   C18   A    
C68   H69   S    
C45   H7    S    
C34   C45   S    
C45   O17   S    
C6    O4    S    
C11   O6    S    
C51   H21   S    
C66   H64   S    
C50   H20   S    
C64   H58   S    
C1    O12   A    
C42   H6    S    
C22   C27   A    
C55   C57   S    
C22   C24   A    
C60   H44   S    
C42   C43   S    
C22   H2    S    
C17   C19   A    
C32   O7    S    
C43   O16   S    
C7    C9    A    
C31   O14   S    
C41   O8    S    
C49   O2    S    
C39   O9    S    
C27   C32   A    
C42   O13   S    
C54   H30   S    
C31   C32   A    
C24   N1    A    
C25   N1    A    
C49   H17   S    
C20   O3    S    
C3    C5    A    
C62   H53   S    
O23   Zn2   S    
C57   H38   S    
C15   C17   A    
C6    C7    A    
C38   H5    S    
C69   H71   S    
O21   Zn2   S    
C19   C20   A    
C52   H27   S    
C70   H72   S    
C19   H76   S    
C48   H11   S    
N1    Zn2   S    
C40   O5    S    
C36   C38   A    
C69   H70   S    
C46   C67   S    
C11   C13   A    
C16   O21   A    
C38   C39   A    
C66   H65   S    
C10   C18   A    
C59   H42   S    
C40   C46   S    
C52   H26   S    
C33   C35   A    
O19   Zn2   S    
C1    O1    A    
C48   H14   S    
C47   H9    S    
C37   C41   A    
C69   C70   S    
C24   H3    S    
C58   C59   S    
C63   H54   S    
C68   H68   S    
C10   C11   A    
C51   H22   S    
C66   H63   S    
C4    O18   A    
C50   H19   S    
C55   O7    S    
C57   H36   S    
C26   C29   A    
C59   H43   S    
C65   C66   S    
C48   H13   S    
C4    C71   S    
C65   H61   S    
C68   O16   S    
