data_mof_unit_18521.cif
_audit_creation_date              2012-12-10T18:42:29-0500
_audit_creation_method            fapswitch 2.2
_symmetry_space_group_name_H-M    P1
_symmetry_Int_Tables_number       1
_space_group_crystal_system       triclinic
_cell_length_a                    8.596551
_cell_length_b                    10.661454
_cell_length_c                    9.859237
_cell_angle_alpha                 89.664361
_cell_angle_beta                  98.599588
_cell_angle_gamma                 90.059826
_cell_volume                      893.441870478

loop_
_atom_site_label
_atom_site_type_symbol
_atom_type_description
_atom_site_fract_x
_atom_site_fract_y
_atom_site_fract_z
_atom_type_partial_charge
C1    C     C_R   0.499593 0.260383 0.500347 0.970079
C2    C     C_R   0.500408 0.739617 0.499653 0.970154
C3    C     C_R   0.201144 0.499216 0.464113 1.020631
C4    C     C_R   0.798856 0.500777 0.535887 1.020555
C5    C     C_2   0.036029 0.499147 0.444827 -0.259069
C6    C     C_2   0.963971 0.500841 0.555173 -0.259077
C7    C     C_R   0.625217 0.064876 0.451937 -0.120351
C8    C     C_R   0.374762 0.935124 0.548050 -0.120430
C9    C     C_R   0.622972 0.934951 0.450269 0.218481
C10   C     C_R   0.377012 0.065053 0.549721 0.218565
C11   C     C_R   0.498184 0.872130 0.498016 -0.223936
C12   C     C_R   0.501805 0.127870 0.501981 -0.223948
C13   C     C_R   0.600763 0.575412 0.084507 -0.043569
C14   C     C_R   0.399237 0.424589 0.915493 -0.043565
C15   C     C_R   0.600690 0.575404 0.940733 -0.047879
C16   C     C_R   0.399310 0.424596 0.059267 -0.047849
H1    H     H_    0.974209 0.498004 0.340152 0.165979
H2    H     H_    0.025791 0.501982 0.659848 0.165987
H3    H     H_    0.681427 0.635718 0.148946 0.169278
H4    H     H_    0.318572 0.364284 0.851053 0.169273
H5    H     H_    0.681246 0.635756 0.896466 0.143508
H6    H     H_    0.318754 0.364245 0.103534 0.143509
N1    N     N_R   0.499960 0.499970 0.857200 -0.094109
N2    N     N_R   0.500040 0.500030 0.142800 -0.094108
O1    O     O_R   0.499990 0.316750 0.614620 -0.585234
O2    O     O_R   0.500010 0.683250 0.385380 -0.585226
O3    O     O_R   0.499990 0.316780 0.385290 -0.631831
O4    O     O_R   0.500010 0.683220 0.614710 -0.631837
O5    O     O_R   0.271750 0.499990 0.587840 -0.612607
O6    O     O_R   0.728250 0.500010 0.412160 -0.612621
O7    O     O_R   0.271750 0.500010 0.358510 -0.631431
O8    O     O_R   0.728250 0.499990 0.641490 -0.631431
Zn1   Zn    Zn3+2 0.500000 0.499980 0.653120 1.001574
Zn2   Zn    Zn3+2 0.500000 0.500020 0.346880 1.001581
C17   C     C_2   0.758235 0.134211 0.405778 1.016285
O9    O     O_2   0.828486 0.214064 0.479535 -0.624966
O10   O     O_R   0.801964 0.109001 0.277678 -0.742899
H7    H     H_    0.893786 0.162477 0.258189 0.349550
C18   C     C_2   0.241719 0.865786 0.594177 1.016312
O11   O     O_2   0.171561 0.785868 0.520460 -0.625043
O12   O     O_R   0.197825 0.891092 0.722180 -0.742857
H8    H     H_    0.106012 0.837596 0.741658 0.349564
Br1   Br    Br    0.798080 0.842719 0.396527 -0.437546
Br2   Br    Br    0.201906 0.157302 0.603441 -0.437444

loop_
_geom_bond_atom_site_label_1
_geom_bond_atom_site_label_2
_ccdc_geom_bond_type
C14   N1    A    
C1    O1    A    
O10   H7    S    
C8    C18   S    
C14   H4    S    
C2    O4    A    
O12   H8    S    
C16   N2    A    
C17   O9    D    
O8    Zn1   S    
C15   N1    A    
O7    Zn2   S    
C2    O2    A    
C3    O7    A    
C9    C11   A    
C4    O8    A    
C1    C12   S    
C10   C12   A    
C8    C11   A    
C2    C11   S    
C4    C6    S    
C17   O10   S    
O4    Zn1   S    
C7    C9    A    
C13   C15   A    
O3    Zn2   S    
C5    C6    D    
C6    H2    S    
C14   C16   A    
C7    C12   A    
C9    Br1   S    
C5    H1    S    
C13   H3    S    
C10   Br2   S    
O5    Zn1   S    
C15   H5    S    
C18   O12   S    
C1    O3    A    
C18   O11   D    
C3    O5    A    
O6    Zn2   S    
C16   H6    S    
C3    C5    S    
C7    C17   S    
O2    Zn2   S    
C8    C10   A    
C4    O6    A    
C13   N2    A    
O1    Zn1   S    
N1    Zn1   S    
N2    Zn2   S    
