data_mof_unit_67558.cif
_audit_creation_date              2013-03-05T15:41:21-0500
_audit_creation_method            fapswitch 2.2
_symmetry_space_group_name_H-M    P1
_symmetry_Int_Tables_number       1
_space_group_crystal_system       triclinic
_cell_length_a                    10.876217
_cell_length_b                    8.970751
_cell_length_c                    7.771668
_cell_angle_alpha                 105.358499
_cell_angle_beta                  94.149301
_cell_angle_gamma                 98.127198
_cell_volume                      719.037689544

loop_
_atom_site_label
_atom_site_type_symbol
_atom_site_description
_atom_site_fract_x
_atom_site_fract_y
_atom_site_fract_z
_atom_type_partial_charge
O1    O     O_R   0.509190 0.286130 0.619780 -0.539364
O2    O     O_R   0.490810 0.713870 0.380220 -0.539353
O3    O     O_R   0.485310 0.256770 0.308360 -0.509706
O4    O     O_R   0.514690 0.743230 0.691640 -0.509708
C1    C     C_R   0.494647 0.200335 0.452508 0.804266
C2    C     C_R   0.505354 0.799665 0.547492 0.804321
O5    O     O_R   0.328790 0.514640 0.655680 -0.539036
O6    O     O_R   0.671210 0.485360 0.344320 -0.539047
O7    O     O_R   0.304910 0.485280 0.344260 -0.503982
O8    O     O_R   0.695090 0.514720 0.655740 -0.503986
C3    C     C_R   0.258789 0.484068 0.499522 0.900092
C4    C     C_R   0.741211 0.515932 0.500478 0.900092
Cu1   Cu    Cu3+1 0.514140 0.517380 0.684380 1.247533
Cu2   Cu    Cu3+1 0.485860 0.482620 0.315620 1.247532
N1    N     N_2   0.464560 0.456420 0.038510 0.100422
N2    N     N_2   0.535440 0.543580 0.961490 0.100414
C5    C     C_3   0.027666 0.448736 0.644291 0.285156
C6    C     C_3   0.972333 0.551264 0.355710 0.285176
C7    C     C_3   0.925402 0.369408 0.484305 0.119428
C8    C     C_3   0.074598 0.630592 0.515697 0.119437
C9    C     C_3   0.880633 0.526279 0.494013 -0.312115
C10   C     C_3   0.119367 0.473720 0.505988 -0.312162
C11   C     C_3   0.982697 0.605610 0.651518 0.228741
C12   C     C_3   0.017303 0.394389 0.348482 0.228773
C13   C     C_2   0.480196 0.030325 0.430166 0.131861
C14   C     C_2   0.519806 0.969675 0.569834 0.131900
Br1   Br    Br    0.810733 0.169484 0.442217 -0.332364
Br2   Br    Br    0.189267 0.830517 0.557801 -0.332314
Br3   Br    Br    0.006026 0.331493 0.815569 -0.171167
Br4   Br    Br    0.993975 0.668516 0.184440 -0.171271
Br5   Br    Br    0.989448 0.800499 0.835147 -0.249860
Br6   Br    Br    0.010544 0.199498 0.164852 -0.249736
S1    S     S_3+6 0.315792 0.378947 0.941963 0.222364
O9    O     O_2   0.245200 0.512564 0.953174 -0.197313
O10   O     O_2   0.308634 0.277428 0.752879 -0.295005
O11   O     O_3   0.251648 0.263044 0.057069 -0.428018
H1    H     H_    0.203728 0.171641 0.963432 0.409075
S2    S     S_3+6 0.684207 0.621057 0.058038 0.222312
O12   O     O_2   0.691364 0.722576 0.247122 -0.295042
O13   O     O_2   0.754802 0.487443 0.046829 -0.197272
O14   O     O_3   0.748348 0.736961 0.942932 -0.428036
H2    H     H_    0.796273 0.828361 0.036567 0.409088
S3    S     S_3+6 0.400642 0.914960 0.214286 0.101488
O15   O     O_2   0.496687 0.858908 0.095026 -0.233107
O16   O     O_2   0.308882 0.777424 0.225217 -0.197342
O17   O     O_3   0.318895 0.019205 0.115605 -0.444786
H3    H     H_    0.287521 0.947928 0.994655 0.402525
S4    S     S_3+6 0.599349 0.085040 0.785720 0.101576
O18   O     O_2   0.691108 0.222585 0.774812 -0.197186
O19   O     O_2   0.503287 0.141075 0.904960 -0.233056
O20   O     O_3   0.681099 0.980802 0.884408 -0.444720
H4    H     H_    0.712084 0.051888 0.005606 0.402483

loop_
_geom_bond_atom_site_label_1
_geom_bond_atom_site_label_2
_geom_bond_distance
_ccdc_geom_bond_type
O5    C3    1.326144 A    
O7    Cu2   1.999298 S    
C12   Br6   1.930151 S    
C6    Br4   1.910613 S    
C6    C9    1.555563 S    
C7    Br1   1.968939 S    
O14   H2    0.990827 S    
C3    C10   1.511378 S    
C5    C10   1.555565 S    
C5    C11   1.542570 S    
C8    C11   1.542129 S    
C14   S4    1.803189 S    
O6    C4    1.326145 A    
C13   S3    1.803191 S    
S4    O19   1.498291 D    
S1    O9    1.499466 D    
C2    C14   1.472691 S    
Cu1   Cu2   2.788736 S    
S2    O13   1.499464 D    
S3    O16   1.498374 D    
O2    C2    1.308877 A    
O3    Cu2   2.010981 S    
O8    C4    1.341910 A    
S3    O15   1.498279 D    
O1    C1    1.308878 A    
C10   C12   1.534811 S    
O11   H1    0.990826 S    
S1    O10   1.499784 D    
C8    C10   1.538166 S    
C7    C12   1.542133 S    
C6    C8    1.548178 S    
O7    C3    1.341912 A    
C9    C11   1.534805 S    
S2    O12   1.499783 D    
O2    Cu2   1.992803 S    
S3    O17   1.664179 S    
C1    C13   1.472694 S    
O1    Cu1   1.992801 S    
N1    N2    1.306984 D    
O3    C1    1.349121 A    
O5    Cu1   2.008046 S    
S1    O11   1.657080 S    
C5    Br3   1.910609 S    
C6    C12   1.542575 S    
O4    C2    1.349121 A    
S2    O14   1.657077 S    
Cu1   N2    2.095522 S    
O4    Cu1   2.010982 S    
O17   H3    0.991144 S    
S4    O18   1.498372 D    
O6    Cu2   2.008048 S    
C8    Br2   1.968939 S    
C5    C7    1.548173 S    
C13   C14   1.404018 D    
Cu2   N1    2.095522 S    
C4    C9    1.511377 S    
N1    S1    1.701220 S    
S4    O20   1.664181 S    
O20   H4    0.991235 S    
N2    S2    1.701222 S    
C7    C9    1.538164 S    
O8    Cu1   1.999298 S    
C11   Br5   1.930141 S    
