data_mof_unit_61261.cif
_audit_creation_date              2013-03-05T16:19:50-0500
_audit_creation_method            fapswitch 2.2
_symmetry_space_group_name_H-M    P1
_symmetry_Int_Tables_number       1
_space_group_crystal_system       triclinic
_cell_length_a                    30.161535
_cell_length_b                    30.629756
_cell_length_c                    21.555566
_cell_angle_alpha                 90.000221
_cell_angle_beta                  134.264101
_cell_angle_gamma                 89.99961
_cell_volume                      14260.947811

loop_
_atom_site_label
_atom_site_type_symbol
_atom_site_description
_atom_site_fract_x
_atom_site_fract_y
_atom_site_fract_z
_atom_type_partial_charge
O1    O     O_R   0.321150 0.768980 0.142380 -0.585720
O2    O     O_R   0.678850 0.768980 0.857620 -0.586106
O3    O     O_R   0.821150 0.268980 0.142380 -0.586014
O4    O     O_R   0.178850 0.268980 0.857620 -0.585747
O5    O     O_R   0.268980 0.821170 0.038000 -0.556721
O6    O     O_R   0.731020 0.821170 0.962000 -0.556170
O7    O     O_R   0.768980 0.321170 0.038000 -0.556301
O8    O     O_R   0.231020 0.321170 0.962000 -0.556682
C1    C     C_R   0.308215 0.809457 0.118197 0.875290
C2    C     C_R   0.691847 0.809458 0.881802 0.874904
C3    C     C_R   0.808167 0.309458 0.118198 0.875001
C4    C     C_R   0.191790 0.309457 0.881803 0.875263
O9    O     O_R   0.340930 0.723870 0.052190 -0.587700
O10   O     O_R   0.659070 0.723870 0.947810 -0.587679
O11   O     O_R   0.840930 0.223870 0.052190 -0.587681
O12   O     O_R   0.159070 0.223870 0.947810 -0.587696
O13   O     O_R   0.288760 0.776060 0.947810 -0.586191
O14   O     O_R   0.711240 0.776060 0.052190 -0.586238
O15   O     O_R   0.788760 0.276060 0.947810 -0.586235
O16   O     O_R   0.211240 0.276060 0.052190 -0.586200
C5    C     C_R   0.335608 0.749988 0.999990 0.791941
C6    C     C_R   0.664392 0.749987 0.000013 0.792092
C7    C     C_R   0.835608 0.249988 0.999988 0.792060
C8    C     C_R   0.164392 0.249988 0.000010 0.791952
Cu1   Cu    Cu3+1 0.280880 0.719080 0.061820 0.985892
Cu2   Cu    Cu3+1 0.719120 0.719080 0.938180 0.985427
Cu3   Cu    Cu3+1 0.780880 0.219080 0.061820 0.985546
Cu4   Cu    Cu3+1 0.219120 0.219080 0.938180 0.985862
Cu5   Cu    Cu3+1 0.219090 0.780890 0.938220 1.009673
Cu6   Cu    Cu3+1 0.780910 0.780890 0.061780 1.010254
Cu7   Cu    Cu3+1 0.719090 0.280890 0.938220 1.010109
Cu8   Cu    Cu3+1 0.280910 0.280890 0.061780 1.009712
O17   O     O_R   0.230990 0.678800 0.962040 -0.586221
O18   O     O_R   0.769010 0.678800 0.037960 -0.586184
O19   O     O_R   0.730990 0.178800 0.962040 -0.586193
O20   O     O_R   0.269010 0.178800 0.037960 -0.586217
O21   O     O_R   0.178820 0.731000 0.857660 -0.589054
O22   O     O_R   0.821180 0.731000 0.142340 -0.589040
O23   O     O_R   0.678820 0.231000 0.857660 -0.589046
O24   O     O_R   0.321180 0.231000 0.142340 -0.589054
O25   O     O_R   0.211210 0.723910 0.052230 -0.592574
O26   O     O_R   0.788790 0.723910 0.947770 -0.592712
O27   O     O_R   0.711210 0.223910 0.052230 -0.592680
O28   O     O_R   0.288790 0.223910 0.947770 -0.592585
O29   O     O_R   0.159040 0.776100 0.947850 -0.556631
O30   O     O_R   0.840960 0.776100 0.052150 -0.555981
O31   O     O_R   0.659040 0.276100 0.947850 -0.556114
O32   O     O_R   0.340960 0.276100 0.052150 -0.556566
C9    C     C_R   0.190685 0.690606 0.881588 0.782549
C10   C     C_R   0.809316 0.690606 0.118412 0.782585
C11   C     C_R   0.690684 0.190606 0.881588 0.782571
C12   C     C_R   0.309315 0.190606 0.118412 0.782551
C13   C     C_R   0.164255 0.749842 0.999794 0.846826
C14   C     C_R   0.835729 0.749853 0.000185 0.845838
C15   C     C_R   0.664268 0.249850 0.999810 0.846074
C16   C     C_R   0.335743 0.249842 0.000204 0.846756
C17   C     C_R   0.594348 0.789674 0.002832 -0.237275
C18   C     C_R   0.405815 0.789681 0.997510 -0.237490
C19   C     C_R   0.094209 0.289680 0.002539 -0.237475
C20   C     C_R   0.905676 0.289675 0.997221 -0.237329
C21   C     C_R   0.616055 0.749998 0.000065 -0.052963
C22   C     C_R   0.383946 0.750000 0.999947 -0.052641
C23   C     C_R   0.116055 0.250000 0.000055 -0.052676
C24   C     C_R   0.883946 0.249999 0.999939 -0.052904
C25   C     C_R   0.591561 0.710321 0.997246 -0.234705
C26   C     C_R   0.408282 0.710317 0.002451 -0.234656
C27   C     C_R   0.091697 0.210318 0.997507 -0.234657
C28   C     C_R   0.908418 0.210321 0.002712 -0.234685
C29   C     C_R   0.545897 0.710008 0.998602 0.108136
C30   C     C_R   0.453946 0.710006 0.001099 0.108159
C31   C     C_R   0.046032 0.210006 0.998860 0.108152
C32   C     C_R   0.954082 0.210008 0.001358 0.108134
C33   C     C_R   0.523315 0.749998 0.000018 0.063132
C34   C     C_R   0.476692 0.749998 0.000010 0.063135
C35   C     C_R   0.023310 0.249999 0.999996 0.063136
C36   C     C_R   0.976688 0.249998 0.999988 0.063134
C37   C     C_R   0.547315 0.789987 0.001444 0.107326
C38   C     C_R   0.452854 0.789991 0.998910 0.107412
C39   C     C_R   0.047171 0.289991 0.001142 0.107400
C40   C     C_R   0.952710 0.289988 0.998610 0.107341
C41   C     C_R   0.522536 0.670471 0.998779 -0.196998
C42   C     C_R   0.477147 0.670470 0.000601 -0.197007
C43   C     C_R   0.022809 0.170470 0.999312 -0.197002
C44   C     C_R   0.977420 0.170471 0.001134 -0.196989
C45   C     C_R   0.476562 0.829525 0.999427 -0.193797
C46   C     C_R   0.523772 0.829523 0.001258 -0.193734
C47   C     C_R   0.976276 0.329524 0.998844 -0.193749
C48   C     C_R   0.023486 0.329526 0.000674 -0.193789
H1    H     H_    0.613254 0.820217 0.004273 0.147294
H2    H     H_    0.387030 0.820225 0.996317 0.147034
H3    H     H_    0.113010 0.320225 0.003767 0.147062
H4    H     H_    0.886787 0.320218 0.995816 0.147245
H5    H     H_    0.609022 0.679774 0.995792 0.142829
H6    H     H_    0.390695 0.679768 0.003658 0.142637
H7    H     H_    0.109266 0.179769 0.996264 0.142663
H8    H     H_    0.890939 0.179773 0.004130 0.142805
H9    H     H_    0.539605 0.639564 0.997960 0.152399
H10   H     H_    0.459953 0.639561 0.001168 0.152374
H11   H     H_    0.039986 0.139562 0.998709 0.152381
H12   H     H_    0.960334 0.139564 0.001917 0.152408
H13   H     H_    0.458801 0.860435 0.998853 0.153489
H14   H     H_    0.541660 0.860431 0.002087 0.153482
H15   H     H_    0.958406 0.360432 0.998051 0.153486
H16   H     H_    0.041265 0.360435 0.001283 0.153493
C49   C     C_R   0.395803 0.858740 0.215969 0.020336
C50   C     C_R   0.603770 0.858236 0.783058 0.019955
C51   C     C_R   0.896122 0.358361 0.216699 0.020040
C52   C     C_R   0.104175 0.358712 0.783976 0.020312
C53   C     C_R   0.338974 0.843724 0.182283 -0.173785
C54   C     C_R   0.661061 0.843728 0.817709 -0.173991
C55   C     C_R   0.838945 0.343728 0.182288 -0.173936
C56   C     C_R   0.161030 0.343726 0.817717 -0.173793
C57   C     C_R   0.310349 0.865546 0.204742 0.310140
C58   C     C_R   0.690005 0.866042 0.796165 0.310017
C59   C     C_R   0.810076 0.365926 0.204049 0.310043
C60   C     C_R   0.189677 0.365580 0.795320 0.310131
C61   C     C_R   0.344092 0.897814 0.269495 -0.246172
C62   C     C_R   0.656239 0.898322 0.731434 -0.245966
C63   C     C_R   0.843838 0.398204 0.268787 -0.246007
C64   C     C_R   0.155931 0.397849 0.730567 -0.246150
H17   H     H_    0.323308 0.913621 0.289017 0.208974
H18   H     H_    0.677275 0.914520 0.712610 0.208719
H19   H     H_    0.822863 0.414309 0.287780 0.208787
H20   H     H_    0.176730 0.413681 0.711088 0.208963
C65   C     C_R   0.404632 0.908944 0.310291 -0.176036
C66   C     C_R   0.595363 0.908970 0.689744 -0.175660
C67   C     C_R   0.904633 0.408967 0.310261 -0.175744
C68   C     C_R   0.095370 0.408948 0.689713 -0.176005
C69   C     C_R   0.428140 0.890803 0.278767 0.101946
C70   C     C_R   0.571417 0.890317 0.720294 0.102036
C71   C     C_R   0.928471 0.390439 0.279468 0.101999
C72   C     C_R   0.071837 0.390777 0.721183 0.101938
C73   C     C_3   0.488942 0.869082 0.326071 -0.200975
C74   C     C_3   0.510749 0.868120 0.671997 -0.202084
C75   C     C_3   0.989174 0.368361 0.327515 -0.201801
C76   C     C_3   0.011042 0.369032 0.673827 -0.201025
C77   C     C_3   0.453174 0.833909 0.256228 -0.498676
C78   C     C_3   0.546517 0.832928 0.741794 -0.497028
C79   C     C_3   0.953406 0.333171 0.257710 -0.497426
C80   C     C_3   0.046810 0.333855 0.743664 -0.498569
H21   H     H_    0.512335 0.857344 0.391743 0.157639
H22   H     H_    0.488072 0.856543 0.606552 0.157343
H23   H     H_    0.012031 0.356745 0.393021 0.157432
H24   H     H_    0.987686 0.357304 0.608165 0.157637
H25   H     H_    0.461491 0.833066 0.213406 0.197727
H26   H     H_    0.537541 0.831659 0.783841 0.197823
H27   H     H_    0.962214 0.332008 0.215465 0.197802
H28   H     H_    0.038460 0.332989 0.786447 0.197735
H29   H     H_    0.454945 0.801475 0.281076 0.211848
H30   H     H_    0.545463 0.800654 0.717153 0.212117
H31   H     H_    0.954640 0.300857 0.282407 0.212062
H32   H     H_    0.045078 0.301431 0.718825 0.211873
C81   C     C_R   0.867566 0.749073 0.921086 -0.118077
C82   C     C_R   0.132388 0.748603 0.078864 -0.117477
C83   C     C_R   0.367605 0.248663 0.921129 -0.117487
C84   C     C_R   0.632427 0.248992 0.078905 -0.117898
C85   C     C_R   0.883843 0.750179 0.999772 -0.060646
C86   C     C_R   0.116133 0.750164 0.000209 -0.060814
C87   C     C_R   0.383863 0.250162 0.999789 -0.060787
C88   C     C_R   0.616152 0.250172 0.000223 -0.060672
C89   C     C_R   0.945967 0.752056 0.078133 -0.198222
C90   C     C_R   0.054027 0.752494 0.921896 -0.198309
C91   C     C_R   0.445972 0.252420 0.078109 -0.198351
C92   C     C_R   0.554031 0.252115 0.921869 -0.198301
C93   C     C_R   0.992468 0.751833 0.078644 0.071183
C94   C     C_R   0.007523 0.752286 0.921380 0.071102
C95   C     C_R   0.492475 0.252205 0.078623 0.071121
C96   C     C_R   0.507530 0.251889 0.921358 0.071179
C97   C     C_R   0.976423 0.751860 0.999503 0.022519
C98   C     C_R   0.023566 0.751853 0.000515 0.022572
C99   C     C_R   0.476432 0.251840 0.999487 0.022560
C100  C     C_R   0.523575 0.251845 0.000499 0.022522
C101  C     C_R   0.913291 0.751430 0.919545 -0.007986
C102  C     C_R   0.086689 0.750948 0.080457 -0.008197
C103  C     C_R   0.413308 0.251005 0.919543 -0.008204
C104  C     C_R   0.586705 0.251341 0.080453 -0.008058
C105  C     C_R   0.054694 0.751578 0.157355 -0.248613
C106  C     C_R   0.945295 0.752504 0.842667 -0.248708
C107  C     C_R   0.554702 0.252345 0.157335 -0.248686
C108  C     C_R   0.445304 0.251699 0.842648 -0.248627
C109  C     C_R   0.102095 0.751365 0.159380 0.332166
C110  C     C_R   0.897891 0.752317 0.840636 0.332233
C111  C     C_R   0.602106 0.252150 0.159365 0.332229
C112  C     C_R   0.397903 0.251486 0.840622 0.332181
H33   H     H_    0.819058 0.746819 0.861691 0.197907
H34   H     H_    0.180865 0.746009 0.138211 0.198333
H35   H     H_    0.319123 0.246120 0.861775 0.198308
H36   H     H_    0.680930 0.246686 0.138291 0.198013
H37   H     H_    0.958002 0.752543 0.138751 0.141176
H38   H     H_    0.041991 0.753327 0.861288 0.141582
H39   H     H_    0.458008 0.253204 0.138719 0.141521
H40   H     H_    0.541996 0.252656 0.861253 0.141237
H41   H     H_    0.066615 0.752013 0.217858 0.183691
H42   H     H_    0.933382 0.753298 0.782179 0.183721
H43   H     H_    0.566617 0.253082 0.217826 0.183709
H44   H     H_    0.433384 0.252186 0.782147 0.183688
C113  C     C_R   0.186101 0.622164 0.817230 0.122657
C114  C     C_R   0.813904 0.622152 0.182748 0.122623
C115  C     C_R   0.686095 0.122151 0.817253 0.122613
C116  C     C_R   0.313898 0.122165 0.182772 0.122657
C117  C     C_R   0.156525 0.657497 0.815384 -0.077889
C118  C     C_R   0.843476 0.657497 0.184617 -0.077934
C119  C     C_R   0.656524 0.157497 0.815383 -0.077924
C120  C     C_R   0.343475 0.157497 0.184616 -0.077888
C121  C     C_R   0.091686 0.660403 0.745151 -0.200840
C122  C     C_R   0.908311 0.660415 0.254875 -0.200833
C123  C     C_R   0.591689 0.160416 0.745124 -0.200839
C124  C     C_R   0.408314 0.160402 0.254847 -0.200841
H45   H     H_    0.066337 0.687327 0.740809 0.154886
H46   H     H_    0.933658 0.687347 0.259235 0.154897
H47   H     H_    0.566343 0.187349 0.740762 0.154896
H48   H     H_    0.433663 0.187324 0.259187 0.154883
C125  C     C_R   0.059166 0.627820 0.680578 -0.195710
C126  C     C_R   0.940832 0.627832 0.319448 -0.195706
C127  C     C_R   0.559169 0.127833 0.680551 -0.195724
C128  C     C_R   0.440834 0.127819 0.319420 -0.195698
H49   H     H_    0.009326 0.630267 0.627557 0.162721
H50   H     H_    0.990668 0.630287 0.372488 0.162727
H51   H     H_    0.509332 0.130289 0.627510 0.162717
H52   H     H_    0.490674 0.130264 0.372439 0.162731
C129  C     C_R   0.091528 0.592938 0.684208 -0.089003
C130  C     C_R   0.908472 0.592938 0.315794 -0.088964
C131  C     C_R   0.591527 0.092937 0.684207 -0.088950
C132  C     C_R   0.408472 0.092938 0.315792 -0.089012
C133  C     C_R   0.155286 0.591902 0.753720 0.119216
C134  C     C_R   0.844718 0.591890 0.246258 0.119142
C135  C     C_R   0.655281 0.091888 0.753744 0.119122
C136  C     C_R   0.344714 0.091904 0.246282 0.119218
C137  C     C_3   0.212357 0.566860 0.794145 -0.445726
C138  C     C_3   0.787652 0.566832 0.205801 -0.445740
C139  C     C_3   0.712347 0.066829 0.794202 -0.445724
C140  C     C_3   0.287642 0.066864 0.205859 -0.445725
C141  C     C_3   0.247632 0.601734 0.866193 -0.473667
C142  C     C_3   0.752378 0.601705 0.133753 -0.473506
C143  C     C_3   0.747622 0.101702 0.866250 -0.473468
C144  C     C_3   0.252367 0.101737 0.133811 -0.473674
H53   H     H_    0.212712 0.534001 0.816389 0.202992
H54   H     H_    0.787323 0.533977 0.183569 0.202984
H55   H     H_    0.712675 0.033974 0.816434 0.202981
H56   H     H_    0.287286 0.034004 0.183615 0.202994
H57   H     H_    0.222977 0.567506 0.754073 0.213352
H58   H     H_    0.777009 0.567465 0.245847 0.213358
H59   H     H_    0.722991 0.067461 0.754157 0.213369
H60   H     H_    0.277023 0.067511 0.245933 0.213350
H61   H     H_    0.268728 0.588953 0.930177 0.213267
H62   H     H_    0.731307 0.588928 0.069779 0.213275
H63   H     H_    0.768691 0.088926 0.930223 0.213285
H64   H     H_    0.231269 0.088956 0.069827 0.213266
H65   H     H_    0.278239 0.622704 0.867247 0.194022
H66   H     H_    0.721747 0.622662 0.132671 0.194057
H67   H     H_    0.778253 0.122658 0.867332 0.194049
H68   H     H_    0.221761 0.122709 0.132759 0.194030
O33   O     O_R   0.992480 0.545070 0.409820 -0.581393
O34   O     O_R   0.007520 0.545070 0.590180 -0.581375
O35   O     O_R   0.492480 0.045070 0.409820 -0.581362
O36   O     O_R   0.507520 0.045070 0.590180 -0.581419
O37   O     O_R   0.917370 0.545120 0.409780 -0.585007
O38   O     O_R   0.082630 0.545120 0.590220 -0.584969
O39   O     O_R   0.417370 0.045120 0.409780 -0.584973
O40   O     O_R   0.582630 0.045120 0.590220 -0.585006
C145  C     C_R   0.940769 0.559377 0.381330 0.793799
C146  C     C_R   0.059231 0.559377 0.618670 0.793859
C147  C     C_R   0.440769 0.059378 0.381330 0.793866
C148  C     C_R   0.559231 0.059377 0.618670 0.793774
O41   O     O_R   0.492430 0.954900 0.409810 -0.580960
O42   O     O_R   0.507570 0.954900 0.590190 -0.580827
O43   O     O_R   0.992430 0.454900 0.409810 -0.580866
O44   O     O_R   0.007570 0.454900 0.590190 -0.580962
O45   O     O_R   0.417320 0.954950 0.409780 -0.585661
O46   O     O_R   0.582680 0.954950 0.590220 -0.585517
O47   O     O_R   0.917320 0.454950 0.409780 -0.585563
O48   O     O_R   0.082680 0.454950 0.590220 -0.585658
C149  C     C_R   0.440351 0.940573 0.380807 0.811916
C150  C     C_R   0.559653 0.940582 0.619205 0.811775
C151  C     C_R   0.940348 0.440581 0.380797 0.811836
C152  C     C_R   0.059649 0.440574 0.619194 0.811933
Cu9   Cu    Cu3+1 0.544430 0.999980 0.499990 0.988643
Cu10  Cu    Cu3+1 0.455570 0.999980 0.500010 0.988634
Cu11  Cu    Cu3+1 0.044430 0.499980 0.499990 0.988637
Cu12  Cu    Cu3+1 0.955570 0.499980 0.500010 0.988596
N1    N     N_R   0.165217 0.752289 0.242020 0.118384
O49   O     O_R   0.202992 0.781974 0.258164 -0.297166
O50   O     O_R   0.181596 0.729174 0.305934 -0.343718
N2    N     N_R   0.834782 0.753758 0.758026 0.118410
O51   O     O_R   0.797367 0.783534 0.742625 -0.297616
O52   O     O_R   0.818122 0.731052 0.693540 -0.343784
N3    N     N_R   0.665217 0.253497 0.241981 0.118398
O53   O     O_R   0.702696 0.283258 0.257519 -0.297477
O54   O     O_R   0.681825 0.230715 0.306361 -0.343772
N4    N     N_R   0.334783 0.252472 0.757985 0.118380
O55   O     O_R   0.297051 0.282168 0.741927 -0.297163
O56   O     O_R   0.318372 0.229404 0.694005 -0.343737
N5    N     N_R   0.249180 0.854326 0.166392 0.118101
O57   O     O_R   0.206119 0.843164 0.085312 -0.361239
O58   O     O_R   0.233975 0.860741 0.209246 -0.303864
N6    N     N_R   0.751491 0.855257 0.835262 0.118094
O59   O     O_R   0.794254 0.843886 0.916257 -0.360394
O60   O     O_R   0.767208 0.862195 0.793167 -0.304012
N7    N     N_R   0.748662 0.355043 0.165126 0.118101
O61   O     O_R   0.705836 0.343706 0.084118 -0.360629
O62   O     O_R   0.733055 0.361880 0.207381 -0.303963
N8    N     N_R   0.250870 0.354393 0.833725 0.118102
O63   O     O_R   0.293905 0.343207 0.914795 -0.361209
O64   O     O_R   0.266120 0.360862 0.790939 -0.303857
C153  C     C_1   0.528817 0.895666 0.324632 0.335247
N9    N     N_1   0.560207 0.916600 0.323539 -0.266803
C154  C     C_1   0.469984 0.894140 0.672416 0.335728
N10   N     N_1   0.437886 0.914628 0.672700 -0.266201
C155  C     C_1   0.029711 0.394524 0.326831 0.335608
N11   N     N_1   0.061625 0.415126 0.326336 -0.266343
C156  C     C_1   0.971124 0.395587 0.675218 0.335264
N12   N     N_1   0.939700 0.416499 0.676273 -0.266798

loop_
_geom_bond_atom_site_label_1
_geom_bond_atom_site_label_2
_geom_bond_distance
_ccdc_geom_bond_type
C27   H7    1.084825 S    
C73   C77   1.524423 S    
O46   C150  1.293123 A    
C95   C107  1.398605 A    
C76   C80   1.524428 S    
O9    Cu1   1.967206 S    
C142  H66   1.111782 S    
C65   C149  1.457299 S    
O42   Cu10  1.972114 S    
C75   C79   1.524364 S    
O43   C151  1.296061 A    
C105  H41   1.084313 S    
O37   C145  1.291913 A    
N2    O51   1.300960 A    
C82   C86   1.398878 A    
O39   C147  1.291915 A    
C110  N2    1.436842 S    
C81   C101  1.404394 A    
Cu6   O22   1.970182 S    
C59   N7    1.441095 S    
C126  C130  1.412017 A    
C120  C124  1.411195 A    
C30   C34   1.412173 A    
N3    O54   1.301273 A    
O4    C4    1.295062 A    
C80   H32   1.112081 S    
C107  C111  1.399592 A    
C108  H44   1.084305 S    
O40   C148  1.291917 A    
C122  C126  1.410568 A    
O35   Cu9   1.972069 S    
C42   H10   1.083625 S    
C70   C74   1.495067 S    
C132  C136  1.386332 A    
C131  C148  1.442307 S    
C132  C147  1.442319 S    
N8    O64   1.301386 A    
C10   C118  1.440164 S    
Cu1   Cu5   2.687869 S    
Cu3   Cu7   2.687869 S    
C44   H12   1.083626 S    
Cu4   Cu8   2.687870 S    
C129  C146  1.442321 S    
Cu1   O25   1.968230 S    
C82   C102  1.404381 A    
C95   C99   1.411351 A    
Cu3   O19   1.973476 S    
C96   C108  1.398585 A    
Cu4   O28   1.968230 S    
O13   C5    1.296470 A    
Cu5   O29   1.967206 S    
O15   C7    1.296482 A    
C35   C36   1.406080 A    
C128  C132  1.412023 A    
C115  C143  1.488460 S    
O11   Cu3   1.967206 S    
C60   N8    1.440940 S    
C28   C32   1.397866 A    
O9    C5    1.296028 A    
O2    Cu2   1.970420 S    
C19   H3    1.084723 S    
O10   Cu2   1.967204 S    
C5    C22   1.458595 S    
C32   C44   1.402403 A    
C47   H15   1.083602 S    
C89   H37   1.084991 S    
C15   C88   1.457488 S    
O6    Cu6   1.973474 S    
O35   C147  1.290251 A    
C101  C110  1.416597 A    
C69   C73   1.495033 S    
C8    C23   1.458607 S    
O36   C148  1.290246 A    
O19   C11   1.293491 A    
C137  H53   1.111687 S    
C90   H38   1.084977 S    
C130  C145  1.442308 S    
C98   C102  1.419574 A    
O33   C145  1.290246 A    
C50   C70   1.380311 A    
C67   C151  1.457222 S    
C17   C21   1.401258 A    
C63   H19   1.082921 S    
C19   C23   1.401230 A    
C20   C24   1.401252 A    
C83   H35   1.081494 S    
O40   Cu9   1.973281 S    
C141  H61   1.111433 S    
C26   C30   1.397862 A    
C99   C103  1.419562 A    
C138  C142  1.542176 S    
C30   C42   1.402406 A    
C67   C71   1.394881 A    
O3    C3    1.295099 A    
C75   C155  1.470539 S    
C21   C25   1.401362 A    
C33   C37   1.412175 A    
C35   C39   1.412185 A    
O26   C14   1.295943 A    
C108  C112  1.399581 A    
C135  C139  1.488898 S    
C129  C133  1.386333 A    
C93   C105  1.398599 A    
C144  H64   1.111434 S    
C91   C95   1.394907 A    
C45   C46   1.396674 A    
C82   H34   1.081500 S    
C24   C28   1.401361 A    
O46   Cu9   1.970767 S    
C131  C135  1.386326 A    
C140  C144  1.542176 S    
C62   H18   1.082932 S    
C114  C118  1.385304 A    
C54   C58   1.418034 A    
O20   C12   1.293489 A    
O8    C4    1.289113 A    
C25   H5    1.084820 S    
C66   C150  1.457200 S    
O29   C13   1.295932 A    
Cu9   Cu10  2.680455 S    
C123  H47   1.083292 S    
O38   C146  1.291921 A    
C125  C129  1.412023 A    
C144  H68   1.111787 S    
C48   H16   1.083604 S    
C31   C43   1.402405 A    
C20   H4    1.084721 S    
C57   N5    1.440927 S    
C9    C117  1.440152 S    
C22   C26   1.401336 A    
C83   C87   1.398863 A    
C84   C88   1.398799 A    
C126  H50   1.083182 S    
C113  C141  1.488456 S    
C134  C138  1.488898 S    
C60   C64   1.406396 A    
O5    C1    1.289115 A    
N5    O57   1.299861 A    
C138  H58   1.111471 S    
C65   C69   1.394945 A    
C122  H46   1.083293 S    
C43   C44   1.396693 A    
C72   C76   1.495024 S    
O44   C152  1.296114 A    
O25   C13   1.295994 A    
C57   C61   1.406381 A    
C38   C45   1.402391 A    
O41   C149  1.296120 A    
Cu2   Cu6   2.687870 S    
C59   C63   1.406439 A    
N2    O52   1.301289 A    
N6    O60   1.301407 A    
C46   H14   1.083604 S    
C56   C60   1.417772 A    
Cu2   O26   1.968230 S    
O16   Cu8   1.968232 S    
O27   C15   1.295939 A    
C49   C53   1.392591 A    
C20   C40   1.397906 A    
O14   C6    1.296484 A    
C51   C55   1.392660 A    
Cu6   O30   1.967204 S    
C36   C40   1.412175 A    
C94   C98   1.411356 A    
N1    O50   1.301277 A    
C107  H43   1.084306 S    
O10   C6    1.296063 A    
O3    Cu3   1.970420 S    
C6    C21   1.458695 S    
C78   H26   1.113018 S    
C105  C109  1.399583 A    
C79   H31   1.112097 S    
C137  C141  1.542176 S    
C89   C93   1.394895 A    
C52   C72   1.380245 A    
C49   C77   1.493212 S    
C114  C134  1.349439 A    
O34   C146  1.290247 A    
C97   C101  1.419592 A    
C43   H11   1.083626 S    
C116  C120  1.385297 A    
C92   H40   1.084982 S    
C61   C65   1.407906 A    
C51   C79   1.493259 S    
C100  C104  1.419575 A    
Cu1   O17   1.973476 S    
C63   C67   1.407808 A    
C18   C22   1.401225 A    
C115  C119  1.385307 A    
C47   C48   1.396675 A    
C58   N6    1.441153 S    
O13   Cu5   1.968230 S    
C33   C34   1.406080 A    
O23   C11   1.291216 A    
C4    C56   1.442809 S    
C156  N12   1.157228 T    
O15   Cu7   1.968230 S    
C141  H65   1.111786 S    
C106  H42   1.084313 S    
C13   C86   1.457732 S    
C28   H8    1.084821 S    
C17   H1    1.084719 S    
C88   C92   1.396160 A    
C77   H25   1.113030 S    
C16   C87   1.457685 S    
C66   C70   1.394869 A    
O17   C9    1.293488 A    
N4    O55   1.300936 A    
C116  C136  1.349438 A    
O33   Cu11  1.972069 S    
C90   C94   1.394912 A    
O34   Cu12  1.972075 S    
Cu11  Cu12  2.680455 S    
C29   C33   1.412168 A    
C94   C106  1.398629 A    
C111  N3    1.436822 S    
C121  C125  1.410568 A    
Cu7   O31   1.967206 S    
C93   C97   1.411373 A    
Cu8   O32   1.967204 S    
C39   C48   1.402393 A    
C11   C119  1.440167 S    
C84   H36   1.081505 S    
C1    C53   1.442794 S    
C3    C55   1.442895 S    
C154  N10   1.157299 T    
C17   C37   1.397902 A    
O1    C1    1.295052 A    
C19   C39   1.397908 A    
C133  C137  1.488901 S    
C52   C56   1.392590 A    
C12   C120  1.440152 S    
O47   C151  1.293108 A    
N7    O61   1.299846 A    
C127  H51   1.083183 S    
C74   H22   1.112088 S    
O21   C9    1.291214 A    
O28   C16   1.295977 A    
N3    O53   1.300944 A    
C92   C96   1.394899 A    
O48   C152  1.293092 A    
O30   C14   1.295840 A    
C123  C127  1.410570 A    
C18   H2    1.084723 S    
C76   C156  1.470534 S    
O47   Cu12  1.970768 S    
C85   C89   1.396162 A    
C136  C140  1.488900 S    
C83   C103  1.404387 A    
C84   C104  1.404390 A    
C140  H60   1.111470 S    
O6    C2    1.289159 A    
C64   C68   1.407889 A    
O44   Cu12  1.972112 S    
C73   H21   1.112100 S    
O45   C149  1.293092 A    
N6    O59   1.299844 A    
C76   H24   1.112103 S    
C142  H62   1.111436 S    
O41   Cu9   1.972117 S    
O42   C150  1.296042 A    
C25   C29   1.397866 A    
O43   Cu11  1.972115 S    
C2    C54   1.442911 S    
C27   C31   1.397861 A    
C81   C85   1.398788 A    
C29   C41   1.402407 A    
C18   C38   1.397906 A    
Cu3   O27   1.968230 S    
C96   C100  1.411363 A    
Cu4   O20   1.973472 S    
C153  N9    1.157234 T    
C34   C38   1.412187 A    
Cu5   O21   1.970185 S    
C115  C135  1.349438 A    
C103  C112  1.416600 A    
C14   C85   1.457446 S    
C113  C133  1.349439 A    
O12   Cu4   1.967204 S    
C104  C111  1.416592 A    
C99   C100  1.406756 A    
C97   C98   1.406753 A    
C143  H67   1.111783 S    
C32   C36   1.412171 A    
C80   H28   1.113027 S    
C41   C42   1.396691 A    
C155  N11   1.157259 T    
C78   H30   1.112116 S    
O7    C3    1.289147 A    
C79   H27   1.113019 S    
C81   H33   1.081516 S    
O36   Cu10  1.972075 S    
C40   C47   1.402395 A    
C71   C75   1.495039 S    
C50   C78   1.493295 S    
C130  C134  1.386326 A    
C137  H57   1.111472 S    
C139  H55   1.111687 S    
C61   H17   1.082912 S    
C68   C152  1.457288 S    
Cu2   O18   1.973472 S    
O16   C8    1.296473 A    
C113  C117  1.385299 A    
O14   Cu6   1.968232 S    
C124  H48   1.083292 S    
C26   H6    1.084821 S    
O11   C7    1.296057 A    
O12   C8    1.296036 A    
O1    Cu1   1.970422 S    
C77   H29   1.112084 S    
C68   C72   1.394932 A    
C102  C109  1.416609 A    
C143  H63   1.111435 S    
O4    Cu4   1.970420 S    
O5    Cu5   1.973476 S    
C23   C27   1.401339 A    
O18   C10   1.293491 A    
O7    Cu7   1.973476 S    
O8    Cu8   1.973474 S    
C51   C71   1.380285 A    
C114  C142  1.488463 S    
C52   C80   1.493208 S    
C125  H49   1.083182 S    
C49   C69   1.380254 A    
N1    O49   1.300945 A    
O24   C12   1.291212 A    
C119  C123  1.411203 A    
C139  H59   1.111471 S    
C109  N1    1.436821 S    
C74   C154  1.470551 S    
C121  H45   1.083293 S    
C106  C110  1.399602 A    
N7    O62   1.301400 A    
C73   C153  1.470540 S    
C58   C62   1.406438 A    
C37   C46   1.402398 A    
O48   Cu11  1.970767 S    
C87   C91   1.396219 A    
C138  H54   1.111688 S    
O2    C2    1.295100 A    
C112  N4    1.436809 S    
C45   H13   1.083603 S    
O31   C15   1.295864 A    
C50   C54   1.392704 A    
O32   C16   1.295930 A    
N8    O63   1.299857 A    
C7    C24   1.458678 S    
C117  C121  1.411198 A    
C91   H39   1.084978 S    
C116  C144  1.488455 S    
C127  C131  1.412017 A    
C74   C78   1.524328 S    
C139  C143  1.542179 S    
O22   C10   1.291216 A    
C53   C57   1.417748 A    
N5    O58   1.301392 A    
C31   C35   1.412169 A    
C41   H9    1.083628 S    
C75   H23   1.112097 S    
Cu7   O23   1.970185 S    
O45   Cu10  1.970768 S    
N4    O56   1.301266 A    
Cu8   O24   1.970182 S    
C86   C90   1.396249 A    
O37   Cu12  1.973281 S    
C124  C128  1.410569 A    
C118  C122  1.411202 A    
O38   Cu11  1.973281 S    
C140  H56   1.111686 S    
O39   Cu10  1.973281 S    
C55   C59   1.417972 A    
C62   C66   1.407796 A    
C128  H52   1.083181 S    
C64   H20   1.082908 S    
