data_mof_unit_30603.cif
_audit_creation_date              2012-12-10T18:06:49-0500
_audit_creation_method            fapswitch 2.2
_symmetry_space_group_name_H-M    P1
_symmetry_Int_Tables_number       1
_space_group_crystal_system       triclinic
_cell_length_a                    12.578883
_cell_length_b                    13.154601
_cell_length_c                    15.42418
_cell_angle_alpha                 82.911438
_cell_angle_beta                  99.345835
_cell_angle_gamma                 96.623785
_cell_volume                      2487.24812317

loop_
_atom_site_label
_atom_site_type_symbol
_atom_type_description
_atom_site_fract_x
_atom_site_fract_y
_atom_site_fract_z
_atom_type_partial_charge
C1    C     C_R   0.445053 0.308097 0.513389 0.847342
C2    C     C_R   0.688864 0.547491 0.931054 -0.034392
C3    C     C_R   0.577006 0.548075 0.896239 -0.013962
C4    C     C_R   0.434907 0.514952 0.335410 0.868410
C5    C     C_R   0.761886 0.524169 0.876706 0.025590
C6    C     C_R   0.722408 0.495690 0.791281 0.458739
C7    C     C_R   0.540448 0.517743 0.812294 -0.309811
C8    C     C_R   0.733683 0.926110 0.559130 0.095548
C9    C     C_R   0.595892 0.798351 0.500041 -0.097985
C10   C     C_R   0.301859 0.163525 0.504988 -0.188871
C11   C     C_R   0.270040 0.059593 0.500479 -0.144235
C12   C     C_R   0.454771 0.572848 0.094100 0.124723
C13   C     C_R   0.347872 0.990555 0.509405 -0.194262
C14   C     C_R   0.459766 0.024534 0.526957 0.098467
C15   C     C_R   0.490130 0.126626 0.545675 0.089207
C16   C     C_R   0.557114 0.691418 0.491595 0.874991
C17   C     C_R   0.542468 0.960637 0.526287 0.059679
C18   C     C_R   0.652362 0.992543 0.558486 0.122611
C19   C     C_R   0.677567 0.088942 0.589970 -0.277967
C20   C     C_R   0.597668 0.154866 0.583735 -0.200718
C21   C     C_R   0.518305 0.866679 0.491742 -0.265564
C22   C     C_R   0.704211 0.828524 0.531193 -0.185040
C23   C     C_R   0.346017 0.584500 0.056498 0.122679
C24   C     C_R   0.411968 0.197987 0.524901 -0.118358
C25   C     C_R   0.139190 0.642542 0.621329 -0.311815
C26   C     C_R   0.756455 0.377205 0.398701 -0.133109
C27   C     C_R   0.852354 0.347183 0.379263 0.490626
C28   C     C_R   0.566064 0.488565 0.664411 0.880453
C29   C     C_R   0.950093 0.396743 0.416166 -0.283233
C30   C     C_R   0.952637 0.470873 0.475970 -0.070734
C31   C     C_R   0.853549 0.494930 0.495369 0.190120
C32   C     C_R   0.049007 0.521063 0.517915 0.024967
C33   C     C_R   0.044445 0.593050 0.578790 0.178552
C34   C     C_R   0.535136 0.576885 0.038915 0.005708
C35   C     C_R   0.945467 0.614594 0.596773 -0.251596
C36   C     C_R   0.851280 0.566016 0.555346 -0.115840
C37   C     C_R   0.150668 0.502582 0.502320 -0.058114
C38   C     C_R   0.237339 0.620371 0.603043 0.004884
C39   C     C_R   0.398777 0.537590 0.239860 -0.115846
C40   C     C_R   0.611102 0.496899 0.757907 -0.195633
C41   C     C_R   0.265574 0.576801 0.110515 -0.183401
C42   C     C_R   0.290410 0.553186 0.201793 0.098610
C43   C     C_R   0.478600 0.547969 0.185238 -0.288366
C44   C     C_3   0.784839 0.185966 0.339524 -0.320887
C45   C     C_R   0.502192 0.573160 0.947678 0.103630
C46   C     C_3   0.796800 0.365914 0.746065 -0.292859
C47   C     C_3   0.853741 0.487963 0.115278 -0.253279
C48   C     C_R   0.394899 0.593454 0.911103 -0.200178
C49   C     C_R   0.318425 0.600474 0.965077 -0.232656
C50   C     C_R   0.646652 0.582434 0.072088 -0.354917
C51   C     C_R   0.723283 0.567705 0.019729 0.551608
H1    H     H_    0.236298 0.613328 0.935105 0.148506
H2    H     H_    0.454934 0.507831 0.788359 0.187688
H3    H     H_    0.940714 0.668896 0.643185 0.159568
H4    H     H_    0.137253 0.697358 0.667935 0.146305
H5    H     H_    0.163182 0.450263 0.457402 0.120492
H6    H     H_    0.678518 0.344213 0.368737 0.157148
H7    H     H_    0.022159 0.373856 0.397812 0.157445
H8    H     H_    0.777731 0.584678 0.572438 0.220731
H9    H     H_    0.182350 0.586463 0.081525 0.159467
H10   H     H_    0.559386 0.531575 0.214433 0.172575
H11   H     H_    0.368447 0.605712 0.840748 0.141772
H12   H     H_    0.765141 0.775214 0.537368 0.159005
H13   H     H_    0.676959 0.601089 0.138412 0.168011
H14   H     H_    0.903414 0.458555 0.909065 0.186843
H15   H     H_    0.915142 0.581957 0.861769 0.209461
H16   H     H_    0.871326 0.021304 0.552607 0.178863
H17   H     H_    0.853410 0.968572 0.656292 0.183589
H18   H     H_    0.699866 0.197216 0.310025 0.165916
H19   H     H_    0.790688 0.161249 0.411803 0.159884
H20   H     H_    0.809190 0.122247 0.308544 0.200393
H21   H     H_    0.714941 0.325810 0.727450 0.149255
H22   H     H_    0.831453 0.334970 0.813780 0.143465
H23   H     H_    0.759138 0.115248 0.618033 0.143764
H24   H     H_    0.849198 0.348046 0.699715 0.191956
H25   H     H_    0.826973 0.415596 0.083864 0.157534
H26   H     H_    0.815875 0.487274 0.175695 0.165269
H27   H     H_    0.942538 0.490072 0.136311 0.201760
H28   H     H_    0.199870 0.470129 0.288469 0.191316
H29   H     H_    0.216629 0.600070 0.295641 0.214840
H30   H     H_    0.437947 0.843133 0.459791 0.157651
H31   H     H_    0.240517 0.217169 0.490709 0.156175
H32   H     H_    0.318152 0.910874 0.504522 0.135863
H33   H     H_    0.184945 0.032939 0.486470 0.148451
H34   H     H_    0.620976 0.227828 0.610201 0.162551
H35   H     H_    0.312262 0.657455 0.634927 0.137089
N1    N     N_R   0.239390 0.551900 0.544730 -0.104120
N2    N     N_R   0.759950 0.448600 0.455730 -0.151925
N3    N     N_3   0.876300 0.531037 0.906977 -0.383784
N4    N     N_3   0.845639 0.954071 0.590319 -0.473788
N5    N     N_3   0.203233 0.542940 0.252587 -0.461046
O1    O     O_R   0.374950 0.371210 0.521360 -0.612090
O2    O     O_3   0.794844 0.473688 0.739322 -0.613044
O3    O     O_3   0.831916 0.575921 0.055403 -0.593348
O4    O     O_R   0.542050 0.338030 0.492790 -0.616170
O5    O     O_R   0.368720 0.526070 0.390200 -0.624724
O6    O     O_R   0.535820 0.492890 0.361630 -0.610814
O7    O     O_R   0.457950 0.661970 0.507210 -0.611996
O8    O     O_R   0.625050 0.628790 0.478640 -0.637731
O9    O     O_R   0.464180 0.507110 0.638370 -0.618039
O10   O     O_R   0.631280 0.473930 0.609800 -0.592266
O11   O     O_3   0.854251 0.275537 0.320658 -0.615752
Zn1   Zn    Zn3+2 0.388420 0.522150 0.519080 0.927283
Zn2   Zn    Zn3+2 0.611580 0.477850 0.480920 0.929241

loop_
_geom_bond_atom_site_label_1
_geom_bond_atom_site_label_2
_ccdc_geom_bond_type
C27   C29   A    
C50   H13   S    
C41   C42   A    
C19   C20   A    
C36   H8    S    
C16   O7    A    
H14   N3    S    
C12   C23   A    
C26   C27   A    
C38   H35   S    
C9    C16   S    
C47   H25   S    
C18   C19   A    
C12   C43   A    
C3    C7    A    
C30   C31   A    
C9    C22   A    
C23   C49   A    
C28   C40   S    
O7    Zn1   S    
C44   H20   S    
C42   N5    S    
O1    Zn1   S    
C22   H12   S    
C4    O5    A    
C37   H5    S    
C48   H11   S    
C28   O10   A    
C35   C36   A    
C8    C22   A    
C7    C40   A    
C44   H19   S    
C39   C42   A    
H28   N5    S    
C28   O9    A    
O8    Zn2   S    
C13   C14   A    
C35   H3    S    
C14   C17   A    
C49   H1    S    
C46   H24   S    
N2    Zn2   S    
C17   C18   A    
H15   N3    S    
C15   C20   A    
C34   C50   A    
C10   C11   A    
C44   O11   S    
C39   C43   A    
C10   C24   A    
C3    C45   A    
O9    Zn1   S    
C8    C18   A    
C29   C30   A    
C25   C38   A    
H17   N4    S    
C4    C39   S    
C1    O4    A    
C6    O2    S    
C20   H34   S    
C50   C51   A    
C44   H18   S    
C34   C45   A    
C32   C37   A    
N1    Zn1   S    
C15   C24   A    
C21   H30   S    
O10   Zn2   S    
C6    C40   A    
C2    C5    A    
C8    N4    S    
C7    H2    S    
C12   C34   A    
O4    Zn2   S    
C43   H10   S    
C45   C48   A    
C48   C49   A    
C31   N2    A    
C31   C36   A    
C46   H21   S    
C37   N1    A    
C19   H23   S    
C25   H4    S    
C41   H9    S    
C16   O8    A    
C11   H33   S    
C1    O1    A    
C13   H32   S    
C27   O11   S    
C23   C41   A    
C38   N1    A    
C32   C33   A    
H29   N5    S    
C2    C3    A    
C30   C32   A    
C11   C13   A    
C9    C21   A    
C5    C6    A    
C46   O2    S    
C33   C35   A    
C47   O3    S    
C10   H31   S    
H16   N4    S    
C26   H6    S    
C17   C21   A    
O6    Zn2   S    
C2    C51   A    
C51   O3    S    
C29   H7    S    
C1    C24   S    
C26   N2    A    
O5    Zn1   S    
C47   H26   S    
C14   C15   A    
C47   H27   S    
C4    O6    A    
C46   H22   S    
C5    N3    S    
C25   C33   A    
