data_mof_unit_39445.cif
_audit_creation_date              2012-12-11T15:24:42-0500
_audit_creation_method            fapswitch 2.2
_symmetry_space_group_name_H-M    P1
_symmetry_Int_Tables_number       1
_space_group_crystal_system       triclinic
_cell_length_a                    22.905256
_cell_length_b                    6.95763
_cell_length_c                    20.761215
_cell_angle_alpha                 90.002052
_cell_angle_beta                  93.21947
_cell_angle_gamma                 89.997354
_cell_volume                      3303.41603682

loop_
_atom_site_label
_atom_site_type_symbol
_atom_type_description
_atom_site_fract_x
_atom_site_fract_y
_atom_site_fract_z
_atom_type_partial_charge
O1    O     O_R   0.188030 0.379840 0.189340 -0.534679
O2    O     O_R   0.811970 0.620160 0.810660 -0.534680
O3    O     O_R   0.311970 0.879840 0.310660 -0.534675
O4    O     O_R   0.688030 0.120160 0.689340 -0.534673
O5    O     O_R   0.307090 0.708420 0.185790 -0.541357
O6    O     O_R   0.692910 0.291580 0.814210 -0.541357
O7    O     O_R   0.192910 0.208420 0.314210 -0.541328
O8    O     O_R   0.807090 0.791580 0.685790 -0.541329
C1    C     C_R   0.326636 0.540710 0.170548 0.730168
C2    C     C_R   0.673365 0.459290 0.829453 0.730168
C3    C     C_R   0.173364 0.040723 0.329452 0.730171
C4    C     C_R   0.826636 0.959277 0.670548 0.730169
O9    O     O_R   0.188180 0.709480 0.181650 -0.546172
O10   O     O_R   0.811820 0.290520 0.818350 -0.546172
O11   O     O_R   0.311820 0.209480 0.318350 -0.546155
O12   O     O_R   0.688180 0.790520 0.681650 -0.546155
O13   O     O_R   0.192210 0.880960 0.306500 -0.533740
O14   O     O_R   0.807790 0.119040 0.693500 -0.533740
O15   O     O_R   0.307790 0.380960 0.193500 -0.533736
O16   O     O_R   0.692210 0.619040 0.806500 -0.533736
C5    C     C_R   0.169081 0.540466 0.164137 0.711882
C6    C     C_R   0.830919 0.459534 0.835863 0.711882
C7    C     C_R   0.330925 0.040466 0.335855 0.711923
C8    C     C_R   0.669075 0.959534 0.664144 0.711919
O17   O     O_3   0.251460 0.546730 0.290970 -0.368958
O18   O     O_3   0.748540 0.453270 0.709030 -0.368957
O19   O     O_3   0.248540 0.046730 0.209030 -0.368981
O20   O     O_3   0.751460 0.953270 0.790970 -0.368981
V1    V     V_3+5 0.249730 0.821120 0.242400 1.411430
V2    V     V_3+5 0.750270 0.178880 0.757600 1.411432
V3    V     V_3+5 0.250270 0.321120 0.257600 1.411514
V4    V     V_3+5 0.749730 0.678880 0.742400 1.411515
C9    C     C_R   0.568312 0.052109 0.630058 -0.250335
C10   C     C_R   0.431688 0.947889 0.369941 -0.250339
C11   C     C_R   0.931647 0.552393 0.869981 -0.250356
C12   C     C_R   0.068353 0.447607 0.130019 -0.250356
C13   C     C_R   0.621078 0.969347 0.613385 -0.100531
C14   C     C_R   0.378922 0.030653 0.386614 -0.100525
C15   C     C_R   0.878915 0.469346 0.886624 -0.100602
C16   C     C_R   0.121085 0.530654 0.113376 -0.100603
C17   C     C_R   0.627057 0.899781 0.549582 0.094832
C18   C     C_R   0.372943 0.100215 0.450417 0.094834
C19   C     C_R   0.872970 0.399512 0.950399 0.094886
C20   C     C_R   0.127030 0.600488 0.049601 0.094887
C21   C     C_R   0.578034 0.911636 0.503832 0.084150
C22   C     C_R   0.421965 0.088357 0.496168 0.084144
C23   C     C_R   0.921999 0.411343 0.996142 0.084166
C24   C     C_R   0.078001 0.588657 0.003858 0.084166
C25   C     C_R   0.524643 0.993605 0.522380 0.028186
C26   C     C_R   0.475356 0.006390 0.477619 0.028188
C27   C     C_R   0.975355 0.493607 0.977622 0.028182
C28   C     C_R   0.024645 0.506393 0.022378 0.028182
C29   C     C_R   0.520350 0.063794 0.585537 0.103979
C30   C     C_R   0.479650 0.936202 0.414463 0.103980
C31   C     C_R   0.979610 0.564094 0.914499 0.103939
C32   C     C_R   0.020390 0.435906 0.085501 0.103939
C33   C     C_R   0.580546 0.843948 0.439893 -0.189807
C34   C     C_R   0.419452 0.156036 0.560108 -0.189807
C35   C     C_R   0.919526 0.343343 0.060047 -0.189796
C36   C     C_R   0.080474 0.656656 0.939953 -0.189796
C37   C     C_R   0.532167 0.855744 0.396229 -0.183220
C38   C     C_R   0.467832 0.144243 0.603772 -0.183219
C39   C     C_R   0.967909 0.355144 0.103706 -0.183247
C40   C     C_R   0.032091 0.644856 0.896294 -0.183246
H1    H     H_    0.619638 0.781146 0.422224 0.135266
H2    H     H_    0.380359 0.218825 0.577778 0.135264
H3    H     H_    0.880464 0.280285 0.077692 0.135274
H4    H     H_    0.119536 0.719714 0.922308 0.135274
C41   C     C_3   0.052046 0.005820 0.533117 -0.138408
C42   C     C_3   0.947954 0.994180 0.466883 -0.138408
C43   C     C_3   0.448452 0.524997 0.966982 -0.138166
C44   C     C_3   0.551552 0.475008 0.033023 -0.138167
C45   C     C_3   0.006924 0.840239 0.535901 -0.137131
C46   C     C_3   0.993076 0.159761 0.464099 -0.137131
C47   C     C_3   0.489909 0.350967 0.959825 -0.137868
C48   C     C_3   0.510095 0.649038 0.040180 -0.137868
H5    H     H_    0.012381 0.708181 0.565648 0.105397
H6    H     H_    0.987619 0.291819 0.434352 0.105397
H7    H     H_    0.481840 0.227725 0.926541 0.105143
H8    H     H_    0.518164 0.772280 0.073465 0.105143
H9    H     H_    0.996191 0.717255 0.429321 0.105803
H10   H     H_    0.003809 0.282744 0.570679 0.105803
H11   H     H_    0.497121 0.201610 0.062669 0.106933
H12   H     H_    0.502883 0.798395 0.937336 0.106933
C49   C     C_1   0.872068 0.968903 0.624647 -0.190361
C50   C     C_1   0.127932 0.031097 0.375353 -0.190362
C51   C     C_1   0.627935 0.468956 0.875355 -0.190401
C52   C     C_1   0.372067 0.531045 0.124648 -0.190401
C53   C     C_3   0.002222 0.154849 0.538649 -0.136422
C54   C     C_3   0.997778 0.845151 0.461351 -0.136422
C55   C     C_3   0.501449 0.663409 0.965726 -0.136491
C56   C     C_3   0.498555 0.336596 0.034279 -0.136492
C57   C     C_3   0.957724 0.989414 0.540822 0.168905
C58   C     C_3   0.042276 0.010585 0.459178 0.168905
C59   C     C_3   0.542281 0.489519 0.959181 0.169038
C60   C     C_3   0.457723 0.510485 0.040825 0.169038
C61   C     C_1   0.910495 0.977828 0.586704 -0.066097
C62   C     C_1   0.089505 0.022171 0.413296 -0.066097
C63   C     C_1   0.589509 0.477926 0.913299 -0.066266
C64   C     C_1   0.410494 0.522077 0.086705 -0.066266
H13   H     H_    0.564438 0.105770 0.678717 0.118009
H14   H     H_    0.435563 0.894229 0.321282 0.118009
H15   H     H_    0.935496 0.606269 0.821345 0.118085
H16   H     H_    0.064504 0.393731 0.178655 0.118085
C65   C     C_3   0.685972 0.823908 0.529827 -0.366029
C66   C     C_3   0.718825 0.976866 0.493478 -0.775749
H17   H     H_    0.693253 0.023342 0.449228 0.230628
H18   H     H_    0.727609 0.103891 0.524987 0.225868
H19   H     H_    0.761289 0.917689 0.479366 0.216282
H20   H     H_    0.714784 0.779003 0.571600 0.187385
H21   H     H_    0.680388 0.691060 0.500612 0.171678
C67   C     C_3   0.314026 0.176079 0.470173 -0.366035
C68   C     C_3   0.281171 0.023099 0.506509 -0.775743
H22   H     H_    0.272387 0.896096 0.474990 0.225865
H23   H     H_    0.306742 0.976592 0.550755 0.230630
H24   H     H_    0.238707 0.082268 0.520625 0.216282
H25   H     H_    0.319609 0.308910 0.499396 0.171676
H26   H     H_    0.285218 0.221010 0.428400 0.187387
C69   C     C_3   0.814080 0.323407 0.970145 -0.366217
C70   C     C_3   0.781215 0.476105 0.006605 -0.775523
H27   H     H_    0.806797 0.522417 0.050868 0.230637
H28   H     H_    0.772389 0.603270 0.975174 0.225884
H29   H     H_    0.738772 0.416756 0.020708 0.216181
H30   H     H_    0.785254 0.278661 0.928366 0.187452
H31   H     H_    0.819707 0.190422 0.999279 0.171679
C71   C     C_3   0.185919 0.676593 0.029855 -0.366217
C72   C     C_3   0.218785 0.523896 0.993395 -0.775523
H32   H     H_    0.227611 0.396732 0.024826 0.225884
H33   H     H_    0.193203 0.477583 0.949133 0.230637
H34   H     H_    0.261228 0.583245 0.979292 0.216180
H35   H     H_    0.180293 0.809579 0.000721 0.171679
H36   H     H_    0.214746 0.721340 0.071634 0.187453
H37   H     H_    0.535999 0.801803 0.347664 0.121145
H38   H     H_    0.463999 0.198180 0.652337 0.121145
H39   H     H_    0.964106 0.300964 0.152245 0.121199
H40   H     H_    0.035894 0.699036 0.847755 0.121199
H41   H     H_    0.095216 0.010724 0.560187 0.107873
H42   H     H_    0.904784 0.989276 0.439813 0.107873
H43   H     H_    0.405692 0.545681 0.939991 0.107653
H44   H     H_    0.594312 0.454324 0.060014 0.107653

loop_
_geom_bond_atom_site_label_1
_geom_bond_atom_site_label_2
_ccdc_geom_bond_type
C34   C38   A    
C43   C47   S    
C65   H20   S    
C40   H40   S    
O1    C5    A    
C71   C72   S    
C54   C58   S    
O19   V1    S    
O13   V1    S    
C46   C58   S    
O3    C7    A    
C45   C57   S    
C44   C48   S    
O15   V3    S    
C37   H37   S    
C69   H30   S    
O7    C3    A    
H11   C56   S    
C20   C71   S    
O5    C1    A    
C10   H14   S    
H10   C53   S    
C17   C65   S    
C4    C49   S    
C9    H13   S    
C46   C53   S    
O9    V1    S    
C45   C54   S    
C14   C18   A    
C24   C28   A    
C11   H15   S    
C1    C52   S    
C67   H25   S    
C44   C56   S    
C59   C63   S    
C66   H17   S    
C58   C62   S    
C3    C50   S    
O1    V3    S    
O17   V1    S    
O2    V4    S    
C18   C22   A    
O3    V1    S    
C18   C67   S    
C35   H3    S    
C44   C59   S    
C34   H2    S    
C23   C27   A    
C2    O16   A    
O2    C6    A    
C41   C45   S    
O14   V2    S    
H12   C55   S    
C21   C25   A    
C51   C63   T    
C70   H29   S    
C68   H24   S    
O11   C7    A    
C65   H21   S    
O12   C8    A    
O18   V2    S    
C22   C34   A    
C9    C29   A    
C42   C54   S    
O10   V2    S    
C41   C53   S    
C47   C59   S    
C67   C68   S    
C1    O15   A    
C24   C36   A    
O5    V1    S    
C56   C60   S    
C41   H41   S    
C2    C51   S    
O7    V3    S    
C11   C31   A    
C27   C28   A    
O8    V4    S    
O20   V4    S    
C42   C57   S    
C41   C58   S    
O18   V4    S    
C15   C19   A    
C43   C60   S    
O19   V3    S    
C53   C57   S    
C9    C13   A    
C39   H39   S    
C11   C15   A    
C72   H33   S    
C42   C46   S    
C12   C32   A    
C29   C38   A    
C12   C16   A    
O8    C4    A    
C21   C33   A    
C31   C40   A    
C8    C13   S    
C32   C39   A    
O9    C5    A    
C26   C30   A    
C33   C37   A    
C52   C64   T    
C47   C56   S    
H9    C54   S    
C69   H31   S    
O6    V2    S    
C10   C30   A    
C47   H7    S    
C44   H44   S    
C72   H32   S    
C57   C61   S    
C70   H27   S    
C70   H28   S    
C68   H22   S    
O16   V4    S    
C3    O13   A    
C17   C21   A    
C10   C14   A    
O17   V3    S    
C48   H8    S    
C33   H1    S    
O6    C2    A    
C43   H43   S    
C69   C70   S    
O11   V3    S    
C30   C37   A    
O12   V4    S    
C7    C14   S    
C65   C66   S    
C22   C26   A    
C35   C39   A    
C12   H16   S    
C36   C40   A    
O10   C6    A    
O20   V2    S    
C72   H34   S    
C48   C60   S    
C67   H26   S    
C42   H42   S    
C38   H38   S    
C5    C16   S    
C66   H18   S    
C71   H35   S    
O4    C8    A    
C6    C15   S    
C60   C64   S    
C27   C31   A    
C13   C17   A    
C50   C62   T    
C25   C29   A    
C49   C61   T    
C71   H36   S    
C48   C55   S    
C23   C35   A    
C28   C32   A    
C16   C20   A    
C43   C55   S    
C36   H4    S    
C55   C59   S    
C25   C26   A    
C46   H6    S    
C4    O14   A    
C45   H5    S    
C19   C23   A    
O4    V2    S    
C20   C24   A    
C19   C69   S    
C68   H23   S    
C66   H19   S    
