data_mof_unit_27532.cif
_audit_creation_date              2012-10-26T19:58:13-0400
_audit_creation_method            fapswitch 2.2
_symmetry_space_group_name_H-M    P1
_symmetry_Int_Tables_number       1
_space_group_crystal_system       triclinic
_cell_length_a                    7.422439
_cell_length_b                    8.744428
_cell_length_c                    13.407412
_cell_angle_alpha                 94.081013
_cell_angle_beta                  77.421286
_cell_angle_gamma                 102.970279
_cell_volume                      827.424587065

loop_
_atom_site_label
_atom_site_type_symbol
_atom_type_description
_atom_site_fract_x
_atom_site_fract_y
_atom_site_fract_z
_atom_type_partial_charge
C1    C     C_R   0.547209 0.799370 0.499791 0.590038
C2    C     C_R   0.337413 0.495240 0.806685 -0.007857
C3    C     C_2   0.582235 0.965273 0.491180 0.052582
C4    C     C_R   0.399577 0.498129 0.694485 0.529898
C5    C     C_2   0.434960 0.033212 0.496396 -0.138136
C6    C     C_R   0.456717 0.200124 0.495752 0.552416
C7    C     C_R   0.601615 0.511011 0.305890 0.543033
C8    C     C_R   0.879114 0.676115 0.053572 -0.128027
C9    C     C_R   0.662320 0.536652 0.195838 -0.006970
C10   C     C_R   0.152656 0.416564 0.848509 -0.135121
C11   C     C_R   0.098507 0.386079 0.952124 -0.136779
C12   C     C_R   0.417651 0.506993 0.975587 0.031486
C13   C     C_R   0.229273 0.427481 0.014884 -0.123885
C14   C     C_R   0.466148 0.553168 0.872123 0.025940
C15   C     C_R   0.558967 0.543873 0.035694 0.027184
C16   C     C_R   0.739108 0.638044 0.994884 0.047940
C17   C     C_R   0.776070 0.696729 0.896999 -0.142141
C18   C     C_R   0.640970 0.657172 0.837155 -0.124722
C19   C     C_R   0.527126 0.489809 0.135316 -0.132548
C20   C     C_R   0.840552 0.626390 0.153938 -0.140789
Cu1   Cu    Cu3+1 0.321300 0.483160 0.488710 0.944740
Cu2   Cu    Cu3+1 0.678700 0.516840 0.511290 0.948047
H1    H     H_    0.946565 0.663802 0.199911 0.136477
H2    H     H_    0.955097 0.325956 0.983694 0.129224
H3    H     H_    0.674364 0.712792 0.764035 0.140008
H4    H     H_    0.803957 0.117416 0.537914 0.261842
H5    H     H_    0.810773 0.113466 0.407679 0.232946
H6    H     H_    0.291659 0.963399 0.504661 0.115861
H7    H     H_    0.010139 0.615564 0.580322 0.238194
H8    H     H_    0.990384 0.385507 0.419123 0.233793
H9    H     H_    0.910195 0.774033 0.866464 0.107311
H10   H     H_    0.016824 0.747864 0.022638 0.118123
H11   H     H_    0.396071 0.413101 0.169029 0.116619
H12   H     H_    0.051008 0.374105 0.800483 0.138893
H13   H     H_    0.176641 0.398868 0.094227 0.104424
N1    N     N_2   0.947230 0.542220 0.528320 -0.257059
N2    N     N_2   0.052770 0.457780 0.471680 -0.258161
N3    N     N_3   0.777286 0.047721 0.473906 -0.610662
O1    O     O_R   0.383920 0.714220 0.492660 -0.526235
O2    O     O_R   0.685730 0.742660 0.511730 -0.471985
O3    O     O_R   0.275440 0.478800 0.636790 -0.508345
O4    O     O_R   0.577250 0.507240 0.655860 -0.505734
O5    O     O_R   0.314270 0.257340 0.488270 -0.492517
O6    O     O_R   0.616080 0.285780 0.507340 -0.508981
O7    O     O_R   0.422750 0.492760 0.344140 -0.502321
O8    O     O_R   0.724560 0.521200 0.363210 -0.508046

loop_
_geom_bond_atom_site_label_1
_geom_bond_atom_site_label_2
_ccdc_geom_bond_type
C2    C4    S    
C20   H1    S    
C5    H6    S    
Cu2   N1    S    
C14   C18   A    
C9    C20   A    
Cu1   O1    S    
C12   C15   A    
Cu2   O2    S    
C17   C18   A    
C10   H12   S    
C6    O6    A    
Cu1   Cu2   S    
C15   C19   A    
C11   C13   A    
H7    N1    S    
Cu2   O4    S    
C18   H3    S    
C4    O4    A    
C8    C20   A    
C17   H9    S    
C7    O7    A    
N1    N2    D    
Cu2   O8    S    
C12   C14   A    
C13   H13   S    
Cu1   O7    S    
C6    O5    A    
C19   H11   S    
C5    C6    S    
C2    C14   A    
Cu1   O3    S    
C4    O3    A    
C1    O1    A    
H5    N3    S    
C15   C16   A    
C2    C10   A    
C7    O8    A    
C11   H2    S    
Cu1   N2    S    
C12   C13   A    
C3    N3    S    
C8    C16   A    
C10   C11   A    
C7    C9    S    
H4    N3    S    
C1    O2    A    
C3    C5    D    
Cu1   O5    S    
C9    C19   A    
Cu2   O6    S    
H8    N2    S    
C16   C17   A    
C1    C3    S    
C8    H10   S    
