data_mof_unit_37669.cif
_audit_creation_date              2012-12-10T18:42:41-0500
_audit_creation_method            fapswitch 2.2
_symmetry_space_group_name_H-M    P1
_symmetry_Int_Tables_number       1
_space_group_crystal_system       triclinic
_cell_length_a                    10.841454
_cell_length_b                    15.119205
_cell_length_c                    13.879431
_cell_angle_alpha                 89.566969
_cell_angle_beta                  89.887064
_cell_angle_gamma                 90.763305
_cell_volume                      2274.7636132

loop_
_atom_site_label
_atom_site_type_symbol
_atom_type_description
_atom_site_fract_x
_atom_site_fract_y
_atom_site_fract_z
_atom_type_partial_charge
C1    C     C_R   0.501388 0.330000 0.500215 0.807403
C2    C     C_R   0.501546 0.670133 0.499779 0.807595
C3    C     C_R   0.871421 0.495618 0.500679 -0.088337
C4    C     C_R   0.128122 0.506819 0.499038 -0.077082
C5    C     C_R   0.938101 0.468468 0.582820 0.004689
C6    C     C_R   0.061115 0.532805 0.416236 -0.008109
C7    C     C_R   0.455357 0.093591 0.575800 -0.175452
C8    C     C_R   0.473821 0.905912 0.417777 -0.163507
C9    C     C_R   0.454237 0.185307 0.576853 -0.223654
C10   C     C_R   0.472909 0.814134 0.417004 -0.253043
C11   C     C_R   0.505807 0.233736 0.500317 -0.096990
C12   C     C_R   0.505876 0.766688 0.499704 -0.091608
C13   C     C_R   0.560846 0.189754 0.423202 -0.273402
C14   C     C_R   0.543017 0.812004 0.582707 -0.261828
C15   C     C_R   0.566735 0.097657 0.423252 0.436426
C16   C     C_R   0.549025 0.904159 0.582955 0.435183
C17   C     C_R   0.511700 0.048939 0.499577 0.010737
C18   C     C_R   0.511889 0.951735 0.500267 0.012143
C19   C     C_R   0.587573 0.550539 0.107554 -0.376612
C20   C     C_R   0.450626 0.431015 0.894629 -0.359763
C21   C     C_R   0.584452 0.551525 0.209641 0.670238
C22   C     C_R   0.447130 0.431400 0.793027 0.674322
C23   C     C_R   0.262230 0.503646 0.499715 0.783634
C24   C     C_R   0.737635 0.497335 0.500181 0.790881
C25   C     C_R   0.413314 0.452450 0.209697 0.015027
C26   C     C_R   0.551284 0.569900 0.789273 0.001391
C27   C     C_R   0.410001 0.453880 0.108457 -0.286004
C28   C     C_R   0.550456 0.573278 0.890728 -0.296049
C29   C     C_R   0.498695 0.502810 0.054951 0.095813
C30   C     C_R   0.499674 0.502879 0.945738 0.088537
C31   C     C_R   0.235952 0.684024 0.242894 -0.139893
C32   C     C_R   0.749745 0.310424 0.739359 -0.101807
C33   C     C_R   0.188176 0.648076 0.328584 -0.099877
C34   C     C_R   0.809983 0.347675 0.659348 -0.112434
C35   C     C_R   0.118515 0.569037 0.326882 0.128027
C36   C     C_R   0.878794 0.426678 0.668579 0.126871
C37   C     C_R   0.096314 0.527399 0.238222 -0.163317
C38   C     C_R   0.888867 0.466491 0.759404 -0.160277
C39   C     C_R   0.144341 0.563598 0.152906 -0.142554
C40   C     C_R   0.828648 0.428876 0.839289 -0.139081
C41   C     C_R   0.214535 0.641660 0.155286 -0.103549
C42   C     C_R   0.758869 0.351092 0.829209 -0.109377
C43   C     C_R   0.933373 0.526832 0.418628 -0.242292
C44   C     C_R   0.065493 0.477622 0.581942 -0.247729
Cu1   Cu    Cu3+1 0.500000 0.499990 0.596430 0.971546
Cu2   Cu    Cu3+1 0.500000 0.500010 0.403570 0.973656
H1    H     H_    0.251849 0.669545 0.089177 0.125448
H2    H     H_    0.711601 0.322475 0.890974 0.131426
H3    H     H_    0.660755 0.585876 0.070177 0.145053
H4    H     H_    0.417536 0.373109 0.932972 0.149778
H5    H     H_    0.345096 0.413863 0.249191 0.146345
H6    H     H_    0.593026 0.624037 0.749106 0.140589
H7    H     H_    0.336938 0.417360 0.072956 0.136402
H8    H     H_    0.588914 0.631279 0.925206 0.141272
H9    H     H_    0.288393 0.745290 0.243937 0.112136
H10   H     H_    0.695411 0.250331 0.731549 0.135817
H11   H     H_    0.204319 0.682090 0.395890 0.105788
H12   H     H_    0.801510 0.315859 0.589956 0.096756
H13   H     H_    0.041669 0.466988 0.235276 0.128256
H14   H     H_    0.941433 0.527340 0.767893 0.120988
H15   H     H_    0.127301 0.531039 0.084943 0.124434
H16   H     H_    0.835312 0.460382 0.908893 0.130177
H17   H     H_    0.881909 0.548877 0.356254 0.202463
H18   H     H_    0.115963 0.458519 0.645601 0.138315
H19   H     H_    0.410637 0.057434 0.634082 0.182627
H20   H     H_    0.443354 0.941155 0.354104 0.181298
H21   H     H_    0.410111 0.218277 0.636123 0.200899
H22   H     H_    0.444607 0.780279 0.352262 0.148735
H23   H     H_    0.601021 0.226734 0.363484 0.166426
H24   H     H_    0.569171 0.776170 0.647236 0.156950
N1    N     N_R   0.500000 0.500020 0.258690 -0.208312
N2    N     N_R   0.500000 0.499980 0.741310 -0.205260
O1    O     O_R   0.500010 0.371450 0.581430 -0.530263
O2    O     O_R   0.499990 0.628550 0.418570 -0.567880
O3    O     O_R   0.500010 0.371460 0.418560 -0.596520
O4    O     O_R   0.499990 0.628540 0.581440 -0.601739
O5    O     O_R   0.319640 0.500000 0.581430 -0.585474
O6    O     O_R   0.680360 0.500000 0.418570 -0.542541
O7    O     O_R   0.319640 0.500010 0.418560 -0.583785
O8    O     O_R   0.680360 0.499990 0.581440 -0.577442
O9    O     O_3   0.619448 0.055835 0.345429 -0.591073
C45   C     C_3   0.745336 0.042006 0.365138 0.063619
H25   H     H_    0.757167 0.001364 0.431574 0.123847
H26   H     H_    0.795563 0.106300 0.373149 0.136934
C46   C     C_3   0.802383 0.991992 0.281873 -0.782416
H27   H     H_    0.793837 0.030909 0.214082 0.248759
H28   H     H_    0.901587 0.980525 0.296479 0.195574
H29   H     H_    0.754666 0.927060 0.273145 0.244947
O10   O     O_3   0.583897 0.946988 0.666426 -0.591015
C47   C     C_3   0.712281 0.963189 0.663323 0.060745
H30   H     H_    0.737551 0.006549 0.601043 0.125403
H31   H     H_    0.763770 0.900034 0.658821 0.136017
C48   C     C_3   0.751253 0.010608 0.754800 -0.779020
H32   H     H_    0.729101 0.968785 0.818815 0.247850
H33   H     H_    0.852144 0.024225 0.753060 0.194017
H34   H     H_    0.702035 0.074328 0.760645 0.245731
O11   O     O_3   0.673556 0.597151 0.261618 -0.573106
C49   C     C_3   0.683122 0.687368 0.233834 0.033619
H35   H     H_    0.667078 0.728166 0.298709 0.181610
H36   H     H_    0.614379 0.709103 0.179118 0.114658
C50   C     C_3   0.813293 0.707682 0.197635 -0.832514
H37   H     H_    0.834524 0.666982 0.133657 0.241800
H38   H     H_    0.821585 0.778698 0.177374 0.210403
H39   H     H_    0.881459 0.693171 0.255074 0.256541
O12   O     O_3   0.401270 0.357866 0.745884 -0.581562
C51   C     C_3   0.272615 0.347352 0.760991 0.041360
H40   H     H_    0.229091 0.340195 0.689191 0.169858
H41   H     H_    0.227677 0.404282 0.797264 0.115921
C52   C     C_3   0.244605 0.262261 0.817041 -0.851476
H42   H     H_    0.279944 0.266431 0.891714 0.236312
H43   H     H_    0.143221 0.251062 0.820295 0.217604
H44   H     H_    0.287219 0.204960 0.780917 0.249398

loop_
_geom_bond_atom_site_label_1
_geom_bond_atom_site_label_2
_ccdc_geom_bond_type
C8    H20   S    
C48   H32   S    
C27   C29   A    
C26   N2    A    
C1    C11   S    
C2    C12   S    
C9    H21   S    
O9    C45   S    
C43   H17   S    
C15   O9    S    
C20   C30   A    
C46   H27   S    
C44   H18   S    
C3    C43   A    
C50   H37   S    
C13   H23   S    
C21   N1    A    
Cu1   O4    S    
C35   C37   A    
C52   H43   S    
Cu2   O7    S    
C51   H40   S    
C5    C36   S    
C40   H16   S    
C6    C35   S    
Cu1   O1    S    
C45   H26   S    
C20   H4    S    
C24   O8    A    
C7    C17   A    
C31   C33   A    
C25   N1    A    
C2    O2    A    
C40   C42   A    
C16   O10   S    
C50   H38   S    
Cu1   N2    S    
C14   H24   S    
C3    C24   S    
C22   N2    A    
Cu2   O3    S    
O11   C49   S    
C46   H28   S    
C39   H15   S    
C1    O3    A    
C4    C6    A    
C52   H44   S    
Cu2   O6    S    
C4    C23   S    
C28   H8    S    
C4    C44   A    
Cu1   Cu2   S    
C8    C18   A    
C32   C34   A    
C25   H5    S    
C29   C30   S    
C26   H6    S    
C7    H19   S    
C21   O11   S    
C19   H3    S    
C47   H31   S    
C17   C18   S    
C41   H1    S    
C16   C18   A    
C42   H2    S    
C23   O5    A    
C9    C11   A    
Cu2   N1    S    
C37   H13   S    
C10   C12   A    
C38   H14   S    
C24   O6    A    
C5    C44   A    
C12   C14   A    
C45   H25   S    
C48   H34   S    
C49   H36   S    
C6    C43   A    
C13   C15   A    
C14   C16   A    
C49   C50   S    
Cu2   O2    S    
C2    O4    A    
C47   C48   S    
C46   H29   S    
C15   C17   A    
C33   H11   S    
C31   C41   A    
C19   C21   A    
C20   C22   A    
C3    C5    A    
C27   H7    S    
C23   O7    A    
C10   H22   S    
C25   C27   A    
C45   C46   S    
O12   C51   S    
C26   C28   A    
C1    O1    A    
C28   C30   A    
C37   C39   A    
C52   H42   S    
C38   C40   A    
C11   C13   A    
C47   H30   S    
C48   H33   S    
C51   H41   S    
C36   C38   A    
C33   C35   A    
Cu1   O8    S    
C34   C36   A    
C22   O12   S    
C7    C9    A    
C39   C41   A    
C8    C10   A    
C49   H35   S    
C34   H12   S    
C32   C42   A    
Cu1   O5    S    
C50   H39   S    
C31   H9    S    
O10   C47   S    
C32   H10   S    
C51   C52   S    
C19   C29   A    
