data_mof_unit_57391.cif
_audit_creation_date              2012-12-11T16:08:33-0500
_audit_creation_method            fapswitch 2.2
_symmetry_space_group_name_H-M    P1
_symmetry_Int_Tables_number       1
_space_group_crystal_system       triclinic
_cell_length_a                    12.976791
_cell_length_b                    13.27346
_cell_length_c                    27.722691
_cell_angle_alpha                 94.658112
_cell_angle_beta                  90.596624
_cell_angle_gamma                 119.292268
_cell_volume                      4143.90706225

loop_
_atom_site_label
_atom_site_type_symbol
_atom_type_description
_atom_site_fract_x
_atom_site_fract_y
_atom_site_fract_z
_atom_type_partial_charge
C1    C     C_R   0.628297 0.893807 0.428146 0.548644
C2    C     C_R   0.577813 0.262089 0.220338 -0.094382
C3    C     C_R   0.566159 0.246785 0.269680 -0.098985
C4    C     C_R   0.662439 0.314014 0.303130 0.036343
C5    C     C_R   0.686109 0.344299 0.204086 0.035802
C6    C     C_1   0.695572 0.367333 0.153974 -0.051339
C7    C     C_1   0.649324 0.294300 0.353589 -0.054605
C8    C     C_1   0.704321 0.394753 0.113164 -0.008099
C9    C     C_R   0.174808 0.750043 0.350825 -0.132730
C10   C     C_R   0.161598 0.742137 0.300819 0.014189
C11   C     C_R   0.150369 0.731645 0.200185 0.010586
C12   C     C_R   0.600682 0.221835 0.440507 0.544087
C13   C     C_R   0.141722 0.637639 0.222957 -0.142052
C14   C     C_R   0.145404 0.642146 0.273106 -0.143660
C15   C     C_R   0.137387 0.722920 0.150332 -0.126540
C16   C     C_R   0.125545 0.807340 0.127397 -0.007583
C17   C     C_R   0.211309 0.948697 0.356426 -0.126260
C18   C     C_R   0.194038 0.940728 0.306173 -0.007147
C19   C     C_R   0.172828 0.838341 0.278188 0.061988
C20   C     C_R   0.205991 0.035974 0.283317 -0.151973
C21   C     C_R   0.195020 0.029737 0.232707 -0.025918
C22   C     C_R   0.171462 0.926449 0.204374 -0.001702
C23   C     C_R   0.268436 0.876217 0.425816 0.547975
C24   C     C_R   0.165182 0.832488 0.227576 0.052629
C25   C     C_R   0.148358 0.911442 0.153854 -0.138697
C26   C     C_R   0.208598 0.855656 0.378323 -0.000491
C27   C     C_R   0.765520 0.904311 0.363555 -0.022761
C28   C     C_R   0.775705 0.893602 0.313287 0.002008
C29   C     C_R   0.787464 0.886282 0.212524 0.006541
C30   C     C_R   0.887998 0.960956 0.242390 -0.130314
C31   C     C_R   0.883241 0.962896 0.292320 -0.122060
C32   C     C_R   0.793880 0.883356 0.162869 -0.122285
C33   C     C_R   0.697870 0.800413 0.132061 -0.002776
C34   C     C_R   0.627621 0.898457 0.564859 0.547711
C35   C     C_R   0.554326 0.765039 0.352133 -0.144425
C36   C     C_R   0.564515 0.748419 0.302686 0.006532
C37   C     C_R   0.673834 0.817151 0.282858 0.050068
C38   C     C_R   0.465077 0.670419 0.272344 -0.118577
C39   C     C_R   0.473372 0.661766 0.222174 -0.117841
C40   C     C_R   0.580419 0.733059 0.201776 0.015636
C41   C     C_R   0.680586 0.811708 0.232389 0.064344
C42   C     C_R   0.590413 0.726021 0.151469 -0.133372
C43   C     C_R   0.651911 0.849399 0.381896 -0.017873
C44   C     C_R   0.739841 0.290602 0.651228 -0.132395
C45   C     C_R   0.604349 0.228301 0.577988 0.544909
C46   C     C_R   0.756416 0.319622 0.701228 0.005344
C47   C     C_R   0.768965 0.352693 0.802847 0.019217
C48   C     C_R   0.845325 0.321383 0.778966 -0.097225
C49   C     C_R   0.838839 0.304560 0.728409 -0.103133
C50   C     C_R   0.772914 0.367826 0.853504 -0.116107
C51   C     C_R   0.694356 0.397355 0.876551 0.001023
C52   C     C_R   0.585051 0.343389 0.647981 -0.128705
C53   C     C_R   0.599855 0.371951 0.697824 0.013807
C54   C     C_R   0.682751 0.355877 0.724819 0.060676
C55   C     C_R   0.526579 0.407534 0.721435 -0.124061
C56   C     C_R   0.271781 0.879253 0.563342 0.549162
C57   C     C_R   0.530731 0.421003 0.771771 -0.127362
C58   C     C_R   0.609126 0.400259 0.798790 0.007323
C59   C     C_R   0.687692 0.370502 0.775506 0.060898
C60   C     C_R   0.610965 0.410399 0.848863 -0.130986
C61   C     C_R   0.648516 0.294695 0.625285 -0.004502
C62   C     C_1   0.219982 0.860786 0.609530 -0.007083
C63   C     C_R   0.143529 0.732673 0.719825 -0.110365
C64   C     C_R   0.129283 0.720746 0.769752 0.070194
C65   C     C_R   0.151758 0.915239 0.780599 -0.146590
C66   C     C_R   0.165280 0.924945 0.730988 -0.115346
C67   C     C_1   0.631628 0.268291 0.394580 -0.010129
C68   C     C_R   0.161575 0.833883 0.700554 0.008794
C69   C     C_R   0.134970 0.814710 0.800464 0.010946
C70   C     C_1   0.119396 0.808754 0.851873 -0.000453
C71   C     C_1   0.188398 0.847971 0.650423 -0.052313
C72   C     C_1   0.097817 0.795770 0.893871 0.032233
C73   C     C_1   0.649055 0.858618 0.608564 -0.013374
C74   C     C_R   0.788919 0.843055 0.717432 -0.101893
C75   C     C_R   0.801145 0.827521 0.766092 -0.099588
C76   C     C_R   0.587703 0.724928 0.770024 -0.102673
C77   C     C_R   0.575461 0.740325 0.721369 -0.103781
C78   C     C_R   0.771025 0.395882 0.286901 -0.101581
C79   C     C_R   0.676023 0.800927 0.695123 0.034819
C80   C     C_R   0.700611 0.770249 0.792749 0.038805
C81   C     C_1   0.713846 0.762812 0.843821 -0.058443
C82   C     C_1   0.663001 0.829819 0.647226 -0.057097
C83   C     C_1   0.727673 0.758591 0.886583 -0.015285
C84   C     C_R   0.065364 0.772465 0.079187 0.547245
C85   C     C_R   0.717267 0.441405 0.067315 0.549668
C86   C     C_R   0.722809 0.781767 0.081891 0.557387
C87   C     C_R   0.056112 0.766186 0.941168 0.542329
C88   C     C_R   0.711346 0.438021 0.928059 0.538187
C89   C     C_R   0.782684 0.411228 0.237483 -0.103063
C90   C     C_R   0.749203 0.753781 0.937062 0.563775
Cr1   Cr    Cr6+3 0.416430 0.829200 0.492370 1.026351
Cr2   Cr    Cr6+3 0.674630 0.087020 0.504170 1.045928
Cr3   Cr    Cr6+3 0.408920 0.083740 0.503490 1.035724
Cr4   Cr    Cr6+3 0.914010 0.832750 0.013970 1.023802
Cr5   Cr    Cr6+3 0.922310 0.578600 0.003000 1.029716
Cr6   Cr    Cr6+3 0.656280 0.574630 0.003870 1.029804
H1    H     H_    0.846270 0.447835 0.312337 0.114118
H2    H     H_    0.224887 0.115644 0.304912 0.117245
H3    H     H_    0.236572 0.030299 0.377789 0.139993
H4    H     H_    0.878133 0.940944 0.148582 0.144373
H5    H     H_    0.970374 0.018181 0.227026 0.129005
H6    H     H_    0.962991 0.022650 0.314141 0.131436
H7    H     H_    0.516526 0.661642 0.127764 0.124033
H8    H     H_    0.395737 0.601050 0.199346 0.119696
H9    H     H_    0.380550 0.617320 0.287386 0.113453
H10   H     H_    0.866423 0.476191 0.225395 0.120818
H11   H     H_    0.467579 0.719042 0.366555 0.137703
H12   H     H_    0.838400 0.359542 0.874838 0.123474
H13   H     H_    0.790592 0.254846 0.633479 0.135198
H14   H     H_    0.908434 0.307841 0.799365 0.118064
H15   H     H_    0.896139 0.276995 0.710634 0.126240
H16   H     H_    0.551307 0.435600 0.866161 0.139952
H17   H     H_    0.471577 0.446079 0.789572 0.114082
H18   H     H_    0.463296 0.420924 0.701053 0.116643
H19   H     H_    0.516565 0.349154 0.627643 0.132133
H20   H     H_    0.141878 0.663355 0.695672 0.150689
H21   H     H_    0.502117 0.210930 0.195015 0.127227
H22   H     H_    0.155023 0.986816 0.803658 0.114618
H23   H     H_    0.180702 0.004282 0.716522 0.120550
H24   H     H_    0.867381 0.890786 0.697700 0.114319
H25   H     H_    0.888930 0.862760 0.783257 0.115326
H26   H     H_    0.509351 0.680304 0.790201 0.121408
H27   H     H_    0.487723 0.708112 0.704665 0.122648
H28   H     H_    0.481971 0.182644 0.281776 0.120610
H29   H     H_    0.123270 0.643401 0.130031 0.138726
H30   H     H_    0.170801 0.677446 0.367779 0.128564
H31   H     H_    0.129529 0.559666 0.201960 0.112107
H32   H     H_    0.138081 0.568495 0.290210 0.106913
H33   H     H_    0.141124 0.976851 0.135463 0.138172
O1    O     O_R   0.296680 0.802170 0.437540 -0.522795
O2    O     O_R   0.662610 0.183990 0.557860 -0.505534
O3    O     O_R   0.500730 0.201280 0.562180 -0.514852
O4    O     O_R   0.312500 0.978850 0.548170 -0.491127
O5    O     O_3   0.499990 0.999990 0.500010 -0.249301
O6    O     O_R   0.820790 0.857990 0.068830 -0.516998
O7    O     O_R   0.016700 0.827330 0.062850 -0.500765
O8    O     O_R   0.041970 0.673520 0.060040 -0.519497
O9    O     O_R   0.817980 0.483660 0.048840 -0.494169
O10   O     O_R   0.637200 0.461990 0.052510 -0.501597
O11   O     O_R   0.664790 0.681920 0.057970 -0.491211
O12   O     O_R   0.525380 0.838530 0.443500 -0.509237
O13   O     O_R   0.815840 0.852920 0.961840 -0.499590
O14   O     O_R   0.012100 0.822630 0.963670 -0.522562
O15   O     O_R   0.037010 0.668460 0.953040 -0.483369
O16   O     O_R   0.813390 0.478970 0.949660 -0.496610
O17   O     O_R   0.632250 0.456930 0.945520 -0.529178
O18   O     O_R   0.660200 0.677230 0.958780 -0.492894
O19   O     O_3   0.830870 0.661990 0.006950 -0.271998
O20   O     O_R   0.702130 0.995190 0.446810 -0.491549
O21   O     O_R   0.661770 0.181390 0.458760 -0.491052
O22   O     O_R   0.499820 0.198480 0.455280 -0.510567
O23   O     O_R   0.311660 0.976250 0.449080 -0.498826
O24   O     O_R   0.297580 0.804960 0.544440 -0.507037
O25   O     O_R   0.526220 0.841130 0.542590 -0.494811
O26   O     O_R   0.703030 0.997990 0.553710 -0.506842
C91   C     C_1   0.210893 0.131343 0.210937 0.154069
N1    N     N_1   0.223671 0.212772 0.193541 -0.316969
C92   C     C_1   0.869992 0.973825 0.395906 0.212895
N2    N     N_1   0.953388 0.029064 0.421627 -0.302039
C93   C     C_2   0.110038 0.610264 0.788077 0.565924
O27   O     O_2   0.127341 0.541686 0.762020 -0.551234
O28   O     O_R   0.071300 0.583025 0.834544 -0.694450
H34   H     H_    0.063346 0.506400 0.842475 0.331064

loop_
_geom_bond_atom_site_label_1
_geom_bond_atom_site_label_2
_ccdc_geom_bond_type
C66   C68   A    
C23   O23   A    
C48   H14   S    
C35   C36   A    
Cr5   O16   S    
C25   H33   S    
C42   H7    S    
Cr6   O10   S    
C56   O4    A    
C39   H8    S    
Cr1   O1    S    
C53   C54   A    
C52   C53   A    
C27   C92   S    
C5    C6    S    
C46   C49   A    
C90   O18   A    
C60   H16   S    
Cr4   O14   S    
C36   C37   A    
Cr1   O24   S    
C29   C32   A    
Cr3   O4    S    
C52   C61   A    
C38   C39   A    
C58   C60   A    
C15   C16   A    
C11   C24   A    
C16   C84   S    
C14   H32   S    
C8    C85   S    
C23   C26   S    
C45   C61   S    
Cr6   O18   S    
C11   C15   A    
C1    C43   S    
C84   O7    A    
C22   C25   A    
C89   H10   S    
Cr4   O7    S    
C88   O16   A    
C1    O20   A    
C87   O15   A    
Cr3   O3    S    
C35   C43   A    
C75   C80   A    
C85   O10   A    
C18   C20   A    
C86   O11   A    
C49   H15   S    
C44   H13   S    
C34   O25   A    
Cr5   O15   S    
C21   C22   A    
C50   H12   S    
C12   O22   A    
C46   C54   A    
C4    C7    S    
C81   C83   T    
C2    H21   S    
C44   C46   A    
C9    C26   A    
C17   C18   A    
C47   C50   A    
C54   C59   A    
C53   C55   A    
C78   C89   A    
Cr4   O19   S    
Cr6   O19   S    
C12   C67   S    
Cr5   O8    S    
C74   C75   A    
Cr4   O13   S    
C31   H6    S    
C12   O21   A    
Cr2   O2    S    
C35   H11   S    
C76   C77   A    
Cr1   O25   S    
Cr3   O5    S    
C10   C14   A    
C39   C40   A    
C18   C19   A    
C57   H17   S    
C50   C51   A    
C58   C59   A    
C34   O26   A    
C47   C59   A    
C32   H4    S    
C23   O1    A    
C93   O28   S    
C33   C86   S    
C4    C78   A    
C29   C30   A    
C77   H27   S    
C47   C48   A    
C10   C19   A    
C65   H22   S    
C64   C93   S    
C78   H1    S    
Cr4   O6    S    
C77   C79   A    
C64   C69   A    
C17   H3    S    
C90   O13   A    
C63   H20   S    
C56   O24   A    
C40   C41   A    
C84   O8    A    
C45   O2    A    
C74   C79   A    
C55   C57   A    
Cr2   O21   S    
C92   N2    T    
C22   C24   A    
Cr3   O22   S    
C2    C5    A    
C17   C26   A    
C3    C4    A    
C73   C82   T    
C27   C28   A    
C72   C87   S    
C74   H24   S    
C3    H28   S    
O28   H34   S    
C9    C10   A    
C52   H19   S    
C16   C25   A    
C83   C90   S    
C33   C42   A    
C63   C68   A    
C48   C49   A    
Cr5   O9    S    
C91   N1    T    
C29   C41   A    
C75   H25   S    
C28   C31   A    
Cr2   O5    S    
Cr5   O19   S    
C76   C80   A    
C80   C81   S    
C51   C88   S    
Cr6   O11   S    
C79   C82   S    
C6    C8    T    
C55   H18   S    
C44   C61   A    
Cr6   O17   S    
C9    H30   S    
C66   H23   S    
C76   H26   S    
C93   O27   D    
C38   H9    S    
C36   C38   A    
C19   C24   A    
C32   C33   A    
C11   C13   A    
C57   C58   A    
C30   C31   A    
Cr1   O5    S    
C28   C37   A    
C68   C71   S    
C65   C69   A    
C30   H5    S    
C40   C42   A    
C21   C91   S    
C62   C71   T    
C2    C3    A    
Cr2   O26   S    
C56   C62   S    
C37   C41   A    
C69   C70   S    
C1    O12   A    
C34   C73   S    
C7    C67   T    
C63   C64   A    
C13   H31   S    
C27   C43   A    
C86   O6    A    
C20   H2    S    
C20   C21   A    
C45   O3    A    
C65   C66   A    
C15   H29   S    
Cr2   O20   S    
C88   O17   A    
Cr3   O23   S    
C70   C72   T    
C51   C60   A    
C87   O14   A    
C13   C14   A    
C85   O9    A    
C5    C89   A    
Cr1   O12   S    
