data_mof_unit_62641.cif
_audit_creation_date              2013-03-05T15:46:07-0500
_audit_creation_method            fapswitch 2.2
_symmetry_space_group_name_H-M    P1
_symmetry_Int_Tables_number       1
_space_group_crystal_system       triclinic
_cell_length_a                    13.865302
_cell_length_b                    11.07316
_cell_length_c                    9.966495
_cell_angle_alpha                 111.953964
_cell_angle_beta                  92.836042
_cell_angle_gamma                 93.544599
_cell_volume                      1412.14402199

loop_
_atom_site_label
_atom_site_type_symbol
_atom_site_description
_atom_site_fract_x
_atom_site_fract_y
_atom_site_fract_z
_atom_type_partial_charge
O1    O     O_R   0.508810 0.332170 0.576290 -0.555566
O2    O     O_R   0.491190 0.667830 0.423710 -0.566444
O3    O     O_R   0.480920 0.295870 0.335040 -0.528453
O4    O     O_R   0.519080 0.704130 0.664960 -0.565006
C1    C     C_R   0.493313 0.254156 0.440241 0.754428
C2    C     C_R   0.509900 0.745340 0.559354 0.760989
O5    O     O_R   0.378070 0.520740 0.637680 -0.534210
O6    O     O_R   0.621930 0.479260 0.362320 -0.519981
O7    O     O_R   0.350180 0.484440 0.396440 -0.585424
O8    O     O_R   0.649820 0.515560 0.603560 -0.561858
C3    C     C_R   0.319971 0.502840 0.523727 0.824234
C4    C     C_R   0.679990 0.496540 0.476080 0.825857
Cu1   Cu    Cu3+1 0.516510 0.521490 0.642840 1.084673
Cu2   Cu    Cu3+1 0.483490 0.478510 0.357160 1.093340
N1    N     N_2   0.458660 0.446210 0.142550 -0.291689
N2    N     N_2   0.541340 0.553790 0.857450 -0.305017
C5    C     C_1   0.781278 0.490890 0.459510 -0.017179
C6    C     C_1   0.218148 0.498910 0.537558 -0.038967
C7    C     C_2   0.969362 0.476074 0.434911 0.190725
C8    C     C_2   0.028300 0.482700 0.551221 0.192359
C9    C     C_2   0.519031 0.495409 0.074301 0.284447
C10   C     C_2   0.500483 0.476501 0.915956 0.281486
C11   C     C_1   0.131986 0.492617 0.545460 0.087575
C12   C     C_1   0.866726 0.484671 0.447353 0.094816
C13   C     C_2   0.483763 0.112963 0.406198 0.121694
C14   C     C_2   0.532868 0.884248 0.592699 0.144649
C15   C     C_2   0.526968 0.065426 0.499195 -0.116573
C16   C     C_2   0.485804 0.943426 0.515077 -0.104674
C17   C     C_1   0.581957 0.678114 0.945831 0.537431
N3    N     N_1   0.615953 0.781768 0.018093 -0.139243
C18   C     C_1   0.361169 0.420817 0.091845 0.517590
N4    N     N_1   0.279950 0.399895 0.050856 -0.136956
N5    N     N_R   0.991003 0.485945 0.685254 0.144961
O9    O     O_R   0.045671 0.537974 0.806114 -0.246680
O10   O     O_R   0.909590 0.420567 0.684798 -0.296010
N6    N     N_R   0.006355 0.466923 0.298738 0.140879
O11   O     O_R   0.957029 0.507893 0.211982 -0.225552
O12   O     O_R   0.080276 0.400762 0.250977 -0.301914
C19   C     C_1   0.387554 0.889856 0.453775 0.355443
N7    N     N_1   0.309518 0.847088 0.405689 -0.179484
C20   C     C_1   0.616921 0.135034 0.580918 0.399014
N8    N     N_1   0.688453 0.191032 0.644934 -0.120790
N9    N     N_R   0.610429 0.949728 0.701854 0.128802
O13   O     O_R   0.690795 0.894608 0.700377 -0.302870
O14   O     O_R   0.592360 0.045573 0.819287 -0.253090
N10   N     N_R   0.425568 0.029570 0.276987 0.142925
O15   O     O_R   0.350952 0.072417 0.230003 -0.282223
O16   O     O_R   0.454406 0.917561 0.196090 -0.329734
N11   N     N_R   0.445979 0.357022 0.824442 0.126741
O17   O     O_R   0.360132 0.360059 0.767848 -0.328153
O18   O     O_R   0.470568 0.247065 0.828865 -0.321835
N12   N     N_R   0.613960 0.549414 0.141347 0.130715
O19   O     O_R   0.689463 0.495083 0.080567 -0.280683
O20   O     O_R   0.625783 0.665801 0.242594 -0.329514

loop_
_geom_bond_atom_site_label_1
_geom_bond_atom_site_label_2
_geom_bond_distance
_ccdc_geom_bond_type
C4    C5    1.424631 S    
O5    Cu1   1.917075 S    
N2    C10   1.318805 D    
O7    Cu2   1.908268 S    
C3    C6    1.424862 S    
N1    C18   1.393133 S    
C17   N3    1.157451 T    
Cu1   Cu2   2.715451 S    
C13   C15   1.357889 D    
N9    O14   1.300802 A    
C20   N8    1.157923 T    
C15   C20   1.457484 S    
C14   C16   1.354871 D    
C18   N4    1.157650 T    
O1    C1    1.305125 A    
C8    C11   1.440656 S    
O6    C4    1.303296 A    
N9    O13   1.301304 A    
C7    C8    1.360955 D    
N6    O12   1.301605 A    
C7    C12   1.440475 S    
C2    C14   1.457574 S    
C9    C10   1.518763 S    
O5    C3    1.303630 A    
O7    C3    1.302377 A    
O2    C2    1.304511 A    
O3    Cu2   1.948567 S    
O8    C4    1.302687 A    
C10   N11   1.435004 S    
C1    C13   1.466408 S    
C8    N5    1.444979 S    
N6    O11   1.301656 A    
N5    O10   1.301652 A    
N12   O20   1.300447 A    
C14   N9    1.436576 S    
N5    O9    1.301603 A    
C7    N6    1.444906 S    
O2    Cu2   1.942095 S    
N10   O16   1.301451 A    
C5    C12   1.200473 T    
O1    Cu1   1.942094 S    
C6    C11   1.200589 T    
C19   N7    1.157707 T    
N1    C9    1.318025 D    
N12   O19   1.301138 A    
O4    C2    1.298181 A    
N11   O17   1.299528 A    
Cu1   N2    2.039920 S    
C15   C16   1.499766 S    
N10   O15   1.301382 A    
O6    Cu2   1.917077 S    
C16   C19   1.458645 S    
O3    C1    1.302427 A    
N2    C17   1.391613 S    
Cu2   N1    2.039919 S    
C13   N10   1.441536 S    
C9    N12   1.432974 S    
O4    Cu1   1.948569 S    
N11   O18   1.300242 A    
O8    Cu1   1.908269 S    
