data_mof_unit_54601.cif
_audit_creation_date              2012-12-10T17:13:36-0500
_audit_creation_method            fapswitch 2.2
_symmetry_space_group_name_H-M    P1
_symmetry_Int_Tables_number       1
_space_group_crystal_system       triclinic
_cell_length_a                    10.782303
_cell_length_b                    13.000501
_cell_length_c                    11.758977
_cell_angle_alpha                 99.878855
_cell_angle_beta                  93.150321
_cell_angle_gamma                 92.322146
_cell_volume                      1619.33304529

loop_
_atom_site_label
_atom_site_type_symbol
_atom_type_description
_atom_site_fract_x
_atom_site_fract_y
_atom_site_fract_z
_atom_type_partial_charge
C1    C     C_R   0.497553 0.299227 0.478636 0.802293
C2    C     C_3   0.877437 0.495572 0.497049 0.046850
C3    C     C_3   0.936471 0.598018 0.572227 -0.426536
C4    C     C_3   0.920804 0.489203 0.371235 -0.195869
C5    C     C_R   0.497574 0.814117 0.534671 -0.062648
C6    C     C_R   0.493722 0.185624 0.466945 -0.085072
C7    C     C_R   0.486647 0.014499 0.347944 -0.177053
C8    C     C_R   0.488108 0.122375 0.357536 -0.166825
C9    C     C_R   0.495398 0.140274 0.566750 -0.221865
C10   C     C_R   0.489695 0.031718 0.558955 0.142579
C11   C     C_R   0.488862 0.968886 0.447544 0.141987
C12   C     C_R   0.259991 0.499382 0.500356 0.746908
C13   C     C_R   0.492139 0.861056 0.436497 -0.252677
C14   C     C_R   0.496411 0.875327 0.644903 -0.258296
C15   C     C_R   0.489421 0.983648 0.658621 -0.001579
C16   C     C_R   0.383321 0.397485 0.022622 -0.243146
C17   C     C_R   0.392203 0.410102 0.144706 0.122580
C18   C     C_R   0.554052 0.541289 0.155225 0.160315
C19   C     C_R   0.539126 0.537157 0.033281 0.017273
C20   C     C_R   0.457450 0.461500 0.965542 0.033158
C21   C     C_R   0.452193 0.453027 0.842784 0.070582
C22   C     C_R   0.596477 0.598853 0.857563 0.171885
C23   C     C_R   0.500853 0.700718 0.521526 0.800174
C24   C     C_R   0.602687 0.608729 0.978056 -0.207931
C25   C     C_R   0.739756 0.497927 0.498929 0.753559
C26   C     C_3   0.067948 0.396516 0.539650 -0.151114
C27   C     C_3   0.925284 0.402216 0.550134 -0.313027
C28   C     C_3   0.079545 0.595953 0.580511 -0.345513
C29   C     C_3   0.064442 0.497779 0.373119 -0.189903
C30   C     C_3   0.121656 0.498083 0.499619 -0.003246
Cu1   Cu    Cu3+1 0.509350 0.507730 0.615930 0.942725
Cu2   Cu    Cu3+1 0.490650 0.492270 0.384070 0.951262
H1    H     H_    0.883597 0.557913 0.339305 0.155604
H2    H     H_    0.121092 0.668922 0.558054 0.138842
H3    H     H_    0.907903 0.666837 0.534246 0.156879
H4    H     H_    0.484750 0.966703 0.262656 0.149088
H5    H     H_    0.083595 0.328998 0.470651 0.127492
H6    H     H_    0.656906 0.674322 0.028442 0.220600
H7    H     H_    0.332856 0.361423 0.187186 0.131721
H8    H     H_    0.112914 0.595579 0.671470 0.241072
N1    N     N_R   0.523430 0.519360 0.790130 -0.231508
N2    N     N_R   0.476570 0.480640 0.209880 -0.216497
O1    O     O_R   0.506640 0.354460 0.582000 -0.592828
O2    O     O_R   0.490840 0.341410 0.386200 -0.589913
O3    O     O_R   0.325590 0.506510 0.597900 -0.566546
O4    O     O_R   0.309790 0.493450 0.402100 -0.565220
O5    O     O_R   0.509160 0.658590 0.613800 -0.607490
O6    O     O_R   0.493360 0.645540 0.418000 -0.604350
O7    O     O_R   0.690210 0.506550 0.597900 -0.610348
O8    O     O_R   0.674410 0.493490 0.402100 -0.613045
C31   C     C_2   0.131506 0.371651 0.649143 0.368175
H9    H     H_    0.192370 0.306700 0.643496 0.071344
O9    O     O_2   0.117798 0.424421 0.743614 -0.533192
H10   H     H_    0.491927 0.813805 0.350956 0.157477
H11   H     H_    0.497452 0.838345 0.720848 0.177166
C32   C     C_2   0.479441 0.040717 0.778282 0.338971
H12   H     H_    0.522759 0.010548 0.850504 0.102954
O10   O     O_2   0.416653 0.117011 0.798508 -0.565724
H13   H     H_    0.486578 0.156166 0.279470 0.167041
H14   H     H_    0.504322 0.190627 0.650125 0.204381
H15   H     H_    0.390797 0.393780 0.789552 0.149308
C33   C     C_2   0.670919 0.677491 0.808488 0.362582
H16   H     H_    0.700247 0.662775 0.721884 0.122734
O11   O     O_2   0.702714 0.762527 0.866774 -0.573877
H17   H     H_    0.317650 0.339043 0.973502 0.177630
C34   C     C_2   0.661274 0.604570 0.220234 0.285235
H18   H     H_    0.654373 0.651092 0.304051 0.126459
O12   O     O_2   0.762739 0.604657 0.178916 -0.588753
H19   H     H_    0.877084 0.327436 0.506780 0.175407
H20   H     H_    0.901334 0.412275 0.642161 0.205196
H21   H     H_    0.903377 0.608130 0.661205 0.198459
C35   C     C_2   0.105837 0.593016 0.323037 0.419016
H22   H     H_    0.082895 0.670773 0.363317 0.070646
O13   O     O_2   0.162812 0.582894 0.235201 -0.508621
H23   H     H_    0.097857 0.428045 0.316140 0.194354
C36   C     C_2   0.868090 0.393503 0.286762 0.407900
H24   H     H_    0.798236 0.402582 0.219697 0.128393
O14   O     O_2   0.902228 0.306065 0.292708 -0.566042

loop_
_geom_bond_atom_site_label_1
_geom_bond_atom_site_label_2
_ccdc_geom_bond_type
C34   O12   D    
C5    C13   A    
C7    H4    S    
C2    C4    S    
C19   C20   A    
C6    C9    A    
C7    C8    A    
C7    C11   A    
C26   C27   S    
C33   H16   S    
Cu1   O1    S    
C3    C28   S    
C36   O14   D    
C10   C15   A    
C18   N2    A    
C8    H13   S    
C22   N1    A    
C28   H8    S    
C32   H12   S    
C18   C19   A    
C17   H7    S    
C17   N2    A    
C33   O11   D    
C25   O8    A    
C1    O1    A    
C16   C17   A    
C24   H6    S    
C2    C27   S    
C9    C10   A    
C21   H15   S    
C4    C29   S    
C27   H19   S    
C29   C35   S    
C14   H11   S    
C28   H2    S    
Cu1   O5    S    
Cu2   O6    S    
Cu1   O7    S    
C23   O5    A    
C31   H9    S    
C34   H18   S    
C36   H24   S    
C12   O4    A    
C12   O3    A    
C6    C8    A    
C1    C6    S    
C31   O9    D    
C3    H21   S    
C29   C30   S    
C22   C33   S    
C1    O2    A    
Cu1   Cu2   S    
C5    C23   S    
C3    H3    S    
C16   C20   A    
Cu2   O2    S    
Cu2   O8    S    
C5    C14   A    
C27   H20   S    
C21   N1    A    
C35   O13   D    
C26   C30   S    
C22   C24   A    
C13   H10   S    
C4    H1    S    
C23   O6    A    
Cu1   N1    S    
C12   C30   S    
Cu2   O4    S    
C35   H22   S    
C26   H5    S    
C29   H23   S    
C18   C34   S    
C9    H14   S    
C15   C32   S    
C28   C30   S    
C19   C24   A    
C26   C31   S    
C11   C13   A    
C32   O10   D    
C2    C3    S    
C2    C25   S    
C25   O7    A    
C4    C36   S    
C10   C11   A    
C20   C21   A    
Cu1   O3    S    
Cu2   N2    S    
C14   C15   A    
C16   H17   S    
