data_mof_unit_66306.cif
_audit_creation_date              2012-10-26T17:59:07-0400
_audit_creation_method            fapswitch 2.2
_symmetry_space_group_name_H-M    P1
_symmetry_Int_Tables_number       1
_space_group_crystal_system       triclinic
_cell_length_a                    37.301421
_cell_length_b                    30.385082
_cell_length_c                    21.755035
_cell_angle_alpha                 90.000028
_cell_angle_beta                  54.645027
_cell_angle_gamma                 90.0
_cell_volume                      20110.0719785

loop_
_atom_site_label
_atom_site_type_symbol
_atom_type_description
_atom_site_fract_x
_atom_site_fract_y
_atom_site_fract_z
_atom_type_partial_charge
C1    C     C_R   0.085179 0.499852 0.416654 0.519653
C2    C     C_R   0.024890 0.525083 0.194123 -0.003417
C3    C     C_R   0.506189 0.343102 0.048948 -0.121514
C4    C     C_R   0.993812 0.843102 0.951051 -0.121514
C5    C     C_R   0.006188 0.843102 0.048949 -0.121514
C6    C     C_R   0.500000 0.585064 0.000000 0.547590
C7    C     C_R   0.000000 0.085064 0.000000 0.547589
C8    C     C_R   0.022433 0.297568 0.023639 -0.053748
C9    C     C_R   0.977567 0.297568 0.976361 -0.053748
C10   C     C_R   0.522433 0.797568 0.023639 -0.053748
C11   C     C_R   0.477567 0.797567 0.976361 -0.053747
C12   C     C_R   0.022089 0.343406 0.025383 0.223103
C13   C     C_R   0.475111 0.025084 0.805876 -0.003417
C14   C     C_R   0.977911 0.343406 0.974617 0.223102
C15   C     C_R   0.522089 0.843406 0.025383 0.223104
C16   C     C_R   0.477911 0.843406 0.974617 0.223103
C17   C     C_R   0.000000 0.366885 1.000000 0.012452
C18   C     C_R   0.500000 0.866885 1.000000 0.012452
C19   C     C_R   0.493671 0.297234 0.951270 -0.062045
C20   C     C_R   0.506329 0.297234 0.048730 -0.062045
C21   C     C_R   0.993671 0.797234 0.951269 -0.062045
C22   C     C_R   0.006328 0.797234 0.048731 -0.062045
C23   C     C_R   0.000000 0.274389 0.000000 -0.070699
C24   C     C_R   0.524890 0.025083 0.194123 -0.003417
C25   C     C_R   0.500000 0.774389 1.000000 -0.070698
C26   C     C_R   0.505496 0.702576 0.939372 -0.105658
C27   C     C_R   0.494504 0.702577 0.060628 -0.105658
C28   C     C_R   0.005496 0.202576 0.939372 -0.105658
C29   C     C_R   0.994504 0.202576 0.060628 -0.105658
C30   C     C_R   0.505394 0.656745 0.939441 -0.117490
C31   C     C_R   0.494606 0.656745 0.060559 -0.117490
C32   C     C_R   0.005394 0.156745 0.939441 -0.117490
C33   C     C_R   0.994605 0.156745 0.060559 -0.117490
C34   C     C_R   0.500000 0.633435 0.000000 0.015851
C35   C     C_3   0.942620 0.561608 0.843402 0.135617
C36   C     C_R   0.000000 0.133435 0.000000 0.015851
C37   C     C_R   0.500000 0.274151 1.000000 0.117637
C38   C     C_R   1.000000 0.774151 0.000000 0.117637
C39   C     C_R   0.038318 0.702784 0.978820 0.205166
C40   C     C_R   0.961681 0.702784 0.021180 0.205167
C41   C     C_R   0.538319 0.202784 0.978819 0.205166
C42   C     C_R   0.461681 0.202784 0.021181 0.205166
C43   C     C_R   0.977294 0.527068 0.741856 -0.067377
C44   C     C_R   0.022705 0.527069 0.258145 -0.067377
C45   C     C_R   0.477296 0.027070 0.741854 -0.067377
C46   C     C_3   0.057377 0.561611 0.156601 0.135615
C47   C     C_R   0.522705 0.027069 0.258144 -0.067378
C48   C     C_R   0.003722 0.499302 0.681387 -0.056124
C49   C     C_R   0.996278 0.499302 0.318613 -0.056125
C50   C     C_R   0.503722 0.999302 0.681387 -0.056126
C51   C     C_R   0.496278 0.999302 0.318613 -0.056124
C52   C     C_R   0.030494 0.468654 0.687627 0.282704
C53   C     C_R   0.969507 0.468653 0.312371 0.282705
C54   C     C_R   0.530492 0.968652 0.687630 0.282705
C55   C     C_R   0.469507 0.968653 0.312372 0.282704
C56   C     C_R   0.027831 0.466195 0.755106 0.273438
C57   C     C_3   0.442626 0.061613 0.843397 0.135615
C58   C     C_R   0.972170 0.466194 0.244892 0.273438
C59   C     C_R   0.527828 0.966193 0.755109 0.273437
C60   C     C_R   0.472170 0.966194 0.244893 0.273438
C61   C     C_3   0.557378 0.061610 0.156600 0.135616
C62   C     C_3   0.944482 0.563665 0.770411 0.155134
C63   C     C_3   0.055515 0.563668 0.229592 0.155135
C64   C     C_3   0.444488 0.063671 0.770406 0.155137
C65   C     C_R   0.914821 0.499852 0.583346 0.519652
C66   C     C_3   0.555516 0.063668 0.229591 0.155135
C67   C     C_R   0.202157 0.537692 0.280728 -0.170712
C68   C     C_R   0.797843 0.537691 0.719274 -0.170713
C69   C     C_R   0.702157 0.037691 0.280726 -0.170712
C70   C     C_R   0.297843 0.037692 0.719274 -0.170713
C71   C     C_R   0.156508 0.537437 0.328812 -0.174239
C72   C     C_R   0.843492 0.537437 0.671189 -0.174239
C73   C     C_R   0.656508 0.037437 0.328811 -0.174239
C74   C     C_R   0.343492 0.037437 0.671189 -0.174239
C75   C     C_R   0.133777 0.499508 0.369941 -0.043906
C76   C     C_R   0.585179 0.999852 0.416654 0.519653
C77   C     C_R   0.866223 0.499508 0.630059 -0.043907
C78   C     C_R   0.633777 0.999508 0.369941 -0.043906
C79   C     C_R   0.366223 0.999508 0.630058 -0.043906
C80   C     C_R   0.158104 0.461444 0.363004 0.297584
C81   C     C_R   0.841896 0.461445 0.636995 0.297583
C82   C     C_R   0.658104 0.961444 0.363005 0.297584
C83   C     C_R   0.341896 0.961445 0.636995 0.297584
C84   C     C_R   0.203937 0.461093 0.312112 0.314353
C85   C     C_R   0.796063 0.461093 0.687886 0.314354
C86   C     C_R   0.703937 0.961093 0.312112 0.314350
C87   C     C_R   0.414821 0.999852 0.583346 0.519652
C88   C     C_R   0.296063 0.961093 0.687887 0.314354
C89   C     C_R   0.226093 0.499845 0.271612 -0.051143
C90   C     C_R   0.773907 0.499845 0.728388 -0.051143
C91   C     C_R   0.726093 0.999844 0.271611 -0.051143
C92   C     C_R   0.273907 0.999845 0.728387 -0.051143
C93   C     C_R   0.001185 0.499919 0.617514 0.531256
C94   C     C_R   0.998814 0.499919 0.382487 0.531256
C95   C     C_R   0.501186 0.999919 0.617513 0.531254
C96   C     C_R   0.498814 0.999919 0.382487 0.531256
C97   C     C_R   0.297037 0.503396 0.255245 -0.142409
C98   C     C_R   0.000094 0.495970 0.815217 -0.042194
C99   C     C_R   0.702963 0.503397 0.744755 -0.142408
C100  C     C_R   0.797036 0.003390 0.255245 -0.142407
C101  C     C_R   0.202963 0.003397 0.744755 -0.142408
C102  C     C_R   0.342762 0.503059 0.210878 -0.138546
C103  C     C_R   0.657238 0.503060 0.789122 -0.138547
C104  C     C_R   0.842762 0.003053 0.210879 -0.138547
C105  C     C_R   0.157238 0.003060 0.789122 -0.138547
C106  C     C_R   0.366527 0.501446 0.132162 -0.034103
C107  C     C_R   0.633473 0.501446 0.867838 -0.034103
C108  C     C_R   0.866527 0.001446 0.132161 -0.034103
C109  C     C_R   0.999906 0.495970 0.184783 -0.042192
C110  C     C_R   0.133473 0.001446 0.867838 -0.034103
C111  C     C_R   0.343763 0.500777 0.098534 -0.050916
C112  C     C_R   0.656237 0.500776 0.901466 -0.050916
C113  C     C_R   0.843763 0.000783 0.098533 -0.050916
C114  C     C_R   0.156237 0.000776 0.901466 -0.050916
C115  C     C_R   0.297902 0.500799 0.142278 0.257061
C116  C     C_R   0.702098 0.500799 0.857723 0.257061
C117  C     C_R   0.797902 0.000805 0.142277 0.257059
C118  C     C_R   0.202098 0.000798 0.857722 0.257061
C119  C     C_R   0.274290 0.501973 0.221822 -0.002250
C120  C     C_R   0.500094 0.995970 0.815217 -0.042192
C121  C     C_R   0.725710 0.501973 0.778178 -0.002249
C122  C     C_R   0.774290 0.001972 0.221822 -0.002248
C123  C     C_R   0.225710 0.001973 0.778178 -0.002249
C124  C     C_R   1.000000 0.633394 0.000000 -0.023748
C125  C     C_R   0.500000 0.133394 1.000000 -0.023747
C126  C     C_R   1.000000 0.725771 0.000000 0.101229
C127  C     C_R   0.500000 0.225771 1.000000 0.101229
C128  C     C_R   0.500000 0.725874 1.000000 0.029431
C129  C     C_R   0.000000 0.225874 0.000000 0.029431
C130  C     C_R   0.000000 0.415039 0.000000 0.486159
C131  C     C_R   0.499906 0.995970 0.184783 -0.042193
C132  C     C_R   0.500000 0.915039 1.000000 0.486158
C133  C     C_R   0.038043 0.656584 0.978718 -0.119233
C134  C     C_R   0.961957 0.656585 0.021282 -0.119231
C135  C     C_R   0.538043 0.156584 0.978717 -0.119232
C136  C     C_R   0.461957 0.156584 0.021282 -0.119233
C137  C     C_R   0.999890 0.498802 0.881561 0.551840
C138  C     C_R   0.000110 0.498802 0.118439 0.551840
C139  C     C_R   0.499890 0.998802 0.881561 0.551841
C140  C     C_R   0.500110 0.998802 0.118439 0.551840
C141  C     C_R   0.000000 0.585013 0.000000 0.589488
C142  C     C_R   0.975109 0.525082 0.805878 -0.003416
C143  C     C_R   0.500000 0.085013 0.000000 0.589488
C144  C     C_R   0.500000 0.366453 1.000000 0.012124
C145  C     C_R   1.000000 0.866453 1.000000 0.012124
C146  C     C_R   0.500000 0.414884 0.000000 0.554917
C147  C     C_R   0.000000 0.914883 0.000000 0.554917
C148  C     C_R   0.414897 0.500427 0.084852 0.549791
C149  C     C_R   0.585103 0.500427 0.915147 0.549791
C150  C     C_R   0.914897 0.000427 0.084852 0.549791
C151  C     C_R   0.085103 0.000427 0.915147 0.549791
C152  C     C_R   0.493811 0.343102 0.951052 -0.121514
Cu1   Cu    Cu3+1 1.000000 0.544020 0.500000 1.027084
Cu2   Cu    Cu3+1 0.500020 0.499990 0.938180 0.967418
Cu3   Cu    Cu3+1 0.999980 0.999990 0.061820 0.967418
Cu4   Cu    Cu3+1 0.000020 0.999990 0.938180 0.967418
Cu5   Cu    Cu3+1 0.500000 0.044020 0.500000 1.027084
Cu6   Cu    Cu3+1 1.000000 0.455930 0.500000 1.065085
Cu7   Cu    Cu3+1 0.500000 0.955930 0.500000 1.065085
Cu8   Cu    Cu3+1 0.955930 0.499910 0.044070 1.013523
Cu9   Cu    Cu3+1 0.044070 0.499910 0.955930 1.013521
Cu10  Cu    Cu3+1 0.455930 0.999910 0.044070 1.013521
Cu11  Cu    Cu3+1 0.544070 0.999910 0.955930 1.013522
Cu12  Cu    Cu3+1 0.499980 0.499990 0.061820 0.967418
H1    H     H_    0.279196 0.504187 0.316046 0.148749
H2    H     H_    0.489586 0.719807 0.108539 0.125388
H3    H     H_    0.010414 0.219807 0.891461 0.125388
H4    H     H_    0.989586 0.219807 0.108539 0.125389
H5    H     H_    0.509863 0.639620 0.891801 0.140586
H6    H     H_    0.490137 0.639620 0.108199 0.140586
H7    H     H_    0.009863 0.139620 0.891801 0.140586
H8    H     H_    0.990137 0.139620 0.108199 0.140586
H9    H     H_    0.913454 0.553737 0.778069 0.126393
H10   H     H_    0.086543 0.553741 0.221934 0.126394
H11   H     H_    0.413459 0.053745 0.778064 0.126393
H12   H     H_    0.720804 0.504189 0.683954 0.148750
H13   H     H_    0.586544 0.053740 0.221933 0.126394
H14   H     H_    0.218982 0.567472 0.249981 0.155409
H15   H     H_    0.781018 0.567471 0.750022 0.155409
H16   H     H_    0.718982 0.067471 0.249979 0.155413
H17   H     H_    0.281018 0.067472 0.750021 0.155409
H18   H     H_    0.068077 0.453977 0.581414 0.309964
H19   H     H_    0.931924 0.453975 0.418584 0.309965
H20   H     H_    0.568075 0.953973 0.581418 0.309965
H21   H     H_    0.431924 0.953975 0.418584 0.309965
H22   H     H_    0.256757 0.424239 0.261705 0.329090
H23   H     H_    0.779196 0.004176 0.316047 0.148753
H24   H     H_    0.743243 0.424239 0.738292 0.329089
H25   H     H_    0.756756 0.924237 0.261701 0.329088
H26   H     H_    0.243243 0.924239 0.738292 0.329089
H27   H     H_    0.361561 0.499611 0.037776 0.166956
H28   H     H_    0.638439 0.499609 0.962224 0.166957
H29   H     H_    0.861561 0.999622 0.037775 0.166957
H30   H     H_    0.138439 0.999609 0.962224 0.166957
H31   H     H_    0.245823 0.496595 0.141488 0.338561
H32   H     H_    0.754177 0.496593 0.858512 0.338561
H33   H     H_    0.745824 0.996601 0.141485 0.338561
H34   H     H_    0.220804 0.004189 0.683954 0.148749
H35   H     H_    0.254177 0.996593 0.858512 0.338561
H36   H     H_    0.067467 0.638786 0.962524 0.135155
H37   H     H_    0.932533 0.638786 0.037476 0.135157
H38   H     H_    0.567467 0.138786 0.962523 0.135156
H39   H     H_    0.432533 0.138786 0.037477 0.135155
H40   H     H_    0.488889 0.279685 0.913184 0.143160
H41   H     H_    0.511111 0.279685 0.086816 0.143160
H42   H     H_    0.988890 0.779685 0.913183 0.143160
H43   H     H_    0.011110 0.779685 0.086817 0.143160
H44   H     H_    0.488878 0.360223 0.912840 0.141410
H45   H     H_    0.359445 0.503805 0.238284 0.152180
H46   H     H_    0.511122 0.360223 0.087160 0.141410
H47   H     H_    0.988878 0.860223 0.912839 0.141410
H48   H     H_    0.011122 0.860223 0.087161 0.141410
H49   H     H_    0.040172 0.279963 0.041548 0.158195
H50   H     H_    0.959828 0.279963 0.958452 0.158195
H51   H     H_    0.540172 0.779963 0.041547 0.158195
H52   H     H_    0.459828 0.779963 0.958453 0.158195
H53   H     H_    0.033650 0.394433 0.066287 0.332071
H54   H     H_    0.966351 0.394433 0.933713 0.332070
H55   H     H_    0.533650 0.894433 0.066286 0.332070
H56   H     H_    0.640555 0.503807 0.761716 0.152180
H57   H     H_    0.466350 0.894433 0.933714 0.332071
H58   H     H_    0.040843 0.428986 0.812882 0.322273
H59   H     H_    0.959159 0.428985 0.187115 0.322273
H60   H     H_    0.540839 0.928984 0.812888 0.322272
H61   H     H_    0.459159 0.928985 0.187115 0.322273
H62   H     H_    0.099461 0.705169 0.944367 0.333130
H63   H     H_    0.900538 0.705169 0.055633 0.333131
H64   H     H_    0.599462 0.205169 0.944366 0.333132
H65   H     H_    0.400538 0.205169 0.055634 0.333131
H66   H     H_    0.910566 0.550856 0.894803 0.103842
H67   H     H_    0.859445 0.003794 0.238285 0.152181
H68   H     H_    0.089431 0.550860 0.105200 0.103842
H69   H     H_    0.410571 0.050865 0.894798 0.103841
H70   H     H_    0.589432 0.050860 0.105199 0.103842
H71   H     H_    0.937529 0.620813 0.878910 0.340917
H72   H     H_    0.062464 0.620816 0.121097 0.340917
H73   H     H_    0.437541 0.120819 0.878898 0.340918
H74   H     H_    0.562466 0.120816 0.121095 0.340918
H75   H     H_    0.992652 0.606590 0.714353 0.370313
H76   H     H_    0.007343 0.606590 0.285652 0.370313
H77   H     H_    0.492662 0.106591 0.714343 0.370313
H78   H     H_    0.140555 0.003807 0.761716 0.152180
H79   H     H_    0.507344 0.106590 0.285651 0.370313
H80   H     H_    0.138940 0.566967 0.333046 0.164806
H81   H     H_    0.861060 0.566966 0.666957 0.164807
H82   H     H_    0.638940 0.066967 0.333044 0.164806
H83   H     H_    0.361060 0.066966 0.666957 0.164804
H84   H     H_    0.114629 0.432917 0.456585 0.329443
H85   H     H_    0.885371 0.432919 0.543413 0.329441
H86   H     H_    0.614629 0.932918 0.456586 0.329440
H87   H     H_    0.385371 0.932919 0.543413 0.329442
H88   H     H_    0.510414 0.719807 0.891461 0.125389
O1    O     O_R   0.064270 0.537170 0.435740 -0.510079
O2    O     O_R   0.564300 0.499990 0.987900 -0.513157
O3    O     O_R   0.935700 0.999990 0.012100 -0.513157
O4    O     O_R   0.064300 0.999990 0.987900 -0.513157
O5    O     O_R   0.500010 0.564260 0.052180 -0.511553
O6    O     O_R   0.499990 0.564260 0.947820 -0.511553
O7    O     O_R   0.000010 0.064260 0.052180 -0.511553
O8    O     O_R   0.999990 0.064260 0.947820 -0.511554
O9    O     O_R   0.064230 0.462780 0.435770 -0.492548
O10   O     O_R   0.935770 0.462780 0.564230 -0.492549
O11   O     O_R   0.564230 0.962780 0.435770 -0.492549
O12   O     O_R   0.935730 0.537170 0.564260 -0.510078
O13   O     O_R   0.435770 0.962780 0.564230 -0.492548
O14   O     O_R   0.000000 0.537170 0.590170 -0.481044
O15   O     O_R   1.000000 0.537170 0.409830 -0.481043
O16   O     O_R   0.500000 0.037170 0.590170 -0.481042
O17   O     O_R   0.500000 0.037170 0.409830 -0.481043
O18   O     O_R   0.999960 0.462780 0.590210 -0.497472
O19   O     O_R   0.000040 0.462780 0.409790 -0.497471
O20   O     O_R   0.499960 0.962780 0.590210 -0.497471
O21   O     O_R   0.500040 0.962780 0.409790 -0.497472
O22   O     O_R   0.962790 0.435650 0.037200 -0.506831
O23   O     O_R   0.564270 0.037170 0.435740 -0.510078
O24   O     O_R   0.037210 0.435650 0.962800 -0.506831
O25   O     O_R   0.462790 0.935650 0.037200 -0.506831
O26   O     O_R   0.537210 0.935650 0.962800 -0.506830
O27   O     O_R   0.962770 0.499920 0.947050 -0.509201
O28   O     O_R   0.037230 0.499920 0.052950 -0.509202
O29   O     O_R   0.462770 0.999920 0.947050 -0.509203
O30   O     O_R   0.537230 0.999920 0.052950 -0.509202
O31   O     O_R   0.037170 0.499970 0.872660 -0.492717
O32   O     O_R   0.962830 0.499970 0.127340 -0.492717
O33   O     O_R   0.537170 0.999970 0.872660 -0.492717
O34   O     O_R   0.435730 0.037170 0.564260 -0.510080
O35   O     O_R   0.462830 0.999970 0.127340 -0.492717
O36   O     O_R   0.962770 0.564180 0.037230 -0.502162
O37   O     O_R   0.037230 0.564180 0.962770 -0.502164
O38   O     O_R   0.462770 0.064180 0.037230 -0.502163
O39   O     O_R   0.537230 0.064180 0.962770 -0.502163
O40   O     O_R   0.499950 0.435720 0.052230 -0.508553
O41   O     O_R   0.500050 0.435720 0.947770 -0.508553
O42   O     O_R   0.999950 0.935720 0.052230 -0.508554
O43   O     O_R   0.000050 0.935720 0.947770 -0.508552
O44   O     O_3   0.059832 0.440906 0.629556 -0.603733
O45   O     O_R   0.435710 0.499990 0.116480 -0.506390
O46   O     O_3   0.940170 0.440904 0.370441 -0.603730
O47   O     O_3   0.559828 0.940902 0.629561 -0.603729
O48   O     O_3   0.440170 0.940904 0.370441 -0.603731
O49   O     O_3   0.225582 0.422418 0.305211 -0.618769
O50   O     O_3   0.774418 0.422419 0.694786 -0.618769
O51   O     O_3   0.725582 0.922417 0.305211 -0.618772
O52   O     O_3   0.274418 0.922419 0.694786 -0.618768
O53   O     O_3   0.278070 0.498734 0.104861 -0.685369
O54   O     O_3   0.721930 0.498732 0.895139 -0.685369
O55   O     O_3   0.778071 0.998744 0.104859 -0.685372
O56   O     O_R   0.564290 0.499990 0.883520 -0.506389
O57   O     O_3   0.221930 0.998731 0.895139 -0.685369
O58   O     O_3   0.043211 0.363451 0.053239 -0.670687
O59   O     O_3   0.956789 0.363451 0.946761 -0.670687
O60   O     O_3   0.543211 0.863451 0.053238 -0.670687
O61   O     O_3   0.456789 0.863451 0.946762 -0.670686
O62   O     O_3   0.052819 0.434423 0.759407 -0.605858
O63   O     O_3   0.947184 0.434421 0.240590 -0.605858
O64   O     O_3   0.552814 0.934419 0.759412 -0.605858
O65   O     O_3   0.447183 0.934422 0.240590 -0.605858
O66   O     O_3   0.075645 0.726141 0.957477 -0.690872
O67   O     O_R   0.935710 0.999990 0.116480 -0.506390
O68   O     O_3   0.924355 0.726141 0.042523 -0.690873
O69   O     O_3   0.575645 0.226141 0.957475 -0.690873
O70   O     O_3   0.424355 0.226141 0.042524 -0.690873
O71   O     O_3   0.961130 0.598312 0.854221 -0.670817
O72   O     O_3   0.038865 0.598314 0.145784 -0.670819
O73   O     O_3   0.461140 0.098316 0.854211 -0.670818
O74   O     O_3   0.538866 0.098313 0.145783 -0.670819
O75   O     O_3   0.962100 0.603088 0.729294 -0.646658
O76   O     O_3   0.037895 0.603090 0.270711 -0.646656
O77   O     O_3   0.462110 0.103092 0.729285 -0.646657
O78   O     O_R   0.064290 0.999990 0.883520 -0.506389
O79   O     O_3   0.537896 0.103089 0.270710 -0.646657
O80   O     O_3   0.138460 0.423827 0.404800 -0.596444
O81   O     O_3   0.861540 0.423828 0.595196 -0.596443
O82   O     O_3   0.638460 0.923827 0.404803 -0.596444
O83   O     O_3   0.361540 0.923827 0.595197 -0.596442
O84   O     O_R   0.435700 0.499990 0.012100 -0.513157

loop_
_geom_bond_atom_site_label_1
_geom_bond_atom_site_label_2
_ccdc_geom_bond_type
C99   C103  A    
C105  C110  A    
C46   O72   S    
C24   C61   S    
C61   H70   S    
C107  C112  A    
H86   O82   S    
C18   C132  S    
C65   O10   A    
C79   C87   S    
C111  H27   S    
C124  C133  A    
C53   O46   S    
H20   O47   S    
H84   O80   S    
C10   H51   S    
C22   C38   A    
C29   C33   A    
C100  C104  A    
C8    C23   A    
C42   C136  A    
Cu1   O12   S    
C131  C140  S    
C19   C37   A    
C7    O7    A    
C99   H12   S    
H58   O62   S    
C91   C122  S    
C70   C74   A    
C68   C90   A    
H77   O77   S    
C141  O36   A    
C11   H52   S    
C106  C111  A    
C125  C135  A    
C3    H46   S    
C83   C88   A    
C56   O62   S    
C62   O75   S    
C16   O61   S    
C65   C77   S    
C116  C121  A    
C139  O29   A    
C27   C31   A    
Cu7   O21   S    
C28   C32   A    
H54   O59   S    
H31   O53   S    
C92   C123  S    
C93   O14   A    
Cu6   O19   S    
C108  C113  A    
C30   H5    S    
C27   C128  A    
C78   C82   A    
C70   H17   S    
C68   C72   A    
H59   O63   S    
C50   C54   A    
C52   O44   S    
C74   C79   A    
H63   O68   S    
C65   O12   A    
Cu12  O40   S    
C5    H48   S    
Cu1   O1    S    
C114  H30   S    
C138  O28   A    
Cu8   O32   S    
Cu2   O84   S    
C140  O30   A    
Cu9   O28   S    
C85   C90   A    
Cu5   O34   S    
C31   H6    S    
C132  O26   A    
Cu1   O14   S    
C150  O67   A    
C13   C45   A    
C24   C131  A    
C45   C50   A    
C49   C53   A    
C51   C55   A    
C140  O35   A    
C48   C52   A    
C118  O57   S    
Cu3   Cu4   S    
C43   C142  A    
C103  C107  A    
C33   H8    S    
H76   O76   S    
C15   C18   A    
C2    C109  A    
C59   C120  A    
C53   C58   A    
C41   C127  A    
H73   O73   S    
C88   O52   S    
C33   C36   A    
C95   O20   A    
C94   O15   A    
C6    O5    A    
C32   C36   A    
C29   H4    S    
Cu2   Cu12  S    
C25   C128  S    
C76   C78   S    
C71   H80   S    
C69   H16   S    
C13   C57   S    
C11   C25   A    
Cu1   Cu6   S    
C39   O66   S    
C29   C129  A    
C21   C38   A    
C2    C44   A    
Cu6   O10   S    
C110  C114  A    
H19   O46   S    
Cu2   O6    S    
C103  H56   S    
Cu4   O78   S    
H61   O65   S    
Cu12  O5    S    
H33   O55   S    
C14   C17   A    
C20   H41   S    
C66   O79   S    
C38   C126  S    
Cu10  O25   S    
C54   C59   A    
C66   H13   S    
C5    C145  A    
C30   C34   A    
Cu3   O42   S    
C63   O76   S    
C42   O70   S    
C9    C23   A    
C104  H67   S    
C96   O17   A    
C62   H9    S    
C40   C134  A    
C12   O58   S    
C76   O23   A    
C109  C138  S    
C21   H42   S    
C97   C119  A    
Cu9   O37   S    
C117  C122  A    
Cu3   O7    S    
Cu3   O4    S    
C8    C12   A    
Cu5   O17   S    
C31   C34   A    
Cu12  O45   S    
C26   H88   S    
C108  C150  S    
C10   C25   A    
C26   C30   A    
C115  C119  A    
C90   C121  S    
C113  C117  A    
C124  C141  S    
Cu8   O22   S    
C130  O24   A    
C41   C135  A    
C13   C120  A    
H65   O70   S    
C134  H37   S    
Cu10  O29   S    
Cu5   O16   S    
C137  O27   A    
Cu4   O43   S    
H75   O75   S    
C17   C130  S    
C46   H68   S    
C152  H44   S    
Cu12  O2    S    
H18   O44   S    
C67   H14   S    
C102  H45   S    
C147  O42   A    
C116  O54   S    
H72   O72   S    
C45   C64   S    
C99   C121  A    
C46   C63   S    
H21   O48   S    
C59   O64   S    
C144  C152  A    
C15   O60   S    
C20   C37   A    
C150  O3    A    
Cu3   O67   S    
C125  C143  S    
C4    C145  A    
C85   O50   S    
C151  O78   A    
C107  C149  S    
Cu7   O11   S    
C138  O32   A    
C41   O69   S    
C69   C91   A    
C136  H39   S    
C81   C85   A    
C151  O4    A    
C7    C36   S    
H85   O81   S    
C80   C84   A    
C80   O80   S    
C4    H47   S    
C86   C91   A    
C112  C116  A    
C23   C129  S    
H35   O57   S    
C89   C119  S    
C12   C17   A    
C69   C73   A    
C35   O71   S    
C130  O22   A    
C47   C66   S    
C97   C102  A    
C40   O68   S    
Cu4   O3    S    
Cu10  O35   S    
C148  O45   A    
Cu5   Cu7   S    
C39   C126  A    
C55   C60   A    
C7    O8    A    
C115  O53   S    
C60   C131  A    
C145  C147  S    
C1    O1    A    
C44   C63   S    
C48   C93   S    
C98   C137  S    
C100  H23   S    
C144  C146  S    
C110  C151  S    
C47   C51   A    
C73   H82   S    
C57   O73   S    
C82   C86   A    
C6    C34   S    
C72   H81   S    
C9    C14   A    
C112  H28   S    
H24   O50   S    
C11   C16   A    
C143  O38   A    
H25   O51   S    
Cu11  O30   S    
C77   C81   A    
H26   O52   S    
H71   O71   S    
C3    C20   A    
C42   C127  A    
C87   O13   A    
C125  C136  A    
C32   H7    S    
C8    H49   S    
C105  H78   S    
C104  C108  A    
C63   H10   S    
Cu10  Cu11  S    
C39   C133  A    
Cu7   O20   S    
C68   H15   S    
C113  H29   S    
C70   C92   A    
C3    C144  A    
Cu10  O38   S    
Cu5   O23   S    
Cu9   O31   S    
C124  C134  A    
C9    H50   S    
Cu6   O18   S    
C6    O6    A    
H53   O58   S    
C35   H66   S    
C79   C83   A    
C147  O43   A    
C97   H1    S    
C19   H40   S    
C22   H43   S    
C67   C71   A    
C118  C123  A    
C27   H2    S    
C84   O49   S    
C137  O31   A    
C81   O81   S    
C86   O51   S    
C83   O83   S    
C54   O47   S    
Cu11  O39   S    
C43   C62   S    
C44   C49   A    
Cu11  O33   S    
Cu2   O41   S    
C74   H83   S    
H74   O74   S    
C58   C109  A    
H60   O64   S    
C87   O34   A    
C56   C98   A    
H87   O83   S    
H64   O69   S    
C2    C46   S    
C132  O25   A    
C101  C123  A    
Cu1   O15   S    
C10   C15   A    
C50   C95   S    
C67   C89   A    
C106  C148  S    
C139  O33   A    
C28   C129  A    
C28   H3    S    
C146  O40   A    
C61   C66   S    
C149  O56   A    
C5    C22   A    
C88   C92   A    
C73   C78   A    
C49   C94   S    
C43   C48   A    
C51   C96   S    
C96   O21   A    
Cu8   O27   S    
C146  O41   A    
C135  H38   S    
C101  C105  A    
C93   O18   A    
C1    C75   S    
C117  O55   S    
C82   O82   S    
C101  H34   S    
C35   C142  S    
C149  O2    A    
Cu8   O36   S    
C61   O74   S    
C72   C77   A    
Cu9   O24   S    
H62   O66   S    
Cu6   O9    S    
C40   C126  A    
C19   C152  A    
C120  C139  S    
C26   C128  A    
C64   H11   S    
C114  C118  A    
C1    O9    A    
C143  O39   A    
C76   O11   A    
C133  H36   S    
H22   O49   S    
C84   C89   A    
C148  O84   A    
C57   C64   S    
C75   C80   A    
C24   C47   A    
H79   O79   S    
C57   H69   S    
C64   O77   S    
C141  O37   A    
Cu11  O26   S    
Cu2   O56   S    
Cu7   O13   S    
Cu8   Cu9   S    
C14   O59   S    
H55   O60   S    
C71   C75   A    
C4    C21   A    
C95   O16   A    
C94   O19   A    
H32   O54   S    
C102  C106  A    
C35   C62   S    
C100  C122  A    
C55   O48   S    
C16   C18   A    
C111  C115  A    
Cu4   O8    S    
C58   O63   S    
C98   C142  A    
C52   C56   A    
C60   O65   S    
C37   C127  S    
H57   O61   S    
