data_mof_unit_40116.cif
_audit_creation_date              2012-12-10T17:16:34-0500
_audit_creation_method            fapswitch 2.2
_symmetry_space_group_name_H-M    P1
_symmetry_Int_Tables_number       1
_space_group_crystal_system       triclinic
_cell_length_a                    10.113838
_cell_length_b                    10.44868
_cell_length_c                    10.78562
_cell_angle_alpha                 91.398098
_cell_angle_beta                  93.799325
_cell_angle_gamma                 81.722456
_cell_volume                      1125.30370199

loop_
_atom_site_label
_atom_site_type_symbol
_atom_type_description
_atom_site_fract_x
_atom_site_fract_y
_atom_site_fract_z
_atom_type_partial_charge
Br1   Br    Br    0.343749 0.338012 0.864190 -0.464562
Br2   Br    Br    0.700017 0.347277 0.119641 -0.571185
C1    C     C_R   0.446497 0.499834 0.266740 0.896003
C2    C     C_R   0.493010 0.736826 0.472159 0.896773
C3    C     C_R   0.699955 0.095233 0.324962 -0.109970
C4    C     C_R   0.228866 0.903248 0.411740 -0.134808
C5    C     C_R   0.797138 0.012333 0.265476 -0.145395
C6    C     C_R   0.109744 0.987710 0.413495 -0.161017
C7    C     C_R   0.791283 0.880478 0.258893 -0.163597
C8    C     C_R   0.110986 0.119811 0.407257 -0.125101
C9    C     C_R   0.687483 0.831164 0.311152 -0.131583
C10   C     C_R   0.232340 0.167364 0.404163 -0.101225
C11   C     C_R   0.587484 0.913934 0.371594 0.083719
C12   C     C_R   0.553798 0.486721 0.732298 1.001965
C13   C     C_R   0.355661 0.084505 0.417951 0.095898
C14   C     C_R   0.591421 0.048392 0.376302 0.090575
C15   C     C_R   0.354108 0.949997 0.418947 0.097847
C16   C     C_R   0.478291 0.867383 0.421044 -0.252979
C17   C     C_R   0.481124 0.130909 0.423923 -0.246883
C18   C     C_2   0.421958 0.479130 0.134252 -0.402816
C19   C     C_2   0.580290 0.469376 0.863366 -0.397151
C20   C     C_2   0.519301 0.420351 0.063729 0.265473
C21   C     C_2   0.494447 0.418576 0.931036 0.260882
C22   C     C_2   0.068853 0.503758 0.479017 -0.140750
C23   C     C_2   0.925544 0.514061 0.509745 -0.103026
C24   C     C_R   0.493671 0.262101 0.473969 0.904653
H1    H     H_    0.017621 0.184926 0.399770 0.131857
H2    H     H_    0.323121 0.514331 0.092251 0.164317
H3    H     H_    0.889731 0.578200 0.584766 0.170700
H4    H     H_    0.099210 0.454744 0.393912 0.152872
H5    H     H_    0.879402 0.390891 0.376533 0.180867
H6    H     H_    0.124078 0.596494 0.631658 0.187881
H7    H     H_    0.865884 0.816567 0.210980 0.151093
H8    H     H_    0.707832 0.196086 0.321778 0.201808
H9    H     H_    0.219018 0.802496 0.397256 0.170646
H10   H     H_    0.876457 0.051028 0.222638 0.170291
H11   H     H_    0.016155 0.949562 0.413923 0.155474
H12   H     H_    0.681816 0.729481 0.295738 0.175464
H13   H     H_    0.228141 0.267715 0.382959 0.146082
H14   H     H_    0.668767 0.504424 0.906481 0.168346
N1    N     N_2   0.157300 0.551390 0.551120 -0.183902
N2    N     N_2   0.842700 0.448610 0.448880 -0.192383
O1    O     O_R   0.568940 0.489660 0.307530 -0.583615
O2    O     O_R   0.431060 0.510340 0.692470 -0.556999
O3    O     O_R   0.348880 0.522640 0.340350 -0.647376
O4    O     O_R   0.651120 0.477360 0.659650 -0.598110
O5    O     O_R   0.610030 0.300280 0.483580 -0.614493
O6    O     O_R   0.389970 0.699720 0.516420 -0.616495
O7    O     O_R   0.389970 0.333270 0.516400 -0.586762
O8    O     O_R   0.610030 0.666730 0.483600 -0.618944
Zn1   Zn    Zn3+2 0.646940 0.477980 0.478080 0.961207
Zn2   Zn    Zn3+2 0.353060 0.522020 0.521920 0.968434

loop_
_geom_bond_atom_site_label_1
_geom_bond_atom_site_label_2
_ccdc_geom_bond_type
C23   N2    D    
Br2   C20   S    
C9    H12   S    
C7    H7    S    
H6    N1    S    
C10   C13   A    
H5    N2    S    
C7    C9    A    
C5    H10   S    
N1    Zn2   S    
C8    H1    S    
N2    Zn1   S    
O7    Zn2   S    
C2    C16   S    
C3    H8    S    
O2    Zn2   S    
C10   H13   S    
C15   C16   A    
C1    C18   S    
C12   O4    A    
C22   C23   S    
C13   C17   A    
C22   N1    D    
C9    C11   A    
C1    O1    A    
C19   H14   S    
C8    C10   A    
C24   O5    A    
O1    Zn1   S    
C14   C17   A    
C11   C16   A    
C12   C19   S    
C6    C8    A    
C18   C20   D    
Br1   C21   S    
C3    C5    A    
C19   C21   D    
C23   H3    S    
C22   H4    S    
C11   C14   A    
C6    H11   S    
C5    C7    A    
O6    Zn2   S    
C4    H9    S    
C17   C24   S    
C12   O2    A    
C2    O6    A    
C24   O7    A    
C13   C15   A    
C4    C15   A    
C20   C21   S    
C3    C14   A    
C4    C6    A    
C18   H2    S    
O3    Zn2   S    
O8    Zn1   S    
O4    Zn1   S    
C1    O3    A    
O5    Zn1   S    
C2    O8    A    
