data_mof_unit_41651.cif
_audit_creation_date              2012-12-10T17:34:07-0500
_audit_creation_method            fapswitch 2.2
_symmetry_space_group_name_H-M    P1
_symmetry_Int_Tables_number       1
_space_group_crystal_system       triclinic
_cell_length_a                    30.339901
_cell_length_b                    30.35324
_cell_length_c                    29.016959
_cell_angle_alpha                 89.909278
_cell_angle_beta                  90.0766
_cell_angle_gamma                 89.962466
_cell_volume                      26722.0692377

loop_
_atom_site_label
_atom_site_type_symbol
_atom_type_description
_atom_site_fract_x
_atom_site_fract_y
_atom_site_fract_z
_atom_type_partial_charge
C1    C     C_R   0.500010 0.913625 0.999982 0.911216
C2    C     C_R   0.086373 0.499996 0.000029 0.909790
C3    C     C_R   0.499984 0.086332 0.999989 0.908797
C4    C     C_R   0.913627 0.500023 0.999984 0.909767
C5    C     C_R   0.000014 0.413626 0.499977 0.911312
C6    C     C_R   0.586370 0.000002 0.500059 0.910872
C7    C     C_R   0.999977 0.586361 0.499827 0.908453
C8    C     C_R   0.413560 0.000047 0.499776 0.907744
C9    C     C_R   0.542053 0.726651 0.072130 0.515622
C10   C     C_R   0.273263 0.545573 0.069630 0.515141
C11   C     C_R   0.450632 0.271465 0.066436 0.565751
C12   C     C_R   0.726821 0.456394 0.071082 0.516964
C13   C     C_R   0.549184 0.271641 0.933334 0.565636
C14   C     C_R   0.273227 0.456565 0.928939 0.516955
C15   C     C_R   0.458236 0.726902 0.927747 0.515480
C16   C     C_R   0.726685 0.546103 0.930578 0.515148
C17   C     C_R   0.041097 0.226684 0.572718 0.517088
C18   C     C_R   0.773205 0.047144 0.568613 0.514809
C19   C     C_R   0.948399 0.771566 0.564282 0.566071
C20   C     C_R   0.228759 0.952631 0.571032 0.566895
C21   C     C_R   0.052219 0.772256 0.435629 0.564020
C22   C     C_R   0.773249 0.956411 0.429112 0.517154
C23   C     C_R   0.959856 0.226875 0.426770 0.515578
C24   C     C_R   0.225846 0.061586 0.447143 0.515725
C25   C     C_R   0.548138 0.772401 0.068382 -0.169235
C26   C     C_R   0.227399 0.551011 0.065936 -0.168527
C27   C     C_R   0.443727 0.226496 0.060315 -0.158595
C28   C     C_R   0.772612 0.450560 0.067230 -0.169638
C29   C     C_R   0.555948 0.226596 0.939258 -0.158910
C30   C     C_R   0.227453 0.450678 0.932819 -0.169609
C31   C     C_R   0.452014 0.772619 0.931597 -0.169059
C32   C     C_R   0.772551 0.551476 0.934260 -0.168477
C33   C     C_R   0.047451 0.272390 0.568899 -0.169919
C34   C     C_R   0.727264 0.052111 0.565139 -0.168398
C35   C     C_R   0.942033 0.726514 0.558157 -0.158700
C36   C     C_R   0.273894 0.946388 0.564998 -0.162859
C37   C     C_R   0.057189 0.726774 0.439860 -0.161304
C38   C     C_R   0.727449 0.950671 0.432916 -0.169760
C39   C     C_R   0.953293 0.272543 0.430651 -0.169560
C40   C     C_R   0.272228 0.063241 0.447787 -0.168905
C41   C     C_R   0.523194 0.796939 0.035384 -0.018760
C42   C     C_R   0.203006 0.524661 0.034170 -0.019070
C43   C     C_R   0.472156 0.202659 0.030908 -0.027434
C44   C     C_R   0.797036 0.476533 0.035126 -0.018910
C45   C     C_R   0.527586 0.202702 0.968744 -0.027349
C46   C     C_R   0.202993 0.476521 0.964950 -0.018944
C47   C     C_R   0.476953 0.797050 0.964579 -0.018840
C48   C     C_R   0.796965 0.524945 0.965957 -0.019078
C49   C     C_R   0.022978 0.296943 0.535531 -0.018800
C50   C     C_R   0.702957 0.025246 0.533780 -0.018917
C51   C     C_R   0.971356 0.702763 0.529629 -0.027776
C52   C     C_R   0.297457 0.974670 0.534887 -0.028683
C53   C     C_R   0.027979 0.702812 0.468551 -0.026836
C54   C     C_R   0.702987 0.976698 0.464877 -0.018821
C55   C     C_R   0.977586 0.297034 0.464116 -0.018772
C56   C     C_R   0.296436 0.030964 0.473052 -0.015759
C57   C     C_R   0.500113 0.774100 0.999957 0.060747
C58   C     C_R   0.225907 0.500707 0.999492 0.061237
C59   C     C_R   0.499897 0.225876 0.999852 0.051630
C60   C     C_R   0.774091 0.500857 0.000609 0.061236
C61   C     C_R   0.000343 0.274104 0.499797 0.061063
C62   C     C_R   0.725889 0.001159 0.499222 0.061268
C63   C     C_R   0.999841 0.725988 0.499306 0.052645
C64   C     C_R   0.273853 0.003335 0.504846 0.056582
C65   C     C_R   0.520587 0.843381 0.036567 -0.064164
C66   C     C_R   0.156621 0.521553 0.035843 -0.063257
C67   C     C_R   0.475229 0.156417 0.033383 -0.058361
C68   C     C_R   0.843497 0.478947 0.036308 -0.064031
C69   C     C_R   0.524542 0.156455 0.966355 -0.058345
C70   C     C_R   0.156531 0.478947 0.963762 -0.064079
C71   C     C_R   0.479467 0.843494 0.963414 -0.064205
C72   C     C_R   0.843347 0.521790 0.964242 -0.063217
C73   C     C_R   0.020395 0.343386 0.536662 -0.064371
C74   C     C_R   0.656611 0.021804 0.535693 -0.062960
C75   C     C_R   0.974645 0.656573 0.532466 -0.057529
C76   C     C_R   0.343859 0.976624 0.535539 -0.059160
C77   C     C_R   0.024701 0.656520 0.466051 -0.058377
C78   C     C_R   0.656519 0.979034 0.463731 -0.064239
C79   C     C_R   0.979873 0.343502 0.463138 -0.064537
C80   C     C_R   0.342509 0.025828 0.468258 -0.058959
C81   C     C_R   0.500030 0.865899 0.999981 -0.153601
C82   C     C_R   0.134097 0.500057 0.999938 -0.153568
C83   C     C_R   0.499933 0.133917 0.999921 -0.154002
C84   C     C_R   0.865902 0.500145 0.000119 -0.153524
C85   C     C_R   0.000065 0.365900 0.499937 -0.153433
C86   C     C_R   0.634088 0.000111 0.499922 -0.153795
C87   C     C_R   0.999855 0.634001 0.499487 -0.154151
C88   C     C_R   0.365764 0.000385 0.500847 -0.155651
C89   C     C_R   0.412075 0.500105 0.999944 1.009648
C90   C     C_R   0.500066 0.412202 0.000032 1.035196
C91   C     C_R   0.587925 0.500120 0.000060 1.009639
C92   C     C_R   0.500040 0.587932 0.999971 0.990084
C93   C     C_R   0.912073 0.000207 0.499927 1.016111
C94   C     C_R   0.000526 0.912234 0.500140 1.036976
C95   C     C_R   0.087741 0.996946 0.500239 1.034151
C96   C     C_R   0.000094 0.087935 0.499964 1.009786
C97   C     C_R   0.499983 0.000299 0.085608 0.911912
C98   C     C_R   0.000042 0.499988 0.085603 0.912088
C99   C     C_R   0.499995 0.000279 0.914391 0.911763
C100  C     C_R   0.999948 0.500051 0.914396 0.912176
C101  C     C_R   0.999992 0.500327 0.585607 0.912310
C102  C     C_R   0.499877 0.999970 0.585603 0.912437
C103  C     C_R   0.000004 0.500296 0.414392 0.911664
C104  C     C_R   0.499732 0.000071 0.414396 0.911326
C105  C     C_1   0.499775 0.001016 0.136438 -0.167243
C106  C     C_1   0.000160 0.500067 0.136436 -0.164776
C107  C     C_1   0.500041 0.000854 0.863559 -0.167015
C108  C     C_1   0.999802 0.500254 0.863562 -0.164814
C109  C     C_1   0.999855 0.501073 0.636435 -0.167800
C110  C     C_1   0.499632 0.999952 0.636437 -0.166565
C111  C     C_1   0.000118 0.500943 0.363561 -0.166756
C112  C     C_1   0.499105 0.000371 0.363562 -0.168738
C113  C     C_1   0.499388 0.001400 0.178817 -0.021857
C114  C     C_1   0.000250 0.500352 0.178822 -0.022659
C115  C     C_1   0.500052 0.001083 0.821176 -0.021700
C116  C     C_1   0.999693 0.500589 0.821176 -0.022687
C117  C     C_1   0.999660 0.501435 0.678815 -0.021764
C118  C     C_1   0.499549 0.000129 0.678819 -0.021603
C119  C     C_1   0.000289 0.501239 0.321179 -0.022135
C120  C     C_1   0.498780 0.000783 0.321181 -0.022087
C121  C     C_1   0.498996 0.001411 0.228812 -0.038606
C122  C     C_1   0.000331 0.500789 0.228815 -0.041265
C123  C     C_1   0.499883 0.000881 0.771181 -0.038852
C124  C     C_1   0.999602 0.501041 0.771181 -0.041066
C125  C     C_1   0.999577 0.501346 0.728810 -0.038476
C126  C     C_1   0.499690 0.000533 0.728812 -0.039062
C127  C     C_1   0.000358 0.501106 0.271184 -0.039460
C128  C     C_1   0.498789 0.001195 0.271184 -0.038183
C129  C     C_R   0.489188 0.659003 0.959582 0.466739
C130  C     C_R   0.341116 0.488318 0.959753 0.472444
C131  C     C_R   0.526029 0.341943 0.967316 0.434481
C132  C     C_R   0.658929 0.513643 0.960714 0.470580
C133  C     C_R   0.474141 0.341871 0.032795 0.434643
C134  C     C_R   0.341061 0.513316 0.039373 0.470659
C135  C     C_R   0.511142 0.658879 0.040266 0.466884
C136  C     C_R   0.658885 0.488229 0.040272 0.472377
C137  C     C_R   0.990237 0.159000 0.459259 0.466952
C138  C     C_R   0.841149 0.988303 0.459727 0.473456
C139  C     C_R   0.029683 0.842008 0.470703 0.431920
C140  C     C_R   0.158289 0.023335 0.469202 0.471237
C141  C     C_R   0.973023 0.841941 0.531493 0.439000
C142  C     C_R   0.841025 0.014452 0.538930 0.470515
C143  C     C_R   0.010586 0.158924 0.540401 0.473581
C144  C     C_R   0.158119 0.974375 0.536502 0.430445
C145  C     C_R   0.500131 0.635915 0.999933 -0.365693
C146  C     C_R   0.364104 0.500553 0.999714 -0.363382
C147  C     C_R   0.500101 0.364465 0.000075 -0.333453
C148  C     C_R   0.635894 0.500628 0.000317 -0.363045
C149  C     C_R   0.000297 0.135925 0.499879 -0.369150
C150  C     C_R   0.864099 0.000933 0.499580 -0.364126
C151  C     C_R   0.000977 0.864557 0.500654 -0.329749
C152  C     C_R   0.135581 0.997875 0.501738 -0.340202
C153  C     C_R   0.517579 0.704562 0.038031 -0.098984
C154  C     C_R   0.295386 0.519749 0.036726 -0.098920
C155  C     C_R   0.475289 0.295515 0.033694 -0.095064
C156  C     C_R   0.704625 0.482099 0.037959 -0.099405
C157  C     C_R   0.524683 0.295602 0.966221 -0.094831
C158  C     C_R   0.295391 0.482139 0.962087 -0.099381
C159  C     C_R   0.482766 0.704692 0.961809 -0.099034
C160  C     C_R   0.704593 0.520089 0.963403 -0.098827
C161  C     C_R   0.017150 0.204589 0.538223 -0.098784
C162  C     C_R   0.795348 0.020864 0.536121 -0.098450
C163  C     C_R   0.974248 0.795584 0.532570 -0.096476
C164  C     C_R   0.204511 0.977080 0.538337 -0.098831
C165  C     C_R   0.027040 0.795829 0.468162 -0.090253
C166  C     C_R   0.795401 0.982267 0.462033 -0.099538
C167  C     C_R   0.983761 0.204684 0.461323 -0.098279
C168  C     C_R   0.203891 0.029357 0.473568 -0.091722
C169  C     C_R   0.500162 0.727902 0.999928 -0.208619
C170  C     C_R   0.272107 0.500880 0.999418 -0.208311
C171  C     C_R   0.499949 0.272433 0.999915 -0.206362
C172  C     C_R   0.727891 0.501030 0.000675 -0.208268
C173  C     C_R   0.000428 0.227908 0.499773 -0.208741
C174  C     C_R   0.772089 0.001445 0.499105 -0.208076
C175  C     C_R   0.000243 0.772534 0.499886 -0.205078
C176  C     C_R   0.227424 0.003389 0.505704 -0.205975
O1    O     O_R   0.537310 0.933950 0.000030 -0.627316
O2    O     O_R   0.066050 0.537310 0.000030 -0.628107
O3    O     O_R   0.462690 0.066050 0.000030 -0.628998
O4    O     O_R   0.933950 0.462690 0.000030 -0.627782
O5    O     O_R   0.537310 0.066050 0.999970 -0.628978
O6    O     O_R   0.066050 0.462690 0.999970 -0.627787
O7    O     O_R   0.462690 0.933950 0.999970 -0.627344
O8    O     O_R   0.933950 0.537310 0.999970 -0.628142
O9    O     O_R   0.037310 0.433950 0.500030 -0.627143
O10   O     O_R   0.566050 0.037310 0.500030 -0.628084
O11   O     O_R   0.962690 0.566050 0.500030 -0.629004
O12   O     O_R   0.433950 0.962690 0.500030 -0.627992
O13   O     O_R   0.037310 0.566050 0.499970 -0.628754
O14   O     O_R   0.566050 0.962690 0.499970 -0.627546
O15   O     O_R   0.962690 0.433950 0.499970 -0.627166
O16   O     O_R   0.433950 0.037310 0.499970 -0.629212
O17   O     O_R   0.537300 0.000020 0.063150 -0.606619
O18   O     O_R   0.999980 0.537300 0.063150 -0.606064
O19   O     O_R   0.462700 0.999980 0.063150 -0.604502
O20   O     O_R   0.000020 0.462700 0.063150 -0.605857
O21   O     O_R   0.537300 0.999980 0.936850 -0.604714
O22   O     O_R   0.999980 0.462700 0.936850 -0.605761
O23   O     O_R   0.462700 0.000020 0.936850 -0.606443
O24   O     O_R   0.000020 0.537300 0.936850 -0.606061
O25   O     O_R   0.037300 0.500020 0.563150 -0.606389
O26   O     O_R   0.499980 0.037300 0.563150 -0.606530
O27   O     O_R   0.962700 0.499980 0.563150 -0.604437
O28   O     O_R   0.500020 0.962700 0.563150 -0.604030
O29   O     O_R   0.037300 0.499980 0.436850 -0.604807
O30   O     O_R   0.499980 0.962700 0.436850 -0.605621
O31   O     O_R   0.962700 0.500020 0.436850 -0.606593
O32   O     O_R   0.500020 0.037300 0.436850 -0.606509
O33   O     O_R   0.433890 0.500020 0.035650 -0.606245
O34   O     O_R   0.499980 0.433890 0.035650 -0.641840
O35   O     O_R   0.566110 0.499980 0.035650 -0.594853
O36   O     O_R   0.500020 0.566110 0.035650 -0.596931
O37   O     O_R   0.433890 0.499980 0.964350 -0.594581
O38   O     O_R   0.499980 0.566110 0.964350 -0.596943
O39   O     O_R   0.566110 0.500020 0.964350 -0.606793
O40   O     O_R   0.500020 0.433890 0.964350 -0.642448
O41   O     O_R   0.933890 0.000020 0.535650 -0.606364
O42   O     O_R   0.999980 0.933890 0.535650 -0.655070
O43   O     O_R   0.066110 0.999980 0.535650 -0.646237
O44   O     O_R   0.000020 0.066110 0.535650 -0.590634
O45   O     O_R   0.933890 0.999980 0.464350 -0.592648
O46   O     O_R   0.999980 0.066110 0.464350 -0.591805
O47   O     O_R   0.066110 0.000020 0.464350 -0.616913
O48   O     O_R   0.000020 0.933890 0.464350 -0.649475
Zn1   Zn    Zn3+2 0.549820 0.000000 0.000000 0.924045
Zn2   Zn    Zn3+2 0.000000 0.549820 0.000000 0.924014
Zn3   Zn    Zn3+2 0.450180 0.000000 0.000000 0.924486
Zn4   Zn    Zn3+2 0.000000 0.450180 0.000000 0.924213
Zn5   Zn    Zn3+2 0.049820 0.500000 0.500000 0.924370
Zn6   Zn    Zn3+2 0.500000 0.049820 0.500000 0.922467
Zn7   Zn    Zn3+2 0.950180 0.500000 0.500000 0.924357
Zn8   Zn    Zn3+2 0.500000 0.950180 0.500000 0.924541
Zn9   Zn    Zn3+2 0.500000 0.500000 0.047600 0.978291
Zn10  Zn    Zn3+2 0.500000 0.500000 0.952400 0.978052
Zn11  Zn    Zn3+2 1.000000 0.000000 0.547600 0.943842
Zn12  Zn    Zn3+2 1.000000 1.000000 0.452400 0.971606
O49   O     O_3   0.483361 0.636661 0.918531 -0.554331
C177  C     C_3   0.524135 0.636389 0.895026 -0.278994
H1    H     H_    0.550315 0.619542 0.915418 0.181706
H2    H     H_    0.534942 0.670387 0.886133 0.135059
H3    H     H_    0.520072 0.617900 0.862359 0.170532
O50   O     O_3   0.363608 0.480962 0.919063 -0.548583
C178  C     C_3   0.363810 0.520785 0.893742 -0.283016
H4    H     H_    0.382508 0.515550 0.861389 0.172060
H5    H     H_    0.380400 0.547789 0.913030 0.179082
H6    H     H_    0.329795 0.531107 0.884184 0.134441
O51   O     O_3   0.559820 0.364202 0.944526 -0.574874
C179  C     C_3   0.545100 0.383780 0.902855 -0.179276
H7    H     H_    0.552186 0.419571 0.903692 0.164063
H8    H     H_    0.509371 0.379059 0.895298 0.126327
H9    H     H_    0.564882 0.371118 0.873694 0.189879
O52   O     O_3   0.636565 0.520943 0.919860 -0.553401
C180  C     C_3   0.637785 0.481494 0.894077 -0.310684
H10   H     H_    0.617714 0.486001 0.862441 0.164799
H11   H     H_    0.623625 0.453282 0.913605 0.175035
H12   H     H_    0.672004 0.473315 0.883342 0.144561
O53   O     O_3   0.440546 0.364179 0.055816 -0.574529
C181  C     C_3   0.455549 0.383391 0.097493 -0.180163
H13   H     H_    0.448535 0.419214 0.096881 0.164142
H14   H     H_    0.491309 0.378478 0.104811 0.126029
H15   H     H_    0.435897 0.370595 0.126712 0.189635
O54   O     O_3   0.363423 0.520391 0.080243 -0.553198
C182  C     C_3   0.362378 0.480760 0.105858 -0.310264
H16   H     H_    0.382388 0.485129 0.137538 0.164652
H17   H     H_    0.376717 0.452740 0.086232 0.175891
H18   H     H_    0.328189 0.472378 0.116518 0.144432
O55   O     O_3   0.516925 0.636428 0.081339 -0.554303
C183  C     C_3   0.476169 0.636306 0.104884 -0.278917
H19   H     H_    0.449883 0.619717 0.084498 0.181236
H20   H     H_    0.465543 0.670332 0.113834 0.135025
H21   H     H_    0.480167 0.617651 0.137522 0.170573
O56   O     O_3   0.636382 0.480666 0.080932 -0.548643
C184  C     C_3   0.636109 0.520364 0.106338 -0.282934
H22   H     H_    0.617398 0.514966 0.138667 0.171896
H23   H     H_    0.619494 0.547463 0.087097 0.179325
H24   H     H_    0.670103 0.530644 0.115940 0.134381
O57   O     O_3   0.985344 0.136665 0.418071 -0.553723
C185  C     C_3   0.026703 0.136176 0.395705 -0.286031
H25   H     H_    0.052314 0.119304 0.416859 0.191505
H26   H     H_    0.037823 0.170115 0.386994 0.135454
H27   H     H_    0.023407 0.117594 0.363002 0.166499
O58   O     O_3   0.863704 0.980422 0.419183 -0.547122
C186  C     C_3   0.864044 0.019950 0.393358 -0.283616
H28   H     H_    0.882784 0.014295 0.361109 0.172208
H29   H     H_    0.880662 0.047138 0.412332 0.177959
H30   H     H_    0.830072 0.030248 0.383609 0.134135
O59   O     O_3   0.067301 0.863111 0.454189 -0.567251
C187  C     C_3   0.059229 0.886569 0.412836 -0.172997
H31   H     H_    0.067303 0.921755 0.418274 0.163080
H32   H     H_    0.024884 0.883999 0.399480 0.125766
H33   H     H_    0.082280 0.874971 0.385849 0.191605
O60   O     O_3   0.135649 0.041375 0.432259 -0.558237
C188  C     C_3   0.138114 0.011444 0.395011 -0.312645
H34   H     H_    0.119601 0.025396 0.365403 0.166443
H35   H     H_    0.123046 0.979114 0.403681 0.158480
H36   H     H_    0.172724 0.006031 0.383802 0.138231
O61   O     O_3   0.938305 0.864225 0.552611 -0.571217
C189  C     C_3   0.951379 0.883885 0.594758 -0.187774
H37   H     H_    0.944657 0.919720 0.593286 0.166077
H38   H     H_    0.986722 0.878947 0.604025 0.116950
H39   H     H_    0.930316 0.871441 0.623063 0.190555
O62   O     O_3   0.863358 0.022113 0.579699 -0.553587
C190  C     C_3   0.861662 0.983073 0.606249 -0.313365
H40   H     H_    0.882122 0.987622 0.637586 0.164557
H41   H     H_    0.875035 0.954294 0.587113 0.171957
H42   H     H_    0.827408 0.975726 0.617462 0.145010
O63   O     O_3   0.015541 0.136536 0.581626 -0.548921
C191  C     C_3   0.974316 0.136430 0.604258 -0.281810
H43   H     H_    0.977657 0.117827 0.637008 0.171868
H44   H     H_    0.948460 0.119792 0.583319 0.180800
H45   H     H_    0.963505 0.170469 0.612920 0.134525
O64   O     O_3   0.136683 0.939951 0.559039 -0.558950
C192  C     C_3   0.114784 0.954405 0.599362 -0.165751
H46   H     H_    0.079327 0.945860 0.596736 0.166569
H47   H     H_    0.117978 0.990337 0.606626 0.119765
H48   H     H_    0.127142 0.935574 0.629446 0.186001
O65   O     O_3   0.568176 0.702383 0.102286 -0.561732
C193  C     C_3   0.551208 0.704337 0.147673 -0.255637
H49   H     H_    0.520370 0.724051 0.151614 0.101889
H50   H     H_    0.576834 0.717847 0.170952 0.162142
H51   H     H_    0.544542 0.670411 0.159981 0.201242
O66   O     O_3   0.297523 0.573392 0.097969 -0.563284
C194  C     C_3   0.295882 0.559019 0.144376 -0.255389
H52   H     H_    0.276244 0.528474 0.150428 0.101366
H53   H     H_    0.282434 0.585898 0.166035 0.162834
H54   H     H_    0.329916 0.553051 0.156844 0.202080
O67   O     O_3   0.433279 0.291262 0.105146 -0.570074
C195  C     C_3   0.464647 0.286918 0.141088 -0.403485
H55   H     H_    0.474810 0.252166 0.147063 0.151736
H56   H     H_    0.449899 0.299398 0.173499 0.188167
H57   H     H_    0.494746 0.306545 0.133793 0.161230
O68   O     O_3   0.702639 0.429085 0.100044 -0.556471
C196  C     C_3   0.704577 0.444232 0.146130 -0.249628
H58   H     H_    0.724089 0.474985 0.151414 0.099052
H59   H     H_    0.718311 0.417788 0.168295 0.162464
H60   H     H_    0.670617 0.450212 0.158678 0.201840
O69   O     O_3   0.566545 0.291614 0.894674 -0.570320
C197  C     C_3   0.535058 0.287777 0.858804 -0.402736
H61   H     H_    0.524725 0.253141 0.852641 0.151718
H62   H     H_    0.549769 0.300464 0.826430 0.188266
H63   H     H_    0.505063 0.307501 0.866317 0.161042
O70   O     O_3   0.297445 0.429407 0.899914 -0.556503
C198  C     C_3   0.295451 0.444772 0.853858 -0.249448
H64   H     H_    0.275855 0.475523 0.848639 0.099085
H65   H     H_    0.281778 0.418415 0.831649 0.162491
H66   H     H_    0.329390 0.450857 0.841307 0.201923
O71   O     O_3   0.432150 0.702747 0.897571 -0.561658
C199  C     C_3   0.449168 0.704817 0.852208 -0.255511
H67   H     H_    0.480068 0.724414 0.848323 0.102008
H68   H     H_    0.423606 0.718521 0.828910 0.161775
H69   H     H_    0.455738 0.670908 0.839871 0.201378
O72   O     O_3   0.702388 0.574128 0.902369 -0.563419
C200  C     C_3   0.704040 0.560098 0.855894 -0.255519
H70   H     H_    0.723701 0.529588 0.849697 0.101428
H71   H     H_    0.717465 0.587129 0.834363 0.162915
H72   H     H_    0.670008 0.554238 0.843403 0.202044
O73   O     O_3   0.066567 0.202422 0.603475 -0.556733
C201  C     C_3   0.048735 0.204580 0.648487 -0.250530
H73   H     H_    0.018000 0.224569 0.651756 0.099293
H74   H     H_    0.074020 0.217909 0.672283 0.161866
H75   H     H_    0.041542 0.170732 0.660701 0.202174
O74   O     O_3   0.797450 0.075757 0.596099 -0.564090
C202  C     C_3   0.796025 0.062610 0.642905 -0.255309
H76   H     H_    0.776607 0.032112 0.649889 0.101114
H77   H     H_    0.782461 0.089968 0.663817 0.163564
H78   H     H_    0.830137 0.057173 0.655416 0.201836
O75   O     O_3   0.929555 0.791467 0.602172 -0.569072
C203  C     C_3   0.959758 0.787775 0.639265 -0.402110
H79   H     H_    0.970021 0.753183 0.645984 0.151661
H80   H     H_    0.943851 0.800464 0.670979 0.187427
H81   H     H_    0.989936 0.807548 0.632842 0.159318
O76   O     O_3   0.208715 0.933818 0.608938 -0.564057
C204  C     C_3   0.210813 0.964669 0.645423 -0.392958
H82   H     H_    0.244976 0.976048 0.652512 0.148479
H83   H     H_    0.198140 0.948861 0.677240 0.188497
H84   H     H_    0.190086 0.994043 0.638023 0.159039
O77   O     O_3   0.072310 0.793276 0.399033 -0.570581
C205  C     C_3   0.041882 0.794313 0.362016 -0.396011
H85   H     H_    0.030356 0.760903 0.352127 0.151277
H86   H     H_    0.058207 0.809196 0.331569 0.188708
H87   H     H_    0.012513 0.814625 0.370479 0.157905
O78   O     O_3   0.797473 0.928927 0.400426 -0.555543
C206  C     C_3   0.795576 0.943818 0.354197 -0.248086
H88   H     H_    0.776172 0.974635 0.348627 0.098456
H89   H     H_    0.781755 0.917313 0.332284 0.162693
H90   H     H_    0.829556 0.949572 0.341593 0.201877
O79   O     O_3   0.934573 0.202703 0.395879 -0.561464
C207  C     C_3   0.952700 0.204914 0.350992 -0.256499
H91   H     H_    0.983511 0.224788 0.347934 0.101570
H92   H     H_    0.927609 0.218412 0.327012 0.161288
H93   H     H_    0.959870 0.171069 0.338836 0.201463
O80   O     O_3   0.201682 0.097021 0.430027 -0.562890
C208  C     C_3   0.200900 0.097312 0.381276 -0.243337
H94   H     H_    0.216918 0.068336 0.364691 0.100252
H95   H     H_    0.216633 0.127985 0.368634 0.167840
H96   H     H_    0.166134 0.098542 0.369510 0.196013
C209  C     C_R   0.587471 0.791266 0.091634 0.206902
C210  C     C_R   0.626107 0.798243 0.066046 -0.146005
C211  C     C_R   0.663989 0.814583 0.087524 -0.157860
C212  C     C_R   0.663665 0.823786 0.134699 -0.119724
C213  C     C_R   0.625423 0.816775 0.160453 -0.141510
C214  C     C_R   0.587404 0.800688 0.139045 -0.107381
H97   H     H_    0.626834 0.790952 0.029526 0.125823
H98   H     H_    0.693629 0.820020 0.067608 0.127027
H99   H     H_    0.693003 0.836453 0.151269 0.118455
H100  H     H_    0.625096 0.824191 0.196922 0.117859
H101  H     H_    0.557793 0.796226 0.159253 0.109764
C215  C     C_R   0.208090 0.590947 0.087505 0.206382
C216  C     C_R   0.200380 0.628429 0.060218 -0.145768
C217  C     C_R   0.183535 0.666859 0.080046 -0.158879
C218  C     C_R   0.174536 0.668236 0.127245 -0.120048
C219  C     C_R   0.182247 0.631142 0.154674 -0.142442
C220  C     C_R   0.198832 0.592569 0.134925 -0.110440
H102  H     H_    0.207498 0.627836 0.023655 0.125964
H103  H     H_    0.177545 0.695607 0.058830 0.127321
H104  H     H_    0.161479 0.697998 0.142536 0.119358
H105  H     H_    0.174977 0.632120 0.191163 0.119223
H106  H     H_    0.203804 0.563838 0.156430 0.110867
C221  C     C_R   0.401052 0.208073 0.076603 0.183440
C222  C     C_R   0.368342 0.198056 0.043918 -0.169937
C223  C     C_R   0.327544 0.181460 0.057984 -0.154709
C224  C     C_R   0.318951 0.174896 0.104772 -0.123969
C225  C     C_R   0.351137 0.184938 0.137568 -0.152023
C226  C     C_R   0.392001 0.201532 0.123677 -0.049381
H107  H     H_    0.374518 0.203085 0.007528 0.132287
H108  H     H_    0.302591 0.173675 0.032590 0.128862
H109  H     H_    0.287397 0.161928 0.115608 0.119848
H110  H     H_    0.344562 0.179519 0.173786 0.119976
H111  H     H_    0.416618 0.207903 0.149645 0.122711
C227  C     C_R   0.791678 0.410606 0.089188 0.205875
C228  C     C_R   0.798724 0.372791 0.062357 -0.142085
C229  C     C_R   0.815285 0.334348 0.082595 -0.157309
C230  C     C_R   0.824649 0.333293 0.129756 -0.120100
C231  C     C_R   0.817576 0.370715 0.156740 -0.141168
C232  C     C_R   0.801269 0.409294 0.136576 -0.109871
H112  H     H_    0.791315 0.373136 0.025831 0.127417
H113  H     H_    0.820772 0.305344 0.061728 0.127666
H114  H     H_    0.837486 0.303522 0.145366 0.118562
H115  H     H_    0.825113 0.369976 0.193200 0.118101
H116  H     H_    0.796745 0.438265 0.157732 0.110351
C233  C     C_R   0.598458 0.208098 0.922597 0.184024
C234  C     C_R   0.631480 0.198046 0.954971 -0.169614
C235  C     C_R   0.672147 0.181411 0.940530 -0.154869
C236  C     C_R   0.680294 0.174849 0.893673 -0.123633
C237  C     C_R   0.647794 0.184930 0.861182 -0.151185
C238  C     C_R   0.607061 0.201562 0.875450 -0.049542
H117  H     H_    0.625647 0.203079 0.991408 0.132095
H118  H     H_    0.697344 0.173597 0.965686 0.128807
H119  H     H_    0.711747 0.161850 0.882548 0.120243
H120  H     H_    0.654024 0.179511 0.824912 0.119908
H121  H     H_    0.582188 0.207961 0.849725 0.121945
C239  C     C_R   0.208460 0.410777 0.910868 0.205888
C240  C     C_R   0.201487 0.372882 0.937708 -0.142289
C241  C     C_R   0.184996 0.334488 0.917479 -0.157270
C242  C     C_R   0.175632 0.333561 0.870319 -0.119791
C243  C     C_R   0.182633 0.371063 0.843327 -0.141058
C244  C     C_R   0.198869 0.409594 0.863481 -0.109682
H122  H     H_    0.208896 0.373128 0.974233 0.127357
H123  H     H_    0.179564 0.305421 0.938354 0.127696
H124  H     H_    0.162849 0.303827 0.854717 0.118911
H125  H     H_    0.175094 0.370424 0.806867 0.118269
H126  H     H_    0.203331 0.438629 0.842320 0.110382
C245  C     C_R   0.412510 0.791495 0.908570 0.207094
C246  C     C_R   0.373998 0.798365 0.934385 -0.146382
C247  C     C_R   0.335952 0.814690 0.913121 -0.157973
C248  C     C_R   0.335987 0.823987 0.865935 -0.119150
C249  C     C_R   0.374107 0.817088 0.839958 -0.141350
C250  C     C_R   0.412288 0.801016 0.861152 -0.106776
H127  H     H_    0.373492 0.790994 0.970916 0.125916
H128  H     H_    0.306407 0.820039 0.933209 0.127274
H129  H     H_    0.306521 0.836639 0.849529 0.119493
H130  H     H_    0.374211 0.824579 0.803481 0.118546
H131  H     H_    0.441805 0.796649 0.840775 0.109713
C251  C     C_R   0.791854 0.591496 0.912776 0.206318
C252  C     C_R   0.799580 0.628825 0.940147 -0.145603
C253  C     C_R   0.816443 0.667326 0.920407 -0.159024
C254  C     C_R   0.825447 0.668926 0.873213 -0.120283
C255  C     C_R   0.817724 0.631984 0.845700 -0.142530
C256  C     C_R   0.801120 0.593341 0.865362 -0.110904
H132  H     H_    0.792463 0.628058 0.976709 0.125959
H133  H     H_    0.822444 0.695955 0.941688 0.127233
H134  H     H_    0.838518 0.698743 0.857989 0.119138
H135  H     H_    0.824999 0.633134 0.809215 0.119465
H136  H     H_    0.796142 0.564726 0.843792 0.111016
C257  C     C_R   0.086683 0.291100 0.592474 0.206106
C258  C     C_R   0.125536 0.297912 0.567195 -0.142970
C259  C     C_R   0.163332 0.314085 0.588976 -0.155882
C260  C     C_R   0.162705 0.323283 0.636148 -0.119489
C261  C     C_R   0.124244 0.316435 0.661596 -0.140745
C262  C     C_R   0.086313 0.300513 0.639885 -0.106071
H137  H     H_    0.126498 0.290620 0.530681 0.127478
H138  H     H_    0.193139 0.319396 0.569296 0.127940
H139  H     H_    0.191976 0.335823 0.652953 0.118697
H140  H     H_    0.123682 0.323855 0.698061 0.117772
H141  H     H_    0.056530 0.296206 0.659851 0.109428
C263  C     C_R   0.707634 0.092021 0.586441 0.206066
C264  C     C_R   0.699521 0.129236 0.558886 -0.144862
C265  C     C_R   0.682316 0.167632 0.578449 -0.159475
C266  C     C_R   0.673349 0.169237 0.625647 -0.120436
C267  C     C_R   0.681450 0.132405 0.653341 -0.142881
C268  C     C_R   0.698393 0.093864 0.633857 -0.113446
H142  H     H_    0.706601 0.128465 0.522318 0.125840
H143  H     H_    0.676020 0.196175 0.557029 0.127261
H144  H     H_    0.660015 0.198973 0.640734 0.119402
H145  H     H_    0.674206 0.133557 0.689830 0.119640
H146  H     H_    0.703677 0.065330 0.655570 0.111526
C269  C     C_R   0.899122 0.707771 0.573339 0.183212
C270  C     C_R   0.867311 0.697412 0.539813 -0.169355
C271  C     C_R   0.826323 0.680494 0.552817 -0.155021
C272  C     C_R   0.816644 0.673931 0.599370 -0.124141
C273  C     C_R   0.847937 0.684285 0.632995 -0.152327
C274  C     C_R   0.888986 0.701202 0.620167 -0.050445
H147  H     H_    0.874333 0.702434 0.503590 0.132480
H148  H     H_    0.802065 0.672458 0.526781 0.129132
H149  H     H_    0.784946 0.660712 0.609385 0.120616
H150  H     H_    0.840531 0.678848 0.669034 0.120426
H151  H     H_    0.912924 0.707755 0.646768 0.122416
C275  C     C_R   0.292601 0.904152 0.582233 0.187610
C276  C     C_R   0.301246 0.870249 0.550578 -0.163461
C277  C     C_R   0.317707 0.829715 0.565769 -0.153416
C278  C     C_R   0.325428 0.822587 0.612666 -0.123237
C279  C     C_R   0.316683 0.855975 0.644452 -0.147390
C280  C     C_R   0.300254 0.896583 0.629425 -0.049727
H152  H     H_    0.295240 0.875288 0.514140 0.132149
H153  H     H_    0.324461 0.803821 0.541169 0.129466
H154  H     H_    0.338277 0.791231 0.624366 0.120648
H155  H     H_    0.322979 0.850525 0.680740 0.119212
H156  H     H_    0.294820 0.922186 0.654523 0.117733
C281  C     C_R   0.098869 0.707520 0.422022 0.188712
C282  C     C_R   0.132745 0.697263 0.453321 -0.163101
C283  C     C_R   0.172808 0.680256 0.437562 -0.154596
C284  C     C_R   0.179479 0.673586 0.390457 -0.124092
C285  C     C_R   0.146100 0.683918 0.359032 -0.147071
C286  C     C_R   0.105963 0.700897 0.374629 -0.051532
H157  H     H_    0.128054 0.702443 0.489915 0.132251
H158  H     H_    0.198690 0.672263 0.461881 0.129270
H159  H     H_    0.210466 0.660311 0.378314 0.120338
H160  H     H_    0.151180 0.678415 0.322580 0.119322
H161  H     H_    0.080297 0.707509 0.349802 0.116234
C287  C     C_R   0.708379 0.910778 0.411023 0.205516
C288  C     C_R   0.701404 0.872902 0.437889 -0.140836
C289  C     C_R   0.684826 0.834525 0.417702 -0.157195
C290  C     C_R   0.675374 0.833600 0.370560 -0.120152
C291  C     C_R   0.682378 0.871085 0.343543 -0.141013
C292  C     C_R   0.698703 0.909598 0.363654 -0.111560
H162  H     H_    0.708877 0.873150 0.474400 0.127741
H163  H     H_    0.679392 0.805471 0.438595 0.127908
H164  H     H_    0.662524 0.803879 0.354992 0.118653
H165  H     H_    0.674780 0.870444 0.307097 0.118314
H166  H     H_    0.703201 0.938617 0.342472 0.110594
C293  C     C_R   0.914016 0.291202 0.407010 0.207456
C294  C     C_R   0.875087 0.297805 0.432212 -0.147018
C295  C     C_R   0.837246 0.313890 0.410352 -0.157286
C296  C     C_R   0.837903 0.323199 0.363174 -0.119436
C297  C     C_R   0.876436 0.316548 0.337800 -0.141529
C298  C     C_R   0.914410 0.300715 0.359592 -0.104353
H167  H     H_    0.874101 0.290419 0.468729 0.125706
H168  H     H_    0.807381 0.319044 0.429974 0.127001
H169  H     H_    0.808596 0.335668 0.346307 0.118295
H170  H     H_    0.877018 0.324047 0.301329 0.117362
H171  H     H_    0.944245 0.296547 0.339683 0.108843
C299  C     C_R   0.293692 0.103899 0.430325 0.198415
C300  C     C_R   0.305058 0.137401 0.461442 -0.132133
C301  C     C_R   0.324374 0.176355 0.445513 -0.163222
C302  C     C_R   0.332286 0.182194 0.398455 -0.124062
C303  C     C_R   0.321004 0.149040 0.367243 -0.145389
C304  C     C_R   0.301925 0.109932 0.383053 -0.140374
H172  H     H_    0.298888 0.133312 0.497957 0.127880
H173  H     H_    0.333153 0.202050 0.469649 0.128102
H174  H     H_    0.347256 0.212359 0.386194 0.120128
H175  H     H_    0.327402 0.153459 0.330846 0.123133
H176  H     H_    0.294026 0.084225 0.358600 0.117166
C305  C     C_R   0.533317 0.868487 0.078597 0.105798
C306  C     C_R   0.573131 0.892135 0.080451 -0.067229
C307  C     C_R   0.585465 0.913916 0.120862 -0.117649
C308  C     C_R   0.558339 0.912071 0.159685 -0.119971
C309  C     C_R   0.518263 0.889432 0.157795 -0.157256
C310  C     C_R   0.505642 0.867849 0.117334 -0.185574
H177  H     H_    0.595094 0.892629 0.051077 0.131216
H178  H     H_    0.616398 0.931587 0.122320 0.118069
H179  H     H_    0.568222 0.928450 0.191147 0.126199
H180  H     H_    0.497115 0.888400 0.187780 0.134329
H181  H     H_    0.474786 0.849955 0.116406 0.131342
C311  C     C_R   0.131787 0.534600 0.077944 0.105454
C312  C     C_R   0.107495 0.574065 0.079364 -0.065530
C313  C     C_R   0.085947 0.586646 0.119809 -0.118787
C314  C     C_R   0.088738 0.560172 0.159134 -0.119970
C315  C     C_R   0.112127 0.520500 0.157748 -0.157507
C316  C     C_R   0.133454 0.507613 0.117254 -0.186685
H182  H     H_    0.106332 0.595610 0.049615 0.132796
H183  H     H_    0.067744 0.617295 0.120897 0.118872
H184  H     H_    0.072532 0.570255 0.190608 0.127185
H185  H     H_    0.113917 0.499862 0.188140 0.133930
H186  H     H_    0.151909 0.477065 0.116708 0.131674
C317  C     C_R   0.459788 0.132258 0.075183 0.107770
C318  C     C_R   0.420547 0.107602 0.074776 -0.062555
C319  C     C_R   0.406245 0.086152 0.114710 -0.124361
C320  C     C_R   0.430758 0.089373 0.155356 -0.121471
C321  C     C_R   0.469846 0.113698 0.156024 -0.157264
C322  C     C_R   0.484388 0.135023 0.116102 -0.190631
H187  H     H_    0.400651 0.105753 0.043841 0.134708
H188  H     H_    0.375907 0.067432 0.114262 0.118328
H189  H     H_    0.419536 0.072933 0.186313 0.126081
H190  H     H_    0.488855 0.116053 0.187508 0.134510
H191  H     H_    0.514595 0.153994 0.117096 0.132245
C323  C     C_R   0.868671 0.465485 0.078155 0.106127
C324  C     C_R   0.892479 0.425717 0.079332 -0.065616
C325  C     C_R   0.914365 0.412755 0.119551 -0.118079
C326  C     C_R   0.912397 0.439157 0.158890 -0.120141
C327  C     C_R   0.889479 0.479119 0.157738 -0.156839
C328  C     C_R   0.867841 0.492395 0.117458 -0.186524
H192  H     H_    0.893033 0.404265 0.049563 0.131577
H193  H     H_    0.932203 0.381883 0.120456 0.117551
H194  H     H_    0.928878 0.428799 0.190190 0.125626
H195  H     H_    0.888318 0.499694 0.188137 0.134577
H196  H     H_    0.849775 0.523178 0.117090 0.131583
C329  C     C_R   0.539877 0.132317 0.924567 0.107475
C330  C     C_R   0.579137 0.107637 0.924908 -0.062647
C331  C     C_R   0.593294 0.086144 0.885002 -0.124042
C332  C     C_R   0.568608 0.089332 0.844453 -0.122272
C333  C     C_R   0.529495 0.113670 0.843857 -0.157211
C334  C     C_R   0.515102 0.135045 0.883751 -0.190285
H197  H     H_    0.599151 0.105793 0.955768 0.134509
H198  H     H_    0.623648 0.067407 0.885396 0.118086
H199  H     H_    0.579716 0.072854 0.813517 0.125479
H200  H     H_    0.510349 0.115995 0.812450 0.134626
H201  H     H_    0.484865 0.154015 0.882814 0.132395
C335  C     C_R   0.131375 0.465589 0.921924 0.106202
C336  C     C_R   0.107632 0.425816 0.920772 -0.065685
C337  C     C_R   0.085767 0.412948 0.880561 -0.117980
C338  C     C_R   0.087687 0.439451 0.841207 -0.120109
C339  C     C_R   0.110536 0.479419 0.842337 -0.156905
C340  C     C_R   0.132156 0.492601 0.882607 -0.186555
H202  H     H_    0.107112 0.404292 0.950556 0.131460
H203  H     H_    0.067979 0.382072 0.879675 0.117750
H204  H     H_    0.071221 0.429165 0.809915 0.125765
H205  H     H_    0.111659 0.500072 0.811927 0.134703
H206  H     H_    0.150171 0.523389 0.882958 0.131631
C341  C     C_R   0.466567 0.868714 0.921424 0.105880
C342  C     C_R   0.426701 0.892339 0.919703 -0.067462
C343  C     C_R   0.414128 0.914110 0.879287 -0.117634
C344  C     C_R   0.441055 0.912257 0.840319 -0.119066
C345  C     C_R   0.481185 0.889644 0.842071 -0.157560
C346  C     C_R   0.494053 0.868088 0.882542 -0.185891
H207  H     H_    0.404864 0.892796 0.949180 0.131444
H208  H     H_    0.383152 0.931757 0.877932 0.118483
H209  H     H_    0.430974 0.928606 0.808848 0.126921
H210  H     H_    0.502177 0.888605 0.811969 0.134146
H211  H     H_    0.524937 0.850192 0.883359 0.131275
C347  C     C_R   0.868142 0.534929 0.922114 0.105379
C348  C     C_R   0.892466 0.574346 0.920677 -0.065437
C349  C     C_R   0.914020 0.586990 0.880224 -0.118945
C350  C     C_R   0.911202 0.560630 0.840908 -0.120130
C351  C     C_R   0.887765 0.521013 0.842306 -0.157382
C352  C     C_R   0.866431 0.508063 0.882807 -0.186580
H212  H     H_    0.893661 0.595803 0.950421 0.132845
H213  H     H_    0.932256 0.617599 0.879126 0.118808
H214  H     H_    0.927420 0.570758 0.809431 0.127265
H215  H     H_    0.885950 0.500463 0.811920 0.134091
H216  H     H_    0.847951 0.477553 0.883366 0.131826
C353  C     C_R   0.033002 0.368518 0.578710 0.105952
C354  C     C_R   0.072891 0.392025 0.580706 -0.068398
C355  C     C_R   0.085186 0.413729 0.621174 -0.117806
C356  C     C_R   0.057935 0.411957 0.659905 -0.119329
C357  C     C_R   0.017762 0.389500 0.657854 -0.157458
C358  C     C_R   0.005184 0.367991 0.617336 -0.185544
H217  H     H_    0.094948 0.392445 0.551407 0.131010
H218  H     H_    0.116186 0.431272 0.622753 0.118221
H219  H     H_    0.067799 0.428253 0.691420 0.126299
H220  H     H_    0.996517 0.388534 0.687766 0.134031
H221  H     H_    0.974268 0.350206 0.616291 0.131088
C359  C     C_R   0.631884 0.034619 0.577947 0.104752
C360  C     C_R   0.607214 0.073845 0.579545 -0.064966
C361  C     C_R   0.585636 0.086109 0.620081 -0.119059
C362  C     C_R   0.588762 0.059555 0.659319 -0.121095
C363  C     C_R   0.612552 0.020130 0.657769 -0.157380
C364  C     C_R   0.633934 0.007571 0.617192 -0.186093
H222  H     H_    0.605766 0.095458 0.549864 0.133435
H223  H     H_    0.567131 0.116572 0.621299 0.119215
H224  H     H_    0.572514 0.069387 0.690856 0.127406
H225  H     H_    0.614608 0.999429 0.688095 0.133875
H226  H     H_    0.652674 0.977200 0.616513 0.131888
C365  C     C_R   0.959067 0.632664 0.574385 0.107522
C366  C     C_R   0.920000 0.607727 0.573967 -0.061788
C367  C     C_R   0.905755 0.586298 0.613937 -0.125448
C368  C     C_R   0.930148 0.589812 0.654635 -0.122894
C369  C     C_R   0.969023 0.614469 0.655337 -0.157048
C370  C     C_R   0.983499 0.635790 0.615385 -0.190201
H227  H     H_    0.900219 0.605588 0.542974 0.135370
H228  H     H_    0.875569 0.567333 0.613464 0.118378
H229  H     H_    0.918988 0.573357 0.685610 0.125643
H230  H     H_    0.987935 0.617065 0.686865 0.134421
H231  H     H_    0.013576 0.654967 0.616395 0.132908
C371  C     C_R   0.369109 0.960880 0.576558 0.108471
C372  C     C_R   0.393135 0.921238 0.575523 -0.062722
C373  C     C_R   0.415271 0.906444 0.614901 -0.121369
C374  C     C_R   0.413317 0.930832 0.655640 -0.121909
C375  C     C_R   0.389683 0.970348 0.656911 -0.158202
C376  C     C_R   0.367750 0.985426 0.617516 -0.189345
H232  H     H_    0.393868 0.901370 0.544581 0.133024
H233  H     H_    0.433462 0.875782 0.613988 0.117236
H234  H     H_    0.430219 0.919191 0.686196 0.125191
H235  H     H_    0.388325 0.989267 0.688460 0.135429
H236  H     H_    0.349276 0.015933 0.619004 0.132940
C377  C     C_R   0.040078 0.632266 0.424377 0.105979
C378  C     C_R   0.079208 0.607378 0.424902 -0.063346
C379  C     C_R   0.093325 0.585655 0.385116 -0.122493
C380  C     C_R   0.068726 0.588811 0.344508 -0.121960
C381  C     C_R   0.029705 0.613296 0.343749 -0.156872
C382  C     C_R   0.015340 0.634885 0.383529 -0.190059
H237  H     H_    0.099165 0.605561 0.455804 0.134067
H238  H     H_    0.123591 0.566779 0.385644 0.117830
H239  H     H_    0.079817 0.572176 0.313658 0.125482
H240  H     H_    0.010607 0.615564 0.312306 0.134604
H241  H     H_    0.985162 0.653943 0.382473 0.132853
C383  C     C_R   0.631337 0.965679 0.421906 0.106260
C384  C     C_R   0.607567 0.925921 0.420760 -0.065182
C385  C     C_R   0.585546 0.913148 0.380607 -0.117437
C386  C     C_R   0.587321 0.939739 0.341310 -0.120414
C387  C     C_R   0.610215 0.979680 0.342431 -0.157003
C388  C     C_R   0.632004 0.992759 0.382638 -0.186091
H242  H     H_    0.607117 0.904353 0.450509 0.131391
H243  H     H_    0.567727 0.882290 0.379728 0.117691
H244  H     H_    0.570716 0.929537 0.310068 0.125890
H245  H     H_    0.611229 0.000399 0.312065 0.134512
H246  H     H_    0.650025 0.023544 0.382990 0.131512
C389  C     C_R   0.967039 0.368822 0.421199 0.106248
C390  C     C_R   0.927009 0.392156 0.419373 -0.068268
C391  C     C_R   0.914434 0.413931 0.378961 -0.117424
C392  C     C_R   0.941539 0.412392 0.340112 -0.118469
C393  C     C_R   0.981854 0.390116 0.341996 -0.157563
C394  C     C_R   0.994721 0.368554 0.382464 -0.185835
H247  H     H_    0.905054 0.392368 0.448759 0.130821
H248  H     H_    0.883323 0.431335 0.377512 0.117870
H249  H     H_    0.931455 0.428733 0.308638 0.126027
H250  H     H_    0.002985 0.389329 0.311992 0.133909
H251  H     H_    0.025739 0.350896 0.383375 0.130988
C395  C     C_R   0.365487 0.039802 0.425284 0.103322
C396  C     C_R   0.392446 0.077496 0.424147 -0.058440
C397  C     C_R   0.413829 0.089664 0.383424 -0.122614
C398  C     C_R   0.408239 0.064588 0.343515 -0.124342
C399  C     C_R   0.381728 0.026966 0.344407 -0.154817
C400  C     C_R   0.360487 0.014521 0.385134 -0.186857
H252  H     H_    0.396096 0.097933 0.454450 0.137113
H253  H     H_    0.434294 0.118840 0.382677 0.119798
H254  H     H_    0.424575 0.074214 0.311931 0.127329
H255  H     H_    0.377638 0.007447 0.313520 0.133009
H256  H     H_    0.340002 0.985312 0.385404 0.132482

loop_
_geom_bond_atom_site_label_1
_geom_bond_atom_site_label_2
_ccdc_geom_bond_type
C321  C322  A    
O20   Zn4   S    
O73   C201  S    
C130  C146  A    
C188  H34   S    
C312  C313  A    
C283  C284  A    
O8    Zn2   S    
C285  H160  S    
C28   C227  S    
C110  C118  T    
C35   C269  S    
C360  C361  A    
C23   O79   S    
C374  H234  S    
C190  H41   S    
C196  H58   S    
C352  H216  S    
O46   Zn12  S    
O58   C186  S    
C243  H125  S    
C14   C158  A    
C222  C223  A    
C78   C383  S    
C232  H116  S    
C320  H189  S    
C289  C290  A    
C3    O3    A    
C330  C331  A    
C377  C382  A    
C22   C38   A    
C364  H226  S    
C184  H24   S    
O76   C204  S    
C154  C170  A    
C201  H75   S    
C282  C283  A    
C295  C296  A    
C97   O17   A    
C375  H235  S    
C371  C372  A    
C91   O39   A    
C177  H1    S    
C271  H148  S    
C25   C209  S    
O56   C184  S    
C133  C155  A    
C383  C388  A    
C95   O43   A    
C48   C60   A    
C159  C169  A    
C140  C152  A    
C129  C145  A    
C191  H45   S    
C330  H197  S    
C97   C105  S    
C79   C389  S    
C317  C322  A    
C321  H190  S    
C144  C164  A    
C42   C58   A    
C93   C150  S    
C229  H113  S    
C76   C371  S    
C90   O40   A    
C397  C398  A    
C200  H71   S    
C29   C233  S    
C270  H147  S    
O69   C197  S    
C226  H111  S    
C134  C146  A    
C30   C239  S    
C166  C174  A    
C115  C123  S    
C45   C69   A    
C264  H142  S    
C187  H33   S    
C251  C256  A    
C318  C319  A    
C121  C128  T    
C204  H84   S    
O7    Zn3   S    
C275  C280  A    
C112  C120  T    
O70   C198  S    
C311  C312  A    
C123  C126  T    
O5    Zn1   S    
C346  H211  S    
C96   O44   A    
C305  C306  A    
C28   C44   A    
C317  C318  A    
C68   C323  S    
C29   C45   A    
C217  C218  A    
C332  H199  S    
O28   Zn8   S    
C278  H154  S    
C230  C231  A    
C212  H99   S    
C143  O63   S    
C66   C82   A    
C280  H156  S    
C190  H40   S    
C4    C84   S    
C11   C27   A    
C319  H188  S    
O72   C200  S    
C265  C266  A    
C160  C172  A    
C61   C173  A    
C258  H137  S    
C136  O56   S    
C206  H88   S    
C390  C391  A    
C350  C351  A    
C47   C71   A    
C72   C84   A    
C204  H82   S    
C209  C214  A    
C23   C167  A    
C229  C230  A    
C183  H20   S    
C287  C292  A    
C286  H161  S    
O45   Zn12  S    
C3    C83   S    
C49   C73   A    
C288  C289  A    
C189  H37   S    
C345  C346  A    
C13   O69   S    
C252  C253  A    
C99   C107  S    
C180  H11   S    
C329  C330  A    
C196  H60   S    
C223  H108  S    
C182  H17   S    
C17   O73   S    
C273  H150  S    
C363  C364  A    
C193  H51   S    
C129  O49   S    
C293  C294  A    
C158  C170  A    
C292  H166  S    
C380  C381  A    
C302  H174  S    
C275  C276  A    
O10   Zn6   S    
C38   C287  S    
C208  H94   S    
C6    O10   A    
C247  H128  S    
C98   C106  S    
O19   Zn3   S    
C291  C292  A    
C97   O19   A    
C344  C345  A    
O17   Zn1   S    
C80   C88   A    
C297  C298  A    
C101  O25   A    
C353  C354  A    
C157  C171  A    
C24   O80   S    
C251  C252  A    
C8    O16   A    
C260  C261  A    
C65   C305  S    
C253  H133  S    
C337  H203  S    
O62   C190  S    
C261  H140  S    
O48   Zn12  S    
C258  C259  A    
C70   C82   A    
C46   C70   A    
C347  C348  A    
C246  C247  A    
C343  H208  S    
C22   C166  A    
C143  C149  A    
C284  C285  A    
O15   Zn7   S    
C248  C249  A    
C241  H123  S    
C290  H164  S    
C19   C35   A    
C95   C152  S    
C8    C88   S    
C205  H85   S    
C333  C334  A    
C33   C49   A    
C143  C161  A    
C203  H81   S    
C327  H195  S    
O52   C180  S    
C100  O22   A    
C362  H224  S    
C268  H146  S    
C369  C370  A    
C67   C83   A    
C223  C224  A    
C16   C160  A    
C122  C127  T    
C395  C400  A    
O29   Zn5   S    
C324  C325  A    
C163  C175  A    
C342  C343  A    
O41   Zn11  S    
C326  C327  A    
C1    O7    A    
C233  C238  A    
C302  C303  A    
C332  C333  A    
C137  O57   S    
C90   C147  S    
C289  H163  S    
C255  H135  S    
C7    O11   A    
C219  C220  A    
C103  O31   A    
O42   Zn11  S    
C300  C301  A    
C12   O68   S    
C180  H10   S    
C133  O53   S    
C192  H47   S    
O74   C202  S    
C374  C375  A    
C309  H180  S    
C398  H254  S    
C335  C336  A    
C93   O41   A    
O53   C181  S    
O34   Zn9   S    
C257  C262  A    
C139  C165  A    
C337  C338  A    
C199  H67   S    
C193  H50   S    
C393  H250  S    
C385  H243  S    
C290  C291  A    
C243  C244  A    
C295  H168  S    
C56   C64   A    
C131  C147  A    
C241  C242  A    
C133  C147  A    
C4    O8    A    
C64   C176  A    
C314  H184  S    
C360  H222  S    
C36   C52   A    
C43   C59   A    
C5    C85   S    
C301  C302  A    
O25   Zn5   S    
C396  H252  S    
C9    C153  A    
C224  H109  S    
O57   C185  S    
C46   C58   A    
C186  H30   S    
C94   O48   A    
C71   C341  S    
C222  H107  S    
C237  C238  A    
C48   C72   A    
C13   C157  A    
C191  H44   S    
C247  C248  A    
C303  H175  S    
C208  H96   S    
C39   C55   A    
C100  C108  S    
C282  H157  S    
O43   Zn11  S    
O18   Zn2   S    
C381  H240  S    
O68   C196  S    
C5    O15   A    
C91   O35   A    
C301  H173  S    
C104  C112  S    
C69   C329  S    
C256  H136  S    
C387  C388  A    
C89   O33   A    
C70   C335  S    
C291  H165  S    
C156  C172  A    
C199  H69   S    
C95   O47   A    
O35   Zn9   S    
C236  C237  A    
C194  H53   S    
C187  H32   S    
C336  H202  S    
C257  C258  A    
C227  C228  A    
C47   C57   A    
C228  C229  A    
O24   Zn2   S    
C355  C356  A    
C178  H6    S    
C325  C326  A    
C281  C282  A    
C397  H253  S    
C35   C51   A    
C98   O20   A    
C19   C163  A    
C215  C216  A    
C201  H74   S    
C311  C316  A    
C73   C85   A    
C376  H236  S    
C136  C148  A    
C17   C161  A    
C100  O24   A    
C75   C87   A    
C327  C328  A    
C197  H62   S    
O63   C191  S    
C198  H65   S    
C245  C250  A    
C202  H78   S    
C22   O78   S    
C318  H187  S    
C153  C169  A    
C273  C274  A    
C382  H241  S    
C366  C367  A    
C26   C42   A    
C379  H238  S    
C168  C176  A    
C303  C304  A    
C73   C353  S    
C218  H104  S    
C351  H215  S    
C30   C46   A    
C213  H100  S    
C239  C240  A    
C52   C76   A    
C236  H119  S    
C180  H12   S    
O55   C183  S    
C144  O64   S    
C15   C31   A    
O54   C182  S    
C24   C168  A    
C16   C32   A    
C197  H63   S    
C34   C263  S    
C365  C370  A    
C265  H143  S    
C56   C80   A    
C138  C166  A    
C80   C395  S    
C186  H28   S    
C181  H13   S    
C239  C244  A    
C206  H90   S    
O11   Zn7   S    
C340  H206  S    
C144  C152  A    
C336  C337  A    
C10   C154  A    
C130  O50   S    
O6    Zn4   S    
C269  C274  A    
C224  C225  A    
C367  H228  S    
C207  H93   S    
C55   C61   A    
C139  C151  A    
C184  H23   S    
C394  H251  S    
C378  C379  A    
C11   O67   S    
C262  H141  S    
O3    Zn3   S    
C255  C256  A    
C391  H248  S    
C388  H246  S    
C92   O36   A    
O47   Zn12  S    
O1    Zn1   S    
C307  C308  A    
C113  C121  S    
C77   C87   A    
C43   C67   A    
C395  C396  A    
C259  C260  A    
C20   O76   S    
C373  H233  S    
C2    O2    A    
C234  C235  A    
C304  H176  S    
C117  C125  S    
C227  C232  A    
C101  O27   A    
C270  C271  A    
C71   C81   A    
C119  C127  S    
C366  H227  S    
C329  C334  A    
C67   C317  S    
O78   C206  S    
O40   Zn10  S    
C331  H198  S    
O44   Zn11  S    
C209  C210  A    
C344  H209  S    
C5    O9    A    
C371  C376  A    
C198  H64   S    
C308  C309  A    
C203  H80   S    
C231  C232  A    
C9    C25   A    
C182  H16   S    
C200  H70   S    
C191  H43   S    
O16   Zn6   S    
C177  H3    S    
C132  O52   S    
C387  H245  S    
C17   C33   A    
C12   C28   A    
C13   C29   A    
C287  C288  A    
C343  C344  A    
C188  H36   S    
C347  C352  A    
C204  H83   S    
C39   C293  S    
C271  C272  A    
C59   C171  A    
C356  C357  A    
C284  H159  S    
C99   O21   A    
C101  C109  S    
C248  H129  S    
C20   C164  A    
C21   C165  A    
C98   O18   A    
C103  C111  S    
C216  H102  S    
C131  C157  A    
C102  O28   A    
C390  H247  S    
C203  H79   S    
C252  H132  S    
C215  C220  A    
C237  H120  S    
C7    C87   S    
C221  C222  A    
C179  H8    S    
C40   C56   A    
C185  H27   S    
C202  H76   S    
C92   O38   A    
C259  H138  S    
C359  C360  A    
C104  O30   A    
C354  C355  A    
C326  H194  S    
C378  H237  S    
C167  C173  A    
C72   C347  S    
O66   C194  S    
C242  C243  A    
C142  O62   S    
C31   C47   A    
C285  C286  A    
C249  H130  S    
C32   C48   A    
C197  H61   S    
C294  H167  S    
O39   Zn10  S    
C189  H38   S    
C4    O4    A    
C195  H57   S    
C253  C254  A    
C213  C214  A    
C190  H42   S    
C177  H2    S    
C196  H59   S    
C21   O77   S    
C370  H231  S    
C187  H31   S    
C49   C61   A    
C335  C340  A    
O30   Zn8   S    
C386  C387  A    
C68   C84   A    
C103  O29   A    
C269  C270  A    
C51   C63   A    
C349  C350  A    
C267  H145  S    
C393  C394  A    
C217  H103  S    
C385  C386  A    
C195  H55   S    
C54   C62   A    
C94   C151  S    
C319  C320  A    
C288  H162  S    
O4    Zn4   S    
C138  C150  A    
C245  C246  A    
C189  H39   S    
C109  C117  T    
O13   Zn5   S    
C314  C315  A    
C15   C159  A    
C398  C399  A    
C140  O60   S    
C161  C173  A    
C65   C81   A    
O59   C187  S    
C38   C54   A    
C138  O58   S    
C199  H68   S    
O50   C178  S    
C1    C81   S    
C139  O59   S    
C399  H255  S    
C132  C160  A    
C355  H218  S    
C89   C146  S    
C3    O5    A    
C235  H118  S    
C293  C298  A    
C131  O51   S    
C350  H214  S    
C272  H149  S    
C9    O65   S    
C306  H177  S    
C96   O46   A    
C52   C64   A    
C242  H124  S    
C10   O66   S    
C379  C380  A    
C102  C110  S    
C296  C297  A    
C25   C41   A    
O37   Zn10  S    
O71   C199  S    
C200  H72   S    
C179  H7    S    
C89   O37   A    
C361  C362  A    
C105  C113  T    
C338  H204  S    
C356  H219  S    
C386  H244  S    
C116  C124  S    
C272  C273  A    
C27   C221  S    
C324  H192  S    
C210  H97   S    
C299  C304  A    
O80   C208  S    
C6    C86   S    
C349  H213  S    
C142  C162  A    
C338  C339  A    
C120  C128  S    
C228  H112  S    
O9    Zn5   S    
C244  H126  S    
C281  C286  A    
C74   C359  S    
C130  C158  A    
C400  H256  S    
C108  C116  T    
C205  H87   S    
C50   C74   A    
C283  H158  S    
C102  O26   A    
C41   C57   A    
O67   C195  S    
C389  C394  A    
C372  H232  S    
O27   Zn7   S    
C18   C162  A    
C192  H46   S    
C134  C154  A    
C316  H186  S    
C44   C60   A    
C33   C257  S    
C96   C149  S    
C79   C85   A    
C164  C176  A    
C104  O32   A    
C323  C324  A    
C16   O72   S    
C214  H101  S    
C20   C36   A    
C27   C43   A    
C235  C236  A    
C21   C37   A    
C183  H19   S    
C207  H92   S    
C377  C378  A    
C99   O23   A    
C218  C219  A    
C351  C352  A    
C7    O13   A    
C375  C376  A    
O12   Zn8   S    
O23   Zn3   S    
C334  H201  S    
C211  C212  A    
C54   C78   A    
O21   Zn1   S    
C298  H171  S    
C140  C168  A    
C182  H18   S    
C365  C366  A    
C18   O74   S    
C31   C245  S    
C246  H127  S    
C186  H29   S    
C53   C63   A    
O61   C189  S    
C53   C77   A    
O75   C203  S    
C94   O42   A    
C142  C150  A    
C353  C358  A    
O31   Zn7   S    
C339  H205  S    
O36   Zn9   S    
C392  C393  A    
C333  H200  S    
C276  C277  A    
C266  H144  S    
C389  C390  A    
C384  C385  A    
C267  C268  A    
C328  H196  S    
C208  H95   S    
C306  C307  A    
O65   C193  S    
C106  C114  T    
C384  H242  S    
C111  C119  T    
O60   C188  S    
C58   C170  A    
C51   C75   A    
C300  H172  S    
C279  H155  S    
C136  C156  A    
C23   C39   A    
C135  C145  A    
C250  H131  S    
C307  H178  S    
C266  C267  A    
C62   C174  A    
C357  H220  S    
C55   C79   A    
C373  C374  A    
C137  C167  A    
C264  C265  A    
C2    O6    A    
C234  H117  S    
C77   C377  S    
C368  C369  A    
C341  C342  A    
O22   Zn4   S    
C24   C40   A    
C341  C346  A    
C60   C172  A    
C1    O1    A    
C216  C217  A    
C178  H4    S    
C66   C311  S    
C310  H181  S    
C277  C278  A    
C178  H5    S    
C331  C332  A    
C362  C363  A    
C220  H106  S    
C261  C262  A    
C76   C88   A    
O14   Zn8   S    
C231  H115  S    
C179  H9    S    
O26   Zn6   S    
C10   C26   A    
C26   C215  S    
C325  H193  S    
C134  O54   S    
C274  H151  S    
C135  O55   S    
C202  H77   S    
C392  H249  S    
C363  H225  S    
C240  C241  A    
C14   C30   A    
C305  C310  A    
C91   C148  S    
C299  C300  A    
C57   C169  A    
C396  C397  A    
C276  H152  S    
C34   C50   A    
C313  C314  A    
C15   O71   S    
C132  C148  A    
C230  H114  S    
C315  C316  A    
C254  C255  A    
C195  H56   S    
C345  H210  S    
C279  C280  A    
C225  C226  A    
C90   O34   A    
C207  H91   S    
C192  H48   S    
C41   C65   A    
C391  C392  A    
C359  C364  A    
C254  H134  S    
C32   C251  S    
C181  H14   S    
C206  H89   S    
C193  H49   S    
C69   C83   A    
C348  H212  S    
O64   C192  S    
C249  C250  A    
C183  H21   S    
C312  H182  S    
C6    O14   A    
C184  H22   S    
C240  H122  S    
C308  H179  S    
C74   C86   A    
C18   C34   A    
C107  C115  T    
O77   C205  S    
C238  H121  S    
C294  C295  A    
C137  C149  A    
C219  H105  S    
C141  C163  A    
C354  H217  S    
C260  H139  S    
C50   C62   A    
C185  H26   S    
C44   C68   A    
C181  H15   S    
C12   C156  A    
C129  C159  A    
C339  C340  A    
C141  C151  A    
C19   O75   S    
C278  C279  A    
C372  C373  A    
C367  C368  A    
C322  H191  S    
C37   C281  S    
C92   C145  S    
C185  H25   S    
C381  C382  A    
C297  H170  S    
C315  H185  S    
O51   C179  S    
C63   C175  A    
C369  H230  S    
C162  C174  A    
C348  C349  A    
C11   C155  A    
C165  C175  A    
C212  C213  A    
C135  C153  A    
C313  H183  S    
C194  H54   S    
C211  H98   S    
C221  C226  A    
C380  H239  S    
C399  C400  A    
C358  H221  S    
C188  H35   S    
C342  H207  S    
C75   C365  S    
C277  H153  S    
C78   C86   A    
C233  C234  A    
C263  C268  A    
C323  C328  A    
C40   C299  S    
C368  H229  S    
C141  O61   S    
C263  C264  A    
C320  C321  A    
C194  H52   S    
C296  H169  S    
C201  H73   S    
O33   Zn9   S    
O2    Zn2   S    
C2    C82   S    
C37   C53   A    
C361  H223  S    
C114  C122  S    
C155  C171  A    
C383  C384  A    
C14   O70   S    
C45   C59   A    
C309  C310  A    
C198  H66   S    
C42   C66   A    
C210  C211  A    
O38   Zn10  S    
C93   O45   A    
C118  C126  S    
C357  C358  A    
O49   C177  S    
C225  H110  S    
C205  H86   S    
C8    O12   A    
O79   C207  S    
O32   Zn6   S    
C124  C125  T    
C36   C275  S    
