data_mof_unit_27244.cif
_audit_creation_date              2012-12-10T20:50:11-0500
_audit_creation_method            fapswitch 2.2
_symmetry_space_group_name_H-M    P1
_symmetry_Int_Tables_number       1
_space_group_crystal_system       triclinic
_cell_length_a                    19.239461
_cell_length_b                    8.92808
_cell_length_c                    8.09968
_cell_angle_alpha                 90.000098
_cell_angle_beta                  90.038256
_cell_angle_gamma                 90.000029
_cell_volume                      1391.29344342

loop_
_atom_site_label
_atom_site_type_symbol
_atom_type_description
_atom_site_fract_x
_atom_site_fract_y
_atom_site_fract_z
_atom_type_partial_charge
C1    C     C_R   0.500000 0.217974 0.500000 1.015034
C2    C     C_R   0.253971 0.600680 0.387872 -0.044048
C3    C     C_R   0.179595 0.425665 0.615692 -0.168897
C4    C     C_R   0.820404 0.425645 0.384321 -0.168897
C5    C     C_R   0.818323 0.600217 0.613255 -0.164239
C6    C     C_R   0.181677 0.600198 0.386723 -0.164239
C7    C     C_R   0.144937 0.515454 0.501594 0.039706
C8    C     C_R   0.855062 0.515454 0.498400 0.039707
C9    C     C_R   0.289597 0.505104 0.499851 -0.186428
C10   C     C_R   0.710403 0.505103 0.500148 -0.186422
C11   C     C_R   0.930174 0.518939 0.499138 0.296652
C12   C     C_R   0.500000 0.782030 0.500000 1.005551
C13   C     C_R   0.069825 0.518939 0.500855 0.296651
C14   C     C_2   0.285203 0.302985 0.723102 0.939801
C15   C     C_2   0.714796 0.302946 0.276938 0.939793
C16   C     C_2   0.710458 0.707956 0.724123 0.940086
C17   C     C_2   0.289541 0.707922 0.275837 0.940096
C18   C     C_R   0.365270 0.500741 0.499928 0.950982
C19   C     C_R   0.634730 0.500741 0.500072 0.951008
C20   C     C_1   0.499999 0.065196 0.500000 -0.138987
C21   C     C_1   0.499999 0.934811 0.500000 -0.118674
C22   C     C_R   0.251787 0.415064 0.612900 -0.041748
C23   C     C_R   0.748212 0.415044 0.387117 -0.041756
C24   C     C_R   0.746028 0.600698 0.612107 -0.044062
H1    H     H_    0.149918 0.357623 0.701328 0.179939
H2    H     H_    0.850080 0.357588 0.298699 0.179942
H3    H     H_    0.846324 0.671791 0.698668 0.184710
H4    H     H_    0.153675 0.671756 0.301294 0.184704
H5    H     H_    0.358706 0.143814 0.752186 0.347488
H6    H     H_    0.641289 0.143778 0.247884 0.347488
H7    H     H_    0.709586 0.811177 0.945782 0.355694
H8    H     H_    0.290417 0.811096 0.054153 0.355683
N1    N     N_1   0.500000 0.500000 0.073640 -0.018654
N2    N     N_1   0.500000 0.500000 0.926360 -0.018656
N3    N     N_R   0.034735 0.519641 0.355841 -0.146589
N4    N     N_R   0.965264 0.519679 0.644152 -0.146592
N5    N     N_R   0.965796 0.518761 0.354985 -0.147330
N6    N     N_R   0.034203 0.518799 0.645008 -0.147328
O1    O     O_R   0.500000 0.285350 0.636850 -0.611370
O2    O     O_R   0.340993 0.216971 0.666155 -0.807770
O3    O     O_2   0.737706 0.282092 0.137971 -0.600487
O4    O     O_R   0.659001 0.216952 0.333898 -0.807774
O5    O     O_2   0.659202 0.776959 0.677322 -0.633478
O6    O     O_R   0.737686 0.734845 0.881506 -0.779285
O7    O     O_2   0.340793 0.776943 0.322632 -0.633473
O8    O     O_R   0.262318 0.734773 0.118442 -0.779280
O9    O     O_R   0.500000 0.714650 0.363150 -0.607903
O10   O     O_R   0.500000 0.714650 0.636850 -0.607904
O11   O     O_R   0.500000 0.285350 0.363150 -0.611375
O12   O     O_R   0.398140 0.500000 0.636920 -0.611186
O13   O     O_R   0.601860 0.500000 0.363080 -0.611186
O14   O     O_R   0.601860 0.500000 0.636920 -0.601839
O15   O     O_R   0.398140 0.500000 0.363080 -0.601838
O16   O     O_2   0.262294 0.282162 0.862078 -0.600476
Zn1   Zn    Zn3+2 0.500000 0.500000 0.682780 1.054724
Zn2   Zn    Zn3+2 0.500000 0.500000 0.317220 1.054726

loop_
_geom_bond_atom_site_label_1
_geom_bond_atom_site_label_2
_ccdc_geom_bond_type
O10   Zn1   S    
C4    H2    S    
C6    C7    A    
C10   C23   A    
C5    C8    A    
O11   Zn2   S    
C16   O6    S    
O12   Zn1   S    
O14   Zn1   S    
C12   O10   A    
C10   C19   S    
C4    C8    A    
C14   C22   S    
N1    Zn2   S    
C15   C23   S    
N1    N2    T    
N2    Zn1   S    
C16   C24   S    
C20   C21   T    
C2    C17   S    
C16   O5    D    
C18   O12   A    
C13   N6    A    
C2    C6    A    
C5    C24   A    
C1    O11   A    
C8    C11   S    
C12   C21   S    
H5    O2    S    
N4    N6    A    
C11   N4    A    
C14   O16   D    
C17   O7    D    
C13   N3    A    
C3    C7    A    
C12   O9    A    
O1    Zn1   S    
C9    C22   A    
H7    O6    S    
C1    O1    A    
C14   O2    S    
C19   O13   A    
C9    C18   S    
C7    C13   S    
C3    H1    S    
C17   O8    S    
C15   O3    D    
O13   Zn2   S    
O15   Zn2   S    
N3    N5    A    
C11   N5    A    
C4    C23   A    
H6    O4    S    
C1    C20   S    
C18   O15   A    
C10   C24   A    
C5    H3    S    
C2    C9    A    
H8    O8    S    
C19   O14   A    
C6    H4    S    
C15   O4    S    
O9    Zn2   S    
C3    C22   A    
