data_mof_unit_33745.cif
_audit_creation_date              2012-10-26T21:13:38-0400
_audit_creation_method            fapswitch 2.2
_symmetry_space_group_name_H-M    P1
_symmetry_Int_Tables_number       1
_space_group_crystal_system       triclinic
_cell_length_a                    9.076165
_cell_length_b                    10.810187
_cell_length_c                    9.554383
_cell_angle_alpha                 89.849426
_cell_angle_beta                  90.033772
_cell_angle_gamma                 90.23052
_cell_volume                      937.417697404

loop_
_atom_site_label
_atom_site_type_symbol
_atom_type_description
_atom_site_fract_x
_atom_site_fract_y
_atom_site_fract_z
_atom_type_partial_charge
C1    C     C_R   0.502062 0.262386 0.500223 0.545847
C2    C     C_R   0.586448 0.581638 0.925989 0.165444
C3    C     C_3   0.750252 0.590477 0.919693 -0.273780
C4    C     C_R   0.220700 0.500008 0.499956 0.554961
C5    C     C_3   0.750894 0.589662 0.078201 -0.275364
C6    C     C_R   0.507703 0.737572 0.499889 0.538609
C7    C     C_R   0.779296 0.500136 0.500045 0.546330
C8    C     C_1   0.065542 0.500118 0.499958 -0.064693
C9    C     C_1   0.934428 0.500172 0.500049 -0.069264
C10   C     C_R   0.488435 0.062835 0.623312 0.013696
C11   C     C_R   0.517615 0.129510 0.501561 -0.041677
C12   C     C_R   0.585575 0.938117 0.385534 0.210442
C13   C     C_R   0.575055 0.067156 0.385070 -0.095234
C14   C     C_R   0.528351 0.870828 0.501584 -0.003704
C15   C     C_R   0.492205 0.935861 0.622758 -0.009755
C16   C     C_3   0.361226 0.925275 0.716670 -0.255599
C17   C     C_3   0.357036 0.065769 0.717255 -0.264137
C18   C     C_R   0.586688 0.581557 0.073405 0.184783
C19   C     C_R   0.405833 0.426804 0.074542 -0.009657
C20   C     C_R   0.405879 0.426743 0.925742 -0.009455
Cu1   Cu    Cu3+1 0.499990 0.499980 0.640670 0.939971
Cu2   Cu    Cu3+1 0.500010 0.500020 0.359330 0.948361
H1    H     H_    0.611425 0.118140 0.293507 0.159182
H2    H     H_    0.331878 0.365467 0.870115 0.114329
H3    H     H_    0.802379 0.506749 0.874469 0.157239
H4    H     H_    0.700167 0.807130 0.304486 0.328300
H5    H     H_    0.787995 0.679768 0.873913 0.136260
H6    H     H_    0.802801 0.505277 0.122684 0.153155
H7    H     H_    0.790794 0.678136 0.123390 0.143730
H8    H     H_    0.264510 0.882307 0.664008 0.138528
H9    H     H_    0.390032 0.884881 0.820202 0.158088
H10   H     H_    0.257890 0.104642 0.665003 0.133040
H11   H     H_    0.383361 0.106355 0.821133 0.142590
H12   H     H_    0.331744 0.365615 0.130443 0.119435
N1    N     N_R   0.500920 0.500930 0.147930 -0.233085
N2    N     N_R   0.500930 0.500890 0.852020 -0.233921
O1    O     O_R   0.500000 0.319640 0.618810 -0.495215
O2    O     O_R   0.500020 0.319680 0.381230 -0.512767
O3    O     O_R   0.288380 0.499980 0.618770 -0.500442
O4    O     O_R   0.288400 0.500020 0.381190 -0.495081
O5    O     O_R   0.499980 0.680320 0.618770 -0.498980
O6    O     O_R   0.500000 0.680360 0.381190 -0.479844
O7    O     O_R   0.711600 0.499980 0.618810 -0.501945
O8    O     O_R   0.711620 0.500020 0.381230 -0.508791
O9    O     O_3   0.649262 0.882480 0.271175 -0.699929

loop_
_geom_bond_atom_site_label_1
_geom_bond_atom_site_label_2
_ccdc_geom_bond_type
C8    C9    T    
C7    O7    A    
C6    C14   S    
C5    H6    S    
C18   N1    A    
C19   C20   A    
Cu1   O3    S    
C4    O3    A    
C1    O1    A    
C4    C8    S    
Cu2   O4    S    
C3    H5    S    
C2    C3    S    
Cu1   N2    S    
C19   N1    A    
C7    O8    A    
C16   H9    S    
Cu2   N1    S    
C11   C13   A    
Cu2   O6    S    
C17   H11   S    
C1    O2    A    
Cu1   O5    S    
Cu1   Cu2   S    
C12   C14   A    
C5    H7    S    
C10   C15   A    
Cu2   O2    S    
C2    C18   A    
C10   C11   A    
C10   C17   S    
C16   H8    S    
C15   C16   S    
C20   N2    A    
C4    O4    A    
C3    H3    S    
Cu1   O1    S    
C12   C13   A    
C13   H1    S    
C6    O6    A    
C2    N2    A    
C7    C9    S    
C17   H10   S    
C14   C15   A    
C16   C17   S    
C5    C18   S    
H4    O9    S    
Cu1   O7    S    
C6    O5    A    
Cu2   O8    S    
C20   H2    S    
C12   O9    S    
C3    C5    S    
C19   H12   S    
C1    C11   S    
