data_mof_unit_61492.cif
_audit_creation_date              2012-12-11T17:18:41-0500
_audit_creation_method            fapswitch 2.2
_symmetry_space_group_name_H-M    P1
_symmetry_Int_Tables_number       1
_space_group_crystal_system       triclinic
_cell_length_a                    27.499636
_cell_length_b                    22.356263
_cell_length_c                    20.92023
_cell_angle_alpha                 89.997529
_cell_angle_beta                  51.63036
_cell_angle_gamma                 90.080475
_cell_volume                      10083.7112873

loop_
_atom_site_label
_atom_site_type_symbol
_atom_type_description
_atom_site_fract_x
_atom_site_fract_y
_atom_site_fract_z
_atom_type_partial_charge
C1    C     C_R   0.896751 0.564620 0.736020 -0.099776
C2    C     C_1   0.884043 0.281018 0.839407 0.137370
C3    C     C_R   0.292428 0.325220 0.047277 -0.162401
C4    C     C_R   0.793165 0.174698 0.047526 -0.162278
C5    C     C_R   0.206833 0.825296 0.952467 -0.162274
C6    C     C_R   0.364203 0.259051 0.904271 -0.162384
C7    C     C_R   0.635791 0.740953 0.095726 -0.162391
C8    C     C_R   0.154925 0.816606 0.096668 -0.421734
C9    C     C_R   0.845059 0.183394 0.903329 -0.421729
C10   C     C_R   0.683423 0.729910 0.953107 -0.418701
C11   C     C_R   0.316587 0.270105 0.046882 -0.418731
C12   C     C_R   0.817420 0.229931 0.046804 -0.418666
C13   C     C_1   0.758891 0.650443 0.876832 0.137965
C14   C     C_R   0.182596 0.770053 0.953183 -0.418674
C15   C     C_R   0.344768 0.316488 0.902984 -0.421797
C16   C     C_R   0.655214 0.683508 0.097018 -0.421768
C17   C     C_1   0.241109 0.349560 0.123166 0.137967
C18   C     C_1   0.741852 0.150356 0.123569 0.137752
C19   C     C_1   0.258147 0.849642 0.876428 0.137756
C20   C     C_1   0.384003 0.218964 0.839319 0.137433
C21   C     C_1   0.615990 0.781036 0.160682 0.137423
C22   C     C_1   0.895778 0.316424 0.788673 -0.037882
C23   C     C_1   0.104224 0.683574 0.211325 -0.037876
C24   C     C_1   0.194685 0.367511 0.185735 -0.030115
C25   C     C_R   0.103249 0.435381 0.263980 -0.099771
C26   C     C_1   0.805316 0.632491 0.814265 -0.030120
C27   C     C_1   0.304634 0.867625 0.813821 -0.030036
C28   C     C_1   0.695365 0.132375 0.186177 -0.030029
C29   C     C_1   0.604031 0.816448 0.211479 -0.037730
C30   C     C_1   0.395962 0.183550 0.788524 -0.037732
C31   C     C_1   0.212438 0.631540 0.452825 -0.040392
C32   C     C_1   0.787560 0.368462 0.547180 -0.040391
C33   C     C_1   0.869626 0.683708 0.421311 -0.046551
C34   C     C_1   0.130375 0.316292 0.578688 -0.046548
C35   C     C_1   0.629961 0.183915 0.579258 -0.046691
C36   C     C_R   0.075839 0.581584 0.270770 -0.112700
C37   C     C_1   0.370042 0.816084 0.420738 -0.046693
C38   C     C_1   0.287936 0.131627 0.546370 -0.040346
C39   C     C_1   0.712063 0.868372 0.453630 -0.040347
C40   C     C_2   0.314693 0.681732 0.410056 -0.162312
C41   C     C_2   0.685306 0.318268 0.589948 -0.162311
C42   C     C_2   0.826086 0.764010 0.377790 -0.152815
C43   C     C_2   0.173916 0.235991 0.622209 -0.152809
C44   C     C_2   0.672962 0.264304 0.623595 -0.152671
C45   C     C_2   0.327041 0.735693 0.376402 -0.152674
C46   C     C_2   0.186058 0.182053 0.588645 -0.162364
C47   C     C_R   0.924161 0.418416 0.729230 -0.112700
C48   C     C_2   0.813941 0.817947 0.411357 -0.162361
C49   C     C_1   0.738953 0.348391 0.569539 0.051909
C50   C     C_1   0.261045 0.651611 0.430466 0.051909
C51   C     C_1   0.147675 0.279631 0.602124 0.052533
C52   C     C_1   0.852326 0.720370 0.397875 0.052530
C53   C     C_1   0.353022 0.779386 0.396915 0.052395
C54   C     C_1   0.646982 0.220612 0.603081 0.052397
C55   C     C_1   0.760500 0.848189 0.431543 0.052026
C56   C     C_1   0.239499 0.151811 0.568458 0.052027
C57   C     C_R   0.879623 0.435186 0.462538 -0.117838
C58   C     C_R   0.424439 0.081621 0.729069 -0.112945
C59   C     C_R   0.120376 0.564816 0.537465 -0.117840
C60   C     C_R   0.095843 0.417753 0.576385 -0.135472
C61   C     C_R   0.904157 0.582247 0.423615 -0.135475
C62   C     C_R   0.404191 0.917691 0.423556 -0.134802
C63   C     C_R   0.595810 0.082309 0.576442 -0.134800
C64   C     C_R   0.620268 0.935191 0.537715 -0.118382
C65   C     C_R   0.379732 0.064809 0.462285 -0.118381
C66   C     C_R   0.908726 0.650702 0.495914 -0.135451
C67   C     C_R   0.091274 0.349298 0.504086 -0.135453
C68   C     C_R   0.116321 0.633708 0.464093 -0.118320
C69   C     C_R   0.575558 0.918378 0.270932 -0.112944
C70   C     C_R   0.883678 0.366293 0.535909 -0.118319
C71   C     C_R   0.383806 0.133693 0.535666 -0.119217
C72   C     C_R   0.616194 0.866307 0.464333 -0.119219
C73   C     C_R   0.591234 0.150790 0.504205 -0.134507
C74   C     C_R   0.408767 0.849209 0.495793 -0.134508
C75   C     C_R   0.920169 0.348135 0.657391 -0.147296
C76   C     C_R   0.079831 0.651864 0.342608 -0.147298
C77   C     C_R   0.107788 0.364643 0.335928 -0.128692
C78   C     C_R   0.892212 0.635358 0.664072 -0.128691
C79   C     C_R   0.392041 0.864611 0.663783 -0.128604
C80   C     C_R   0.603717 0.064426 0.264145 -0.099993
C81   C     C_R   0.607958 0.135389 0.336216 -0.128605
C82   C     C_R   0.579680 0.848167 0.342710 -0.147064
C83   C     C_R   0.420317 0.151832 0.657292 -0.147062
C84   C     C_R   0.862372 0.612262 0.741571 0.078723
C85   C     C_R   0.137629 0.387739 0.258429 0.078721
C86   C     C_R   0.092571 0.640025 0.268856 0.095644
C87   C     C_R   0.907430 0.359974 0.731144 0.095643
C88   C     C_R   0.407805 0.140028 0.730912 0.095709
C89   C     C_R   0.592190 0.859970 0.269091 0.095709
C90   C     C_R   0.638173 0.112074 0.258782 0.078912
C91   C     C_R   0.396283 0.935573 0.735855 -0.099998
C92   C     C_R   0.361827 0.887926 0.741218 0.078913
C93   C     C_R   0.847307 0.388944 0.516816 0.084426
C94   C     C_R   0.152692 0.611058 0.483187 0.084427
C95   C     C_R   0.112206 0.360194 0.548227 0.096354
C96   C     C_R   0.887795 0.639806 0.451773 0.096354
C97   C     C_R   0.387880 0.860053 0.451601 0.096374
C98   C     C_R   0.612122 0.139946 0.548396 0.096373
C99   C     C_R   0.652499 0.888949 0.483602 0.084483
C100  C     C_R   0.347501 0.111051 0.516398 0.084482
C101  C     C_R   0.809269 0.150097 0.975097 0.813900
C102  C     C_1   0.115959 0.718978 0.160589 0.137364
C103  C     C_R   0.190713 0.849904 0.024900 0.813897
C104  C     C_R   0.352617 0.236868 0.975199 0.815265
C105  C     C_R   0.647391 0.763145 0.024791 0.815237
C106  C     C_R   0.146763 0.736777 0.024967 0.815186
C107  C     C_R   0.853254 0.263205 0.975019 0.815187
C108  C     C_R   0.691209 0.650252 0.025345 0.813989
C109  C     C_R   0.308775 0.349746 0.974657 0.814016
C110  C     C_R   0.135461 0.759048 0.095665 -0.162380
C111  C     C_R   0.864540 0.240944 0.904327 -0.162385
C112  C     C_R   0.707571 0.674786 0.952718 -0.162410
F1    F     F_    0.785316 0.096774 0.975622 -0.682899
F2    F     F_    0.214650 0.903237 0.024381 -0.682900
F3    F     F_    0.370933 0.180920 0.976941 -0.682686
F4    F     F_    0.629087 0.819100 0.023043 -0.682674
F5    F     F_    0.128404 0.680719 0.023505 -0.682707
F6    F     F_    0.871631 0.319256 0.976476 -0.682710
F7    F     F_    0.715046 0.597031 0.025147 -0.682843
F8    F     F_    0.284927 0.402959 0.974861 -0.682848
H1    H     H_    0.885931 0.536030 0.784982 0.124891
H2    H     H_    0.135286 0.536536 0.564244 0.107844
H3    H     H_    0.095610 0.437736 0.623677 0.107249
H4    H     H_    0.904391 0.562264 0.376323 0.107248
H5    H     H_    0.404514 0.937687 0.376197 0.107038
H6    H     H_    0.595488 0.062312 0.623801 0.107039
H7    H     H_    0.635141 0.963446 0.564602 0.107931
H8    H     H_    0.364859 0.036554 0.435398 0.107931
H9    H     H_    0.913432 0.694218 0.514163 0.098807
H10   H     H_    0.086568 0.305781 0.485836 0.098808
H11   H     H_    0.127748 0.670231 0.423087 0.106902
H12   H     H_    0.114070 0.463971 0.215019 0.124896
H13   H     H_    0.872250 0.329770 0.576915 0.106903
H14   H     H_    0.372433 0.170222 0.576583 0.106577
H15   H     H_    0.627567 0.829778 0.423416 0.106578
H16   H     H_    0.586431 0.194322 0.486127 0.098866
H17   H     H_    0.413571 0.805677 0.513871 0.098866
H18   H     H_    0.922780 0.304281 0.633578 0.101539
H19   H     H_    0.077221 0.695718 0.366422 0.101539
H20   H     H_    0.122942 0.327689 0.352851 0.107348
H21   H     H_    0.877059 0.672312 0.647149 0.107348
H22   H     H_    0.377211 0.827363 0.646777 0.107466
H23   H     H_    0.069951 0.561162 0.229081 0.120524
H24   H     H_    0.622789 0.172637 0.353222 0.107466
H25   H     H_    0.577491 0.804378 0.366397 0.101326
H26   H     H_    0.422505 0.195621 0.633605 0.101325
H27   H     H_    0.853227 0.166345 0.848910 0.195200
H28   H     H_    0.146745 0.833662 0.151092 0.195200
H29   H     H_    0.303407 0.250749 0.103166 0.195930
H30   H     H_    0.696614 0.749272 0.896819 0.195925
H31   H     H_    0.195608 0.750630 0.897044 0.195987
H32   H     H_    0.804420 0.249348 0.102940 0.195986
H33   H     H_    0.646808 0.666519 0.151628 0.195150
H34   H     H_    0.930050 0.438838 0.770919 0.120520
H35   H     H_    0.353163 0.333471 0.848380 0.195155
H36   H     H_    0.304705 0.751232 0.351101 0.143551
H37   H     H_    0.695302 0.248764 0.648892 0.143551
H38   H     H_    0.833320 0.832129 0.441078 0.141570
H39   H     H_    0.166677 0.167870 0.558927 0.141570
H40   H     H_    0.666070 0.332445 0.560069 0.141567
H41   H     H_    0.333927 0.667556 0.439939 0.141567
H42   H     H_    0.196383 0.251530 0.647366 0.143529
H43   H     H_    0.803620 0.748472 0.352631 0.143528
H44   H     H_    0.430341 0.061197 0.770737 0.120526
H45   H     H_    0.569656 0.938802 0.229265 0.120529
H46   H     H_    0.614764 0.035755 0.215165 0.125227
H47   H     H_    0.385235 0.964245 0.784835 0.125221
H48   H     H_    0.864712 0.463466 0.435759 0.107844
N1    N     N_R   0.945330 0.558420 0.657110 -0.049498
N2    N     N_R   0.067050 0.559540 0.548760 -0.045131
N3    N     N_R   0.067050 0.440460 0.548760 -0.043217
N4    N     N_R   0.932950 0.559540 0.451240 -0.043216
N5    N     N_R   0.432950 0.940460 0.451240 -0.043080
N6    N     N_R   0.567050 0.059540 0.548760 -0.043080
N7    N     N_R   0.567050 0.940460 0.548760 -0.045245
N8    N     N_R   0.432950 0.059540 0.451240 -0.045245
N9    N     N_R   0.935620 0.600470 0.495720 -0.040541
N10   N     N_R   0.064380 0.399530 0.504280 -0.040541
N11   N     N_R   0.064380 0.600470 0.504280 -0.044154
N12   N     N_R   0.054670 0.441580 0.342890 -0.049499
N13   N     N_R   0.935620 0.399530 0.495720 -0.044155
N14   N     N_R   0.435620 0.100470 0.495720 -0.044138
N15   N     N_R   0.564380 0.899530 0.504280 -0.044138
N16   N     N_R   0.564380 0.100470 0.504280 -0.040560
N17   N     N_R   0.435620 0.899530 0.495720 -0.040559
N18   N     N_R   0.942650 0.398400 0.612630 -0.040867
N19   N     N_R   0.057350 0.601600 0.387370 -0.040867
N20   N     N_R   0.057350 0.398400 0.387370 -0.043859
N21   N     N_R   0.942650 0.601600 0.612630 -0.043859
N22   N     N_R   0.442650 0.898400 0.612630 -0.043908
N23   N     N_R   0.054670 0.558420 0.342890 -0.047969
N24   N     N_R   0.557350 0.101600 0.387370 -0.043908
N25   N     N_R   0.557350 0.898400 0.387370 -0.040860
N26   N     N_R   0.442650 0.101600 0.612630 -0.040860
N27   N     N_R   0.945330 0.441580 0.657110 -0.047968
N28   N     N_R   0.445330 0.058420 0.657110 -0.047950
N29   N     N_R   0.554670 0.941580 0.342890 -0.047951
N30   N     N_R   0.554670 0.058420 0.342890 -0.049653
N31   N     N_R   0.445330 0.941580 0.657110 -0.049652
N32   N     N_R   0.932950 0.440460 0.451240 -0.045131
Ni1   Ni    Ni4+2 0.004930 0.500000 0.602010 0.220411
Ni2   Ni    Ni4+2 0.995070 0.500000 0.397990 0.220411
Ni3   Ni    Ni4+2 0.504930 0.000000 0.602010 0.220339
Ni4   Ni    Ni4+2 0.495070 0.000000 0.397990 0.220339
Ni5   Ni    Ni4+2 0.998800 0.599610 0.500000 0.215636
Ni6   Ni    Ni4+2 0.001200 0.400390 0.500000 0.215637
Ni7   Ni    Ni4+2 0.498800 0.099610 0.500000 0.215801
Ni8   Ni    Ni4+2 0.501200 0.900390 0.500000 0.215800

loop_
_geom_bond_atom_site_label_1
_geom_bond_atom_site_label_2
_ccdc_geom_bond_type
N4    N9    A    
C9    C111  A    
C48   C55   S    
N26   N28   A    
C43   C46   D    
N11   Ni5   S    
N15   Ni8   S    
C60   H3    S    
C36   N23   A    
C101  F1    S    
C15   C109  A    
C105  F4    S    
N17   Ni8   S    
C77   H20   S    
N1    N21   A    
C58   H44   S    
C71   H14   S    
C37   C97   S    
C25   N12   A    
C57   H48   S    
C20   C30   T    
C1    C84   A    
N8    N14   A    
N26   Ni7   S    
C5    C103  A    
N20   Ni6   S    
C34   C51   T    
N16   Ni7   S    
C61   H4    S    
C47   N27   A    
C36   H23   S    
C63   C98   A    
N12   Ni2   S    
C69   N29   A    
C40   C50   S    
N7    Ni3   S    
C79   H22   S    
C104  F3    S    
N29   Ni4   S    
N14   Ni7   S    
C41   C49   S    
N8    Ni4   S    
C82   N25   A    
N12   N20   A    
C6    C15   A    
C11   H29   S    
C81   H24   S    
C39   C55   T    
N21   Ni5   S    
N2    Ni1   S    
C23   C86   S    
C14   H31   S    
C2    C22   T    
C70   H13   S    
C7    C105  A    
N3    N10   A    
C10   C112  A    
C11   C104  A    
C59   C94   A    
C6    C104  A    
C4    C12   A    
C35   C98   S    
C19   C27   T    
C24   C85   S    
C107  F6    S    
C15   H35   S    
C74   N17   A    
C4    C18   S    
C59   H2    S    
C83   C88   A    
C77   C85   A    
N25   Ni8   S    
C57   C93   A    
C35   C54   T    
C67   C95   A    
C44   H37   S    
C60   N3    A    
C71   N14   A    
N19   Ni5   S    
C8    H28   S    
C78   N21   A    
N31   Ni3   S    
C69   C89   A    
C32   C93   S    
C80   H46   S    
C66   N9    A    
N22   N31   A    
C91   H47   S    
C74   C97   A    
C69   H45   S    
C64   C99   A    
C73   C98   A    
C74   H17   S    
C2    C111  S    
C61   C96   A    
C17   C24   T    
C108  F7    S    
N18   Ni6   S    
C67   H10   S    
C65   H8    S    
N18   N27   A    
C103  F2    S    
C18   C28   T    
C34   C95   S    
C72   N15   A    
C38   C100  S    
C78   H21   S    
N6    N16   A    
C91   C92   A    
C61   N4    A    
C73   N16   A    
C29   C89   S    
C72   H15   S    
N1    Ni1   S    
C36   C86   A    
C7    C21   S    
C62   N5    A    
C21   C29   T    
C9    H27   S    
C78   C84   A    
C68   C94   A    
C108  C112  A    
C64   N7    A    
C47   C87   A    
N3    Ni1   S    
C68   H11   S    
C43   H42   S    
C81   N24   A    
C8    C110  A    
C62   H5    S    
C62   C97   A    
C70   N13   A    
C39   C99   S    
C73   H16   S    
C64   H7    S    
C80   N30   A    
C4    C101  A    
C70   C93   A    
C25   C85   A    
C5    C14   A    
C27   C92   S    
C45   H36   S    
C42   C48   D    
C22   C87   S    
N28   Ni3   S    
N4    Ni2   S    
C82   C89   A    
C79   C92   A    
C76   N19   A    
N19   N23   A    
N27   Ni1   S    
C81   C90   A    
C75   C87   A    
C7    C16   A    
N23   Ni2   S    
N24   N30   A    
N5    Ni4   S    
C65   N8    A    
N30   Ni4   S    
C41   C44   D    
C13   C26   T    
C102  C110  S    
C75   N18   A    
C41   H40   S    
C31   C50   T    
C30   C88   S    
C59   N2    A    
C33   C96   S    
C76   C86   A    
C82   H25   S    
C63   N6    A    
C66   C96   A    
C106  C110  A    
C76   H19   S    
N22   Ni8   S    
C91   N31   A    
C26   C84   S    
C42   H43   S    
N7    N15   A    
C107  C111  A    
C57   N32   A    
C65   C100  A    
C67   N10   A    
C58   C88   A    
C12   C107  A    
C33   C52   T    
C58   N28   A    
C5    C19   S    
C47   H34   S    
C13   C112  S    
C31   C94   S    
C6    C20   S    
C71   C100  A    
C68   N11   A    
N2    N11   A    
N5    N17   A    
C66   H9    S    
C83   N26   A    
N13   Ni6   S    
C37   C53   T    
C40   H41   S    
C106  F5    S    
C10   H30   S    
C83   H26   S    
C25   H12   S    
C43   C51   S    
C48   H38   S    
C3    C109  A    
N25   N29   A    
C46   H39   S    
N10   Ni6   S    
C1    N1    A    
N6    Ni3   S    
N24   Ni7   S    
N9    Ni5   S    
C3    C17   S    
C80   C90   A    
C8    C103  A    
C1    H1    S    
C32   C49   T    
C63   H6    S    
C3    C11   A    
C16   C108  A    
C45   C53   S    
C12   H32   S    
C23   C102  T    
C60   C95   A    
C44   C54   S    
C14   C106  A    
C38   C56   T    
C40   C45   D    
C9    C101  A    
C75   H18   S    
C46   C56   S    
C16   H33   S    
C77   N20   A    
C10   C105  A    
C28   C90   S    
N13   N32   A    
N32   Ni2   S    
C109  F8    S    
C42   C52   S    
C79   N22   A    
C72   C99   A    
