data_mof_unit_8069.cif
_audit_creation_date              2012-12-10T19:45:43-0500
_audit_creation_method            fapswitch 2.2
_symmetry_space_group_name_H-M    P1
_symmetry_Int_Tables_number       1
_space_group_crystal_system       triclinic
_cell_length_a                    10.791796
_cell_length_b                    14.716134
_cell_length_c                    14.715976
_cell_angle_alpha                 64.845312
_cell_angle_beta                  104.066753
_cell_angle_gamma                 103.061241
_cell_volume                      2031.88918423

loop_
_atom_site_label
_atom_site_type_symbol
_atom_type_description
_atom_site_fract_x
_atom_site_fract_y
_atom_site_fract_z
_atom_type_partial_charge
C1    C     C_R   0.478552 0.119417 0.312292 0.797809
C2    C     C_R   0.668893 0.776650 0.963756 -0.194873
C3    C     C_R   0.361036 0.155902 0.136306 -0.226176
C4    C     C_R   0.638945 0.844096 0.863700 -0.226169
C5    C     C_R   0.526624 0.284399 0.170698 -0.077377
C6    C     C_R   0.473355 0.715603 0.829301 -0.077367
C7    C     C_R   0.479050 0.359132 0.076427 0.041063
C8    C     C_R   0.520916 0.640869 0.923576 0.041064
C9    C     C_R   0.388206 0.325555 0.005144 0.092219
C10   C     C_R   0.611755 0.674445 0.994862 0.092219
C11   C     C_R   0.517717 0.465366 0.050597 0.043234
C12   C     C_R   0.521445 0.880583 0.687708 0.797772
C13   C     C_R   0.482244 0.534635 0.949407 0.043235
C14   C     C_R   0.414637 0.495383 0.875986 -0.235557
C15   C     C_R   0.585318 0.504617 0.124020 -0.235548
C16   C     C_R   0.262732 0.999105 0.501685 0.797334
C17   C     C_R   0.737267 0.000893 0.498317 0.797370
C18   C     C_R   0.359502 0.394380 0.903950 -0.035012
C19   C     C_R   0.640449 0.605621 0.096058 -0.035010
C20   C     C_R   0.713681 0.283167 0.670876 -0.311182
C21   C     C_R   0.286324 0.716835 0.329120 -0.311179
C22   C     C_R   0.680369 0.202125 0.640465 0.092869
C23   C     C_R   0.870977 0.001923 0.496446 -0.070478
C24   C     C_R   0.319630 0.797874 0.359536 0.092881
C25   C     C_R   0.518543 0.285686 0.508260 0.028280
C26   C     C_R   0.481465 0.714317 0.491734 0.028227
C27   C     C_R   0.548127 0.371266 0.535075 -0.032219
C28   C     C_R   0.451888 0.628741 0.464914 -0.032223
C29   C     C_R   0.647793 0.367689 0.618849 0.156919
C30   C     C_R   0.352220 0.632317 0.381141 0.156908
C31   C     C_R   0.482392 0.458912 0.483153 0.074766
C32   C     C_R   0.517627 0.541097 0.516833 0.074787
C33   C     C_R   0.617091 0.532728 0.601290 -0.231822
C34   C     C_R   0.129019 0.998068 0.503559 -0.070477
C35   C     C_R   0.382931 0.467282 0.398694 -0.231830
C36   C     C_R   0.680704 0.447961 0.650766 -0.183376
C37   C     C_R   0.319315 0.552049 0.349220 -0.183377
C38   C     C_R   0.357505 0.017929 0.796338 -0.121201
C39   C     C_R   0.642563 0.982321 0.203555 -0.121212
C40   C     C_R   0.258374 0.988678 0.728814 -0.125519
C41   C     C_R   0.741711 0.011481 0.271131 -0.125664
C42   C     C_R   0.191759 0.061868 0.645748 0.111708
C43   C     C_R   0.808233 0.938220 0.354189 0.111685
C44   C     C_R   0.224979 0.164379 0.631462 -0.123173
C45   C     C_R   0.905131 0.967831 0.430785 -0.001063
C46   C     C_R   0.774902 0.835729 0.368413 -0.123059
C47   C     C_R   0.325151 0.193353 0.698567 -0.102608
C48   C     C_R   0.674711 0.806846 0.301257 -0.102608
C49   C     C_R   0.391174 0.120251 0.781007 -0.114561
C50   C     C_R   0.608781 0.880019 0.218827 -0.114561
C51   C     C_R   0.965643 0.034716 0.564161 -0.225295
C52   C     C_R   0.034351 0.965272 0.435844 -0.225256
C53   C     C_1   0.273973 0.364000 0.826303 0.219206
C54   C     C_1   0.725959 0.636003 0.173712 0.219212
C55   C     C_1   0.343499 0.700130 0.775602 0.216653
C56   C     C_R   0.094863 0.032173 0.569209 -0.001069
C57   C     C_1   0.656484 0.299878 0.224388 0.216648
C58   C     C_R   0.457562 0.186461 0.204266 -0.096569
C59   C     C_R   0.542425 0.813539 0.795735 -0.096564
C60   C     C_R   0.331076 0.223348 0.036252 -0.194888
Cu1   Cu    Cu3+1 0.466270 0.918260 0.475690 0.954829
Cu2   Cu    Cu3+1 0.533730 0.081740 0.524310 0.954820
H1    H     H_    0.468985 0.143001 0.832543 0.124453
H2    H     H_    0.730287 0.136415 0.681168 0.116196
H3    H     H_    0.790069 0.279526 0.735135 0.145457
H4    H     H_    0.209935 0.720477 0.264862 0.145452
H5    H     H_    0.648363 0.590609 0.631624 0.136049
H6    H     H_    0.351664 0.409404 0.368357 0.136048
H7    H     H_    0.409313 0.961419 0.859754 0.130471
H8    H     H_    0.590830 0.038887 0.140145 0.130499
H9    H     H_    0.235009 0.909457 0.740069 0.120971
H10   H     H_    0.765161 0.090687 0.259919 0.121038
H11   H     H_    0.176142 0.221904 0.566778 0.135699
H12   H     H_    0.530954 0.857343 0.167250 0.124426
H13   H     H_    0.823662 0.778149 0.433089 0.135679
H14   H     H_    0.352981 0.272669 0.685775 0.153408
H15   H     H_    0.646794 0.727546 0.314001 0.153375
H16   H     H_    0.938620 0.059429 0.615517 0.151329
H17   H     H_    0.061376 0.940565 0.384485 0.151323
H18   H     H_    0.691092 0.920306 0.839472 0.151923
H19   H     H_    0.308895 0.079690 0.160535 0.151930
H20   H     H_    0.403355 0.542410 0.795606 0.164250
H21   H     H_    0.596597 0.457587 0.204400 0.164248
H22   H     H_    0.259473 0.195819 0.984676 0.151807
H23   H     H_    0.740493 0.804177 0.015334 0.151802
H24   H     H_    0.756559 0.445126 0.715210 0.149531
H25   H     H_    0.243461 0.554883 0.284776 0.149529
H26   H     H_    0.557517 0.719399 0.552721 0.123342
H27   H     H_    0.442491 0.280606 0.447273 0.123337
H28   H     H_    0.269706 0.863582 0.318836 0.116193
N1    N     N_R   0.584450 0.204570 0.560790 -0.172647
N2    N     N_R   0.415550 0.795430 0.439210 -0.172648
N3    N     N_1   0.204749 0.340139 0.764203 -0.301953
N4    N     N_1   0.795165 0.659865 0.235818 -0.301940
N5    N     N_1   0.239935 0.688391 0.732685 -0.278050
N6    N     N_1   0.760052 0.311622 0.267296 -0.278073
O1    O     O_R   0.455540 0.022090 0.338120 -0.587420
O2    O     O_R   0.544460 0.977910 0.661880 -0.587443
O3    O     O_R   0.512510 0.160150 0.379180 -0.576383
O4    O     O_R   0.487490 0.839850 0.620820 -0.576374
O5    O     O_R   0.291160 0.930970 0.479480 -0.581730
O6    O     O_R   0.708840 0.069030 0.520520 -0.581735
O7    O     O_R   0.348130 0.069020 0.520540 -0.575480
O8    O     O_R   0.651870 0.930980 0.479460 -0.575483

loop_
_geom_bond_atom_site_label_1
_geom_bond_atom_site_label_2
_ccdc_geom_bond_type
C15   C19   A    
C34   C56   A    
C8    C13   A    
C23   C45   A    
C40   H9    S    
C21   H4    S    
C27   C29   A    
C11   C13   A    
C14   C18   A    
C2    C4    A    
C6    C55   S    
C1    O3    A    
C39   C41   A    
C38   C49   A    
C26   C28   A    
C7    C11   A    
C29   C36   A    
C17   C23   S    
C5    C58   A    
C49   H1    S    
C35   C37   A    
C17   O8    A    
C47   H14   S    
C4    H18   S    
C50   H12   S    
C26   N2    A    
C33   C36   A    
C2    H23   S    
C51   C56   A    
C18   C53   S    
C16   C34   S    
Cu2   O2    S    
C12   C59   S    
C11   C15   A    
C57   N6    T    
C3    H19   S    
C22   N1    A    
C52   H17   S    
C12   O2    A    
C44   C47   A    
C42   C56   S    
C3    C60   A    
C40   C42   A    
C38   H7    S    
C13   C14   A    
C41   C43   A    
Cu1   Cu2   S    
C42   C44   A    
C24   N2    A    
C46   H13   S    
C20   C29   A    
C46   C48   A    
C25   N1    A    
C12   O4    A    
C27   C31   A    
C20   H3    S    
C28   C32   A    
Cu1   O8    S    
C55   N5    T    
C1    O1    A    
C5    C7    A    
C6    C8    A    
C45   C52   A    
C36   H24   S    
C53   N3    T    
C30   C37   A    
C48   H15   S    
Cu1   O5    S    
C17   O6    A    
C9    C18   A    
C16   O7    A    
C23   C51   A    
C31   C32   A    
C10   C19   A    
Cu2   N1    S    
C43   C45   S    
C41   H10   S    
C19   C54   S    
C8    C10   A    
C20   C22   A    
C31   C35   A    
Cu1   O4    S    
C25   C27   A    
C14   H20   S    
C2    C10   A    
C33   H5    S    
Cu2   O7    S    
C7    C9    A    
C25   H27   S    
C6    C59   A    
C37   H25   S    
Cu1   O1    S    
C24   H28   S    
C15   H21   S    
Cu1   N2    S    
C47   C49   A    
C21   C30   A    
C34   C52   A    
C5    C57   S    
C9    C60   A    
C32   C33   A    
C28   C30   A    
C51   H16   S    
C1    C58   S    
C38   C40   A    
C60   H22   S    
C35   H6    S    
C4    C59   A    
C48   C50   A    
C39   H8    S    
C44   H11   S    
C43   C46   A    
C54   N4    T    
C22   H2    S    
Cu2   O3    S    
C3    C58   A    
C16   O5    A    
C39   C50   A    
C26   H26   S    
C21   C24   A    
Cu2   O6    S    
