data_mof_unit_22681.cif
_audit_creation_date              2012-12-10T17:48:55-0500
_audit_creation_method            fapswitch 2.2
_symmetry_space_group_name_H-M    P1
_symmetry_Int_Tables_number       1
_space_group_crystal_system       triclinic
_cell_length_a                    10.736375
_cell_length_b                    14.717574
_cell_length_c                    14.856708
_cell_angle_alpha                 64.497918
_cell_angle_beta                  104.858873
_cell_angle_gamma                 102.996406
_cell_volume                      2030.27185084

loop_
_atom_site_label
_atom_site_type_symbol
_atom_type_description
_atom_site_fract_x
_atom_site_fract_y
_atom_site_fract_z
_atom_type_partial_charge
C1    C     C_R   0.481594 0.119795 0.312438 0.859650
C2    C     C_R   0.526470 0.359798 0.080670 0.033656
C3    C     C_R   0.514139 0.320025 0.006494 0.071094
C4    C     C_R   0.259953 0.999463 0.500914 0.840715
C5    C     C_R   0.554567 0.466372 0.054514 0.088203
C6    C     C_R   0.550926 0.532988 0.951076 0.075878
C7    C     C_R   0.540410 0.491275 0.879241 -0.221860
C8    C     C_R   0.524390 0.387078 0.906870 -0.155357
C9    C     C_R   0.588874 0.508410 0.128632 -0.182299
C10   C     C_R   0.608278 0.612647 0.101326 -0.196237
C11   C     C_R   0.590933 0.678510 0.999553 0.147462
C12   C     C_3   0.877850 0.000364 0.500672 0.096450
C13   C     C_R   0.560222 0.639312 0.923311 0.087889
C14   C     C_R   0.603103 0.783404 0.973120 -0.157887
C15   C     C_R   0.581652 0.849925 0.871569 -0.169863
C16   C     C_R   0.523754 0.880093 0.687681 0.798944
C17   C     C_R   0.534836 0.707591 0.821724 -0.222051
C18   C     C_R   0.734820 0.287755 0.660589 -0.282808
C19   C     C_R   0.693574 0.205380 0.632152 0.020918
C20   C     C_R   0.510485 0.282624 0.518773 0.483103
C21   C     C_R   0.540711 0.363367 0.553763 -0.072507
C22   C     C_R   0.660342 0.368095 0.619981 0.111153
C23   C     C_3   0.928120 0.904685 0.589975 -0.386640
C24   C     C_R   0.461540 0.442417 0.521456 0.099506
C25   C     C_R   0.514142 0.534597 0.535895 0.071875
C26   C     C_R   0.637229 0.537689 0.598306 -0.223082
C27   C     C_R   0.706086 0.454125 0.642889 -0.148223
C28   C     C_R   0.739879 0.000237 0.499890 0.755041
C29   C     C_R   0.328577 0.429816 0.481521 -0.151171
C30   C     C_R   0.260102 0.512276 0.429879 -0.131740
C31   C     C_R   0.319160 0.609533 0.423485 0.065486
C32   C     C_R   0.441062 0.619729 0.486159 -0.028599
C33   C     C_R   0.256781 0.695967 0.358368 -0.148448
C34   C     C_3   0.962934 0.096017 0.513353 -0.388929
C35   C     C_R   0.310750 0.790149 0.364479 0.133482
C36   C     C_R   0.482360 0.714323 0.496113 0.006791
C37   C     C_3   0.034746 0.996708 0.401314 -0.301164
C38   C     C_3   0.891980 0.000355 0.399547 -0.394177
C39   C     C_3   0.073534 0.904773 0.593429 0.222776
C40   C     C_3   0.104906 0.096329 0.511256 -0.435846
C41   C     C_3   0.121540 0.998562 0.501883 0.026835
C42   C     C_2   0.264215 0.883318 0.281724 0.903519
C43   C     C_2   0.137700 0.689807 0.281954 0.850801
C44   C     C_R   0.486020 0.187112 0.205839 -0.130558
C45   C     C_R   0.546085 0.812075 0.795414 -0.059760
C46   C     C_R   0.491968 0.213814 0.034031 0.374939
C47   C     C_R   0.480054 0.148394 0.133592 -0.228023
C48   C     C_R   0.506533 0.291858 0.178393 -0.224216
Cl1   Cl    Cl    0.480177 0.158703 0.947119 -0.640600
Cl2   Cl    Cl    0.393441 0.290705 0.408614 -0.673472
Cl3   Cl    Cl    0.096716 0.785179 0.598735 -0.613675
Cu1   Cu    Cu3+1 0.465900 0.918260 0.475680 0.999475
Cu2   Cu    Cu3+1 0.534100 0.081740 0.524320 0.985525
H1    H     H_    0.040177 0.926065 0.393493 0.259775
H2    H     H_    0.504108 0.319074 0.234406 0.207139
H3    H     H_    0.069116 0.062242 0.335303 0.183408
H4    H     H_    0.548963 0.537439 0.801197 0.143213
H5    H     H_    0.605926 0.462660 0.208943 0.160959
H6    H     H_    0.628254 0.813885 0.031092 0.156090
H7    H     H_    0.798871 0.458657 0.692426 0.161731
H8    H     H_    0.566912 0.724394 0.550241 0.125932
H9    H     H_    0.159656 0.498633 0.395697 0.167695
H10   H     H_    0.824967 0.288786 0.713860 0.159395
H11   H     H_    0.750468 0.142891 0.665209 0.140684
H12   H     H_    0.957063 0.097211 0.586597 0.180639
H13   H     H_    0.858343 0.069799 0.334964 0.168523
H14   H     H_    0.682028 0.603428 0.614865 0.142057
H15   H     H_    0.275257 0.355802 0.490586 0.181674
H16   H     H_    0.830460 0.933602 0.386953 0.198795
H17   H     H_    0.868477 0.835434 0.581589 0.206742
H18   H     H_    0.167101 0.101776 0.581807 0.192123
H19   H     H_    0.135632 0.164825 0.445947 0.231983
H20   H     H_    0.927208 0.166204 0.451350 0.190266
H21   H     H_    0.241238 0.970777 0.131861 0.344255
H22   H     H_    0.956815 0.727283 0.216773 0.335188
H23   H     H_    0.130892 0.910686 0.665068 0.115344
H24   H     H_    0.915959 0.902984 0.662910 0.133717
H25   H     H_    0.517983 0.359856 0.848564 0.201679
H26   H     H_    0.502248 0.680681 0.761613 0.160498
H27   H     H_    0.591630 0.930632 0.852798 0.177773
H28   H     H_    0.634451 0.641763 0.160389 0.156911
H29   H     H_    0.467626 0.067255 0.154573 0.209755
N1    N     N_R   0.585360 0.204570 0.560800 -0.197486
N2    N     N_R   0.414550 0.795430 0.439160 -0.220493
O1    O     O_R   0.455060 0.022100 0.338110 -0.585708
O2    O     O_R   0.280932 0.907667 0.183298 -0.765211
O3    O     O_2   0.133667 0.645948 0.227376 -0.566162
O4    O     O_R   0.031415 0.736023 0.271458 -0.745762
O5    O     O_R   0.512640 0.160150 0.379180 -0.532262
O6    O     O_R   0.288900 0.930980 0.479450 -0.503497
O7    O     O_R   0.346480 0.069030 0.520520 -0.559139
O8    O     O_R   0.487360 0.839850 0.620820 -0.576589
O9    O     O_R   0.544940 0.977900 0.661890 -0.592206
O10   O     O_R   0.653520 0.930970 0.479480 -0.600882
O11   O     O_R   0.711100 0.069020 0.520550 -0.600265
O12   O     O_2   0.205104 0.935242 0.297208 -0.590258

loop_
_geom_bond_atom_site_label_1
_geom_bond_atom_site_label_2
_ccdc_geom_bond_type
C48   H2    S    
C39   Cl3   S    
C40   H18   S    
Cu2   O11   S    
Cu1   O6    S    
C7    C8    A    
C39   C41   S    
C14   H6    S    
C46   Cl1   S    
C26   C27   A    
C29   C30   A    
C12   C28   S    
C28   O11   A    
C34   C40   S    
C26   H14   S    
C32   C36   A    
Cu1   O1    S    
C17   C45   A    
C18   C19   A    
C27   H7    S    
C37   C41   S    
C30   C31   A    
C11   C14   A    
C18   H10   S    
C4    C41   S    
C17   H26   S    
C28   O10   A    
C9    H5    S    
C47   H29   S    
Cu1   N2    S    
C35   C42   S    
C24   C29   A    
C20   Cl2   S    
C37   H3    S    
C31   C32   A    
Cu2   O7    S    
C31   C33   A    
Cu1   O10   S    
C42   O2    S    
C9    C10   A    
C44   C47   A    
C4    O7    A    
C25   C32   A    
C38   H16   S    
C21   C22   A    
C8    H25   S    
C23   H17   S    
C19   N1    A    
C34   H12   S    
C4    O6    A    
C1    O1    A    
Cu2   O9    S    
C33   C43   S    
C38   H13   S    
C24   C25   A    
C3    C8    A    
C2    C48   A    
C25   C26   A    
C23   H24   S    
C5    C9    A    
C37   C38   S    
C29   H15   S    
C1    C44   S    
C15   H27   S    
C12   C23   S    
C19   H11   S    
C16   O9    A    
C39   H23   S    
H21   O2    S    
C37   H1    S    
C40   C41   S    
C16   O8    A    
C22   C27   A    
C30   H9    S    
Cu2   O5    S    
C42   O12   D    
C21   C24   A    
Cu1   O8    S    
C2    C5    A    
C43   O4    S    
C12   C34   S    
C36   H8    S    
Cu1   Cu2   S    
C46   C47   A    
C1    O5    A    
C40   H19   S    
C18   C22   A    
C16   C45   S    
C35   N2    A    
C6    C7    A    
C10   H28   S    
C13   C17   A    
Cu2   N1    S    
C43   O3    D    
C2    C3    A    
C6    C13   A    
C11   C13   A    
C5    C6    A    
C36   N2    A    
C23   C39   S    
C33   C35   A    
C3    C46   A    
C12   C38   S    
C10   C11   A    
C34   H20   S    
H22   O4    S    
C20   C21   A    
C20   N1    A    
C15   C45   A    
C14   C15   A    
C7    H4    S    
C44   C48   A    
