data_mof_unit_41508.cif
_audit_creation_date              2012-12-11T15:46:39-0500
_audit_creation_method            fapswitch 2.2
_symmetry_space_group_name_H-M    P1
_symmetry_Int_Tables_number       1
_space_group_crystal_system       triclinic
_cell_length_a                    11.578928
_cell_length_b                    11.719626
_cell_length_c                    19.469191
_cell_angle_alpha                 91.170365
_cell_angle_beta                  89.724864
_cell_angle_gamma                 60.633031
_cell_volume                      2301.66607185

loop_
_atom_site_label
_atom_site_type_symbol
_atom_type_description
_atom_site_fract_x
_atom_site_fract_y
_atom_site_fract_z
_atom_type_partial_charge
C1    C     C_R   0.640136 0.116970 0.598968 0.528031
C2    C     C_1   0.652457 0.150106 0.668410 0.004937
C3    C     C_R   0.704524 0.564038 0.206573 -0.113918
C4    C     C_R   0.611643 0.747085 0.598543 0.531680
C5    C     C_R   0.589428 0.586569 0.240705 0.039098
C6    C     C_R   0.570425 0.620071 0.309542 -0.001177
C7    C     C_R   0.793619 0.584105 0.316731 0.272133
C8    C     C_R   0.810816 0.553282 0.245734 -0.130712
C9    C     C_3   0.450140 0.682696 0.222701 0.271524
C10   C     C_3   0.424631 0.711015 0.298840 0.517183
C11   C     C_R   0.664587 0.640434 0.345380 -0.063614
C12   C     C_1   0.640185 0.704893 0.667794 0.004488
C13   C     C_R   0.125919 0.212764 0.194883 -0.037668
C14   C     C_R   0.122733 0.311616 0.236077 -0.086724
C15   C     C_R   0.158039 0.286555 0.304098 0.015368
C16   C     C_R   0.241097 0.145319 0.597813 0.531716
C17   C     C_R   0.162460 0.079842 0.294083 -0.113709
C18   C     C_R   0.164718 0.090004 0.222168 0.291546
C19   C     C_3   0.207900 0.373302 0.224387 0.496419
C20   C     C_3   0.256380 0.334854 0.297017 0.566781
C21   C     C_R   0.175581 0.172213 0.335479 -0.102839
C22   C     C_R   0.670971 0.182382 0.194385 -0.066215
C23   C     C_1   0.127198 0.198701 0.859554 0.006463
C24   C     C_R   0.740989 0.055282 0.220642 -0.036498
C25   C     C_R   0.740835 0.036621 0.290448 -0.051166
C26   C     C_R   0.611978 0.268371 0.312774 0.348116
C27   C     C_R   0.592068 0.285216 0.241858 0.258129
C28   C     C_R   0.647658 0.110372 0.403641 0.561408
C29   C     C_3   0.883188 0.944777 0.214406 0.463379
C30   C     C_3   0.882772 0.935863 0.291770 0.232016
C31   C     C_R   0.677902 0.140983 0.336861 -0.056582
C32   C     C_R   0.081684 0.231499 0.928948 0.541572
C33   C     C_R   0.684819 0.603380 0.929585 0.550449
C34   C     C_1   0.170892 0.171018 0.727550 -0.032049
C35   C     C_R   0.709367 0.206638 0.930394 0.545066
C36   C     C_R   0.073657 0.243020 0.126958 0.554197
C37   C     C_R   0.710627 0.546790 0.132177 0.562538
C38   C     C_R   0.707888 0.211271 0.127055 0.546083
C39   C     C_R   0.619189 0.732136 0.404652 0.549578
C40   C     C_R   0.242895 0.140628 0.401815 0.550622
C41   C     C_1   0.671985 0.645215 0.860236 0.004217
C42   C     C_1   0.654456 0.684004 0.728263 -0.031525
C43   C     C_1   0.664417 0.665950 0.799709 -0.031062
C44   C     C_3   0.922937 0.486096 0.408957 -0.099799
C45   C     C_1   0.150356 0.182376 0.798955 -0.031234
C46   C     C_3   0.656815 0.373175 0.400155 -0.128896
C47   C     C_3   0.022246 0.752062 0.348993 -0.008086
C48   C     C_3   0.254248 0.714988 0.173684 -0.016037
C49   C     C_3   0.319772 0.683798 0.396049 -0.043221
C50   C     C_3   0.320481 0.971102 0.137695 -0.127431
C51   C     C_1   0.194520 0.161832 0.667023 0.004607
C52   C     C_1   0.680094 0.189840 0.861080 0.007463
C53   C     C_1   0.658576 0.167208 0.729020 -0.031683
C54   C     C_1   0.666646 0.179804 0.800511 -0.030867
Cr1   Cr    Cr6+3 0.404720 0.198220 0.499960 1.070671
Cr2   Cr    Cr6+3 0.698290 0.897110 0.500380 1.045126
Cr3   Cr    Cr6+3 0.396970 0.904720 0.499610 1.003639
Cr4   Cr    Cr6+3 0.926290 0.152010 0.028150 1.044868
Cr5   Cr    Cr6+3 0.921440 0.451830 0.027490 1.040206
Cr6   Cr    Cr6+3 0.626370 0.446880 0.028730 1.052963
H1    H     H_    0.940323 0.977612 0.317993 0.078614
H2    H     H_    0.290779 0.470845 0.329402 0.404069
H3    H     H_    0.746918 0.353274 0.369844 0.081936
H4    H     H_    0.683496 0.301317 0.441503 0.105162
H5    H     H_    0.620501 0.469057 0.426765 0.122151
H6    H     H_    0.463100 0.386947 0.175080 0.390446
H7    H     H_    0.014919 0.937096 0.149222 0.373952
H8    H     H_    0.822338 0.818783 0.190925 0.340948
H9    H     H_    0.031781 0.815507 0.389388 0.048101
H10   H     H_    0.103619 0.716793 0.310174 0.197778
H11   H     H_    0.031676 0.666987 0.376543 0.220685
H12   H     H_    0.903351 0.528520 0.220714 0.189828
H13   H     H_    0.200479 0.783658 0.217288 0.202014
H14   H     H_    0.199524 0.662492 0.160784 0.186966
H15   H     H_    0.255075 0.765825 0.126563 0.125508
H16   H     H_    0.445678 0.867482 0.294812 0.283206
H17   H     H_    0.254480 0.645116 0.412709 0.085672
H18   H     H_    0.270252 0.789375 0.411237 0.155534
H19   H     H_    0.412276 0.625428 0.424006 0.161133
H20   H     H_    0.400463 0.969974 0.169704 0.080706
H21   H     H_    0.289639 0.049283 0.099844 0.129509
H22   H     H_    0.362593 0.880638 0.105142 0.137912
H23   H     H_    0.451663 0.759912 0.192976 0.081194
H24   H     H_    0.097653 0.523749 0.169995 0.352595
H25   H     H_    0.165525 0.995023 0.316390 0.195889
H26   H     H_    0.930232 0.392000 0.391050 0.087192
H27   H     H_    0.845796 0.532255 0.450013 0.101845
H28   H     H_    0.018914 0.462839 0.432339 0.174678
H29   H     H_    0.347042 0.217185 0.173999 0.287721
H30   H     H_    0.399736 0.151845 0.281418 0.271363
O1    O     O_R   0.267750 0.231960 0.575440 -0.513766
O2    O     O_R   0.596230 0.579400 0.952760 -0.506274
O3    O     O_R   0.639160 0.321170 0.958690 -0.493912
O4    O     O_R   0.527290 0.186640 0.570530 -0.502423
O5    O     O_R   0.821370 0.124220 0.104400 -0.472670
O6    O     O_R   0.037020 0.167050 0.097880 -0.459965
O7    O     O_R   0.056310 0.349620 0.102920 -0.522910
O8    O     O_R   0.797790 0.564880 0.097980 -0.504633
O9    O     O_R   0.596000 0.584270 0.104310 -0.491661
O10   O     O_R   0.638950 0.325690 0.099180 -0.507045
O11   O     O_3   0.824700 0.350240 0.028120 -0.300519
O12   O     O_R   0.685950 0.784660 0.430010 -0.444739
O13   O     O_R   0.728110 0.003450 0.576380 -0.514993
O14   O     O_R   0.682980 0.789190 0.570500 -0.503193
O15   O     O_R   0.499300 0.771880 0.575540 -0.521110
O16   O     O_R   0.285350 0.030870 0.569740 -0.503368
O17   O     O_R   0.270960 0.227070 0.423890 -0.458144
O18   O     O_R   0.530270 0.182120 0.430040 -0.426521
O19   O     O_R   0.731320 0.998570 0.424830 -0.504643
O20   O     O_3   0.899815 0.571506 0.354121 -0.515155
O21   O     O_3   0.304304 0.313749 0.171341 -0.695958
O22   O     O_3   0.389232 0.234967 0.301562 -0.663184
O23   O     O_R   0.502510 0.767000 0.423980 -0.518811
O24   O     O_3   0.227140 0.440818 0.341740 -0.641194
O25   O     O_3   0.556120 0.376134 0.357665 -0.502445
O26   O     O_3   0.488518 0.399564 0.221777 -0.568486
O27   O     O_3   0.974969 0.982957 0.193636 -0.678009
O28   O     O_3   0.898142 0.832080 0.178492 -0.683997
O29   O     O_3   0.899391 0.816251 0.316129 -0.507101
O30   O     O_3   0.383771 0.622733 0.191064 -0.492959
O31   O     O_3   0.381909 0.842947 0.314766 -0.709549
O32   O     O_3   0.340290 0.664774 0.324360 -0.520152
O33   O     O_3   0.214814 0.979464 0.179504 -0.563307
O34   O     O_R   0.288320 0.026340 0.429250 -0.484357
O35   O     O_3   0.132503 0.509262 0.217332 -0.639662
O36   O     O_3   0.499990 0.000020 0.499980 -0.267834
O37   O     O_R   0.821590 0.119350 0.952850 -0.503625
O38   O     O_R   0.037230 0.162540 0.957390 -0.499339
O39   O     O_R   0.056530 0.344750 0.951370 -0.499841
O40   O     O_R   0.798000 0.560370 0.957490 -0.488418

loop_
_geom_bond_atom_site_label_1
_geom_bond_atom_site_label_2
_ccdc_geom_bond_type
C33   O40   A    
C25   C31   A    
Cr3   O15   S    
Cr5   O40   S    
Cr4   O38   S    
C23   C45   T    
C19   C20   S    
C16   C51   S    
H30   O22   S    
C10   O31   S    
C7    C8    A    
C48   O30   S    
C53   C54   S    
C7    C11   A    
C21   C40   S    
C26   C27   A    
H6    O26   S    
C46   O25   S    
C17   H25   S    
H16   O31   S    
H2    O24   S    
C5    C6    A    
C30   O29   S    
C22   C38   S    
C25   C30   S    
C49   H18   S    
C1    C2    S    
Cr4   O6    S    
C26   O25   S    
C32   O39   A    
Cr1   O1    S    
H8    O28   S    
C20   O22   S    
C47   H9    S    
C1    O4    A    
C39   O23   A    
C38   O5    A    
C12   C42   T    
C36   O7    A    
Cr2   O36   S    
C4    C12   S    
C44   H27   S    
C9    C10   S    
C1    O13   A    
C16   O16   A    
C18   O33   S    
Cr6   O3    S    
Cr6   O9    S    
C35   O3    A    
Cr3   O16   S    
Cr4   O37   S    
C13   C14   A    
C41   C43   T    
C48   H15   S    
Cr1   O4    S    
C44   H26   S    
C14   C19   S    
C37   O8    A    
C52   C54   T    
Cr6   O2    S    
C15   C20   S    
C40   O34   A    
C8    H12   S    
Cr5   O11   S    
C48   H14   S    
C24   C25   A    
Cr2   O14   S    
C13   C36   S    
C38   O10   A    
C3    C8    A    
C33   O2    A    
C6    C11   A    
Cr4   O11   S    
Cr3   O23   S    
Cr6   O10   S    
C29   O27   S    
C19   O35   S    
C17   C21   A    
C49   H19   S    
Cr1   O17   S    
C11   C39   S    
Cr4   O5    S    
C47   H10   S    
C5    C9    S    
C29   C30   S    
C36   O6    A    
Cr1   O36   S    
C17   C18   A    
C34   C51   T    
C34   C45   S    
C35   O37   A    
H7    O27   S    
C47   H11   S    
C46   H5    S    
C40   O17   A    
C10   O32   S    
C13   C18   A    
C9    H23   S    
C22   C27   A    
Cr5   O7    S    
C22   C24   A    
C42   C43   S    
Cr6   O11   S    
C24   C29   S    
Cr2   O19   S    
Cr3   O36   S    
C50   H22   S    
C39   O12   A    
C29   O28   S    
H24   O35   S    
C9    O30   S    
Cr5   O39   S    
C26   C31   A    
C48   H13   S    
C28   C31   S    
C50   O33   S    
Cr2   O13   S    
C3    C5    A    
C2    C53   T    
C50   H20   S    
C6    C10   S    
C19   O21   S    
C28   O19   A    
C4    O15   A    
H29   O21   S    
C7    O20   S    
Cr1   O18   S    
C33   C41   S    
C23   C32   S    
C32   O38   A    
Cr2   O12   S    
C27   O26   S    
Cr3   O34   S    
C20   O24   S    
C37   O9    A    
C46   H3    S    
C28   O18   A    
C49   O32   S    
C4    O14   A    
C47   O29   S    
C49   H17   S    
C15   C21   A    
C3    C37   S    
C16   O1    A    
C30   H1    S    
C46   H4    S    
C35   C52   S    
Cr5   O8    S    
C14   C15   A    
C44   H28   S    
C50   H21   S    
C44   O20   S    
