data_mof_unit_57950.cif
_audit_creation_date              2012-12-10T17:08:43-0500
_audit_creation_method            fapswitch 2.2
_symmetry_space_group_name_H-M    P1
_symmetry_Int_Tables_number       1
_space_group_crystal_system       triclinic
_cell_length_a                    15.71592
_cell_length_b                    10.711788
_cell_length_c                    10.013851
_cell_angle_alpha                 89.731174
_cell_angle_beta                  90.626662
_cell_angle_gamma                 90.796859
_cell_volume                      1685.50655677

loop_
_atom_site_label
_atom_site_type_symbol
_atom_type_description
_atom_site_fract_x
_atom_site_fract_y
_atom_site_fract_z
_atom_type_partial_charge
C1    C     C_R   0.496038 0.262509 0.500146 0.955361
C2    C     C_2   0.498356 0.870562 0.494059 -0.436090
C3    C     C_2   0.480508 0.068143 0.386189 -0.326877
C4    C     C_R   0.338421 0.498289 0.499456 0.881142
C5    C     C_2   0.478865 0.131754 0.500284 -0.393226
C6    C     C_2   0.564031 0.538807 0.926507 -0.233391
C7    C     C_2   0.555547 0.562939 0.075808 0.615216
C8    C     C_R   0.498140 0.737692 0.498963 0.957869
C9    C     C_R   0.661657 0.502034 0.500510 0.896932
C10   C     C_3   0.047498 0.434043 0.623204 0.159612
C11   C     C_3   0.046693 0.452029 0.352806 0.789365
C12   C     C_3   0.948689 0.441974 0.622948 0.245612
C13   C     C_3   0.948178 0.435649 0.368133 0.282051
C14   C     C_1   0.750445 0.508256 0.500920 -0.177717
C15   C     C_3   0.083383 0.501500 0.494296 -0.104464
C16   C     C_3   0.887479 0.292530 0.764536 0.175117
C17   C     C_3   0.861698 0.155509 0.773961 -0.809940
C18   C     C_3   0.402387 0.941708 0.173235 0.096340
C19   C     C_3   0.357195 0.859900 0.070055 -0.855895
C20   C     C_3   0.624454 0.755001 0.068483 0.054464
C21   C     C_3   0.666022 0.852235 0.159151 -0.780349
C22   C     C_3   0.130714 0.293018 0.747257 0.120621
C23   C     C_3   0.917221 0.510293 0.493292 -0.094104
C24   C     C_3   0.158848 0.157825 0.753409 -0.863646
C25   C     C_3   0.385685 0.377310 0.127932 0.210485
C26   C     C_3   0.340916 0.292295 0.027091 -0.976686
C27   C     C_3   0.129958 0.539553 0.173433 0.259072
C28   C     C_3   0.134957 0.653170 0.082178 -0.927267
C29   C     C_3   0.090427 0.234113 0.378665 0.092090
C30   C     C_3   0.102105 0.122355 0.288214 -0.874283
C31   C     C_3   0.876565 0.565391 0.202041 0.192948
C32   C     C_3   0.837846 0.554930 0.062527 -0.845720
C33   C     C_3   0.159988 0.796969 0.487342 0.087017
C34   C     C_3   0.956105 0.645515 0.494879 -0.583109
C35   C     C_3   0.228452 0.833083 0.387685 -0.804702
C36   C     C_3   0.054452 0.641035 0.513335 0.346130
C37   C     C_1   0.825729 0.512091 0.497988 0.053439
C38   C     C_1   0.174557 0.497043 0.496846 0.007630
C39   C     C_1   0.249781 0.496380 0.498219 -0.233117
C40   C     C_2   0.468059 0.932699 0.386513 0.510886
H1    H     H_    0.069102 0.490024 0.711900 0.025631
H2    H     H_    0.842631 0.132524 0.877763 0.205499
H3    H     H_    0.807173 0.135710 0.705422 0.251736
H4    H     H_    0.939336 0.698503 0.403611 0.222064
H5    H     H_    0.457535 0.987461 0.123233 0.143777
H6    H     H_    0.356638 0.012686 0.208199 0.146286
H7    H     H_    0.301267 0.812411 0.115150 0.257282
H8    H     H_    0.335228 0.918251 0.984794 0.210005
H9    H     H_    0.401183 0.788104 0.032536 0.243700
H10   H     H_    0.494305 0.115180 0.292519 0.185989
H11   H     H_    0.461455 0.088713 0.594715 0.157498
H12   H     H_    0.929991 0.502371 0.708744 0.034633
H13   H     H_    0.563308 0.793457 0.030010 0.141694
H14   H     H_    0.668115 0.738607 0.984000 0.129080
H15   H     H_    0.728232 0.817999 0.196956 0.239296
H16   H     H_    0.676633 0.940456 0.102696 0.203142
H17   H     H_    0.624305 0.871145 0.245240 0.266861
H18   H     H_    0.098519 0.315262 0.842535 0.138576
H19   H     H_    0.188268 0.353770 0.736475 0.144218
H20   H     H_    0.192925 0.133471 0.660709 0.241046
H21   H     H_    0.202277 0.144144 0.840319 0.218420
H22   H     H_    0.102544 0.094913 0.764296 0.257263
H23   H     H_    0.529262 0.916733 0.578138 0.119665
H24   H     H_    0.350737 0.467226 0.130088 0.122218
H25   H     H_    0.382016 0.329847 0.226108 0.189387
H26   H     H_    0.374148 0.201667 0.021423 0.264741
H27   H     H_    0.274192 0.274618 0.058306 0.218618
H28   H     H_    0.340084 0.336585 0.926659 0.260794
H29   H     H_    0.123636 0.456523 0.107517 0.163284
H30   H     H_    0.189786 0.534383 0.232927 0.146993
H31   H     H_    0.138833 0.739821 0.142108 0.291291
H32   H     H_    0.192181 0.647586 0.018495 0.201219
H33   H     H_    0.077421 0.656622 0.016884 0.247787
H34   H     H_    0.624742 0.557392 0.879556 0.149833
H35   H     H_    0.032896 0.213441 0.437506 0.210716
H36   H     H_    0.148243 0.242190 0.442733 0.205623
H37   H     H_    0.163942 0.129972 0.235826 0.247441
H38   H     H_    0.100582 0.035718 0.349006 0.231106
H39   H     H_    0.049651 0.117224 0.213082 0.274437
H40   H     H_    0.935512 0.337334 0.394803 0.148702
H41   H     H_    0.930175 0.632662 0.194944 0.188435
H42   H     H_    0.826982 0.604109 0.266824 0.145114
H43   H     H_    0.781079 0.491976 0.064022 0.271514
H44   H     H_    0.818197 0.648506 0.026496 0.201384
H45   H     H_    0.441578 0.504284 0.894146 0.197864
H46   H     H_    0.885306 0.517110 0.992515 0.235858
H47   H     H_    0.066207 0.670913 0.618999 0.030859
H48   H     H_    0.192523 0.746371 0.570505 0.124042
H49   H     H_    0.131443 0.882856 0.528282 0.142890
H50   H     H_    0.200451 0.883287 0.301166 0.244816
H51   H     H_    0.276660 0.894818 0.436660 0.219063
H52   H     H_    0.260335 0.747996 0.351454 0.269021
H53   H     H_    0.928591 0.699040 0.578773 0.163518
H54   H     H_    0.832294 0.350109 0.793570 0.131093
H55   H     H_    0.941285 0.309688 0.835686 0.141158
H56   H     H_    0.916072 0.096103 0.746250 0.255475
N1    N     N_2   0.500900 0.501330 0.852150 -0.175893
N2    N     N_2   0.500920 0.501360 0.147810 0.025445
O1    O     O_R   0.499990 0.319060 0.613040 -0.603714
O2    O     O_3   0.430572 0.866047 0.280243 -0.585408
O3    O     O_3   0.611189 0.643922 0.142251 -0.602648
O4    O     O_3   0.074328 0.308624 0.637546 -0.599044
O5    O     O_3   0.471365 0.394595 0.091228 -0.579076
O6    O     O_3   0.058147 0.550267 0.256992 -0.589387
O7    O     O_3   0.083395 0.341233 0.297941 -0.676839
O8    O     O_3   0.901650 0.444814 0.244486 -0.588975
O9    O     O_3   0.095594 0.724507 0.422719 -0.545590
O10   O     O_R   0.500010 0.319100 0.386900 -0.614125
O11   O     O_R   0.377130 0.499990 0.613120 -0.623897
O12   O     O_R   0.377160 0.500030 0.386980 -0.659018
O13   O     O_R   0.499990 0.680900 0.613100 -0.637652
O14   O     O_R   0.500010 0.680940 0.386960 -0.528620
O15   O     O_R   0.622840 0.499970 0.613020 -0.623062
O16   O     O_R   0.622870 0.500010 0.386880 -0.564248
O17   O     O_3   0.910967 0.320607 0.631864 -0.579593
Zn1   Zn    Zn3+2 0.499980 0.499970 0.650990 0.937367
Zn2   Zn    Zn3+2 0.500020 0.500030 0.349010 1.025503

loop_
_geom_bond_atom_site_label_1
_geom_bond_atom_site_label_2
_ccdc_geom_bond_type
C4    O11   A    
C16   O17   S    
C24   H21   S    
C7    N2    D    
C33   O9    S    
C34   H53   S    
C1    O1    A    
C29   H36   S    
C12   C23   S    
C31   H42   S    
C1    C5    S    
C26   H27   S    
C33   H48   S    
C10   C15   S    
C8    O14   A    
O14   Zn2   S    
C19   H7    S    
N2    O5    S    
C27   O6    S    
C13   C23   S    
C18   C19   S    
C17   H2    S    
O11   Zn1   S    
C30   H37   S    
C11   C15   S    
C16   C17   S    
C11   O7    S    
O13   Zn1   S    
C27   H29   S    
O15   Zn1   S    
C35   H52   S    
C13   H40   S    
C36   O9    S    
C29   O7    S    
C28   H32   S    
C18   O2    S    
C28   H33   S    
C18   H6    S    
O12   Zn2   S    
C12   H12   S    
C3    H10   S    
C6    H34   S    
C36   H47   S    
C32   H44   S    
C13   O8    S    
C26   H26   S    
C6    N1    D    
C10   O4    S    
C25   H25   S    
C20   H14   S    
C8    O13   A    
C22   H19   S    
C21   H15   S    
C19   H8    S    
C25   O5    S    
C20   O3    S    
C25   C26   S    
C23   C37   S    
C25   H24   S    
C9    C14   S    
C17   H3    S    
C15   C38   S    
C21   H17   S    
C29   C30   S    
C33   H49   S    
C19   H9    S    
C31   C32   S    
C4    C39   S    
C24   H20   S    
C23   C34   S    
C32   H46   S    
C34   H4    S    
C17   H56   S    
N1    Zn1   S    
C22   H18   S    
C11   O6    S    
C27   H30   S    
C10   C12   S    
C30   H39   S    
C3    C40   S    
C31   O8    S    
C22   C24   S    
C28   H31   S    
C9    O16   A    
C18   H5    S    
C15   C36   S    
O1    Zn1   S    
C2    H23   S    
N2    Zn2   S    
C32   H43   S    
C4    O12   A    
C16   H55   S    
C24   H22   S    
O10   Zn2   S    
C2    C8    S    
C20   H13   S    
C3    C5    D    
C31   H41   S    
C40   O2    S    
C21   H16   S    
C6    C7    S    
C29   H35   S    
C16   H54   S    
C22   O4    S    
C26   H28   S    
C12   O17   S    
C9    O15   A    
C14   C37   T    
C11   C13   S    
C38   C39   T    
C33   C35   S    
C34   C36   S    
O16   Zn2   S    
H45   N1    S    
C1    O10   A    
C30   H38   S    
C35   H50   S    
C2    C40   D    
C20   C21   S    
C7    O3    S    
C27   C28   S    
C5    H11   S    
C10   H1    S    
C35   H51   S    
