data_mof_unit_55446.cif
_audit_creation_date              2012-12-10T17:50:40-0500
_audit_creation_method            fapswitch 2.2
_symmetry_space_group_name_H-M    P1
_symmetry_Int_Tables_number       1
_space_group_crystal_system       triclinic
_cell_length_a                    15.701893
_cell_length_b                    10.615504
_cell_length_c                    9.934302
_cell_angle_alpha                 89.925004
_cell_angle_beta                  89.800372
_cell_angle_gamma                 91.835471
_cell_volume                      1655.0229929

loop_
_atom_site_label
_atom_site_type_symbol
_atom_type_description
_atom_site_fract_x
_atom_site_fract_y
_atom_site_fract_z
_atom_type_partial_charge
C1    C     C_R   0.501391 0.260749 0.500050 0.845350
C2    C     C_R   0.723193 0.077718 0.646268 -0.056312
C3    C     C_R   0.723770 0.944945 0.643738 0.593663
C4    C     C_R   0.337994 0.499213 0.500219 0.886363
C5    C     C_R   0.651591 0.876342 0.598694 -0.346577
C6    C     C_R   0.579265 0.938046 0.551027 0.026357
C7    C     C_R   0.579110 0.069738 0.551164 0.111947
C8    C     C_R   0.506818 0.128679 0.499719 -0.043956
C9    C     C_R   0.438089 0.061416 0.444455 -0.229707
C10   C     C_R   0.438264 0.932666 0.444328 -0.199002
C11   C     C_R   0.507185 0.872041 0.499384 -0.054632
C12   C     C_3   0.082327 0.491441 0.501946 0.201174
C13   C     C_R   0.388682 0.333793 0.140573 -0.143689
C14   C     C_R   0.333990 0.251726 0.070839 -0.194342
C15   C     C_R   0.333921 0.251862 0.931490 -0.186656
C16   C     C_R   0.502001 0.739398 0.499861 0.865900
C17   C     C_R   0.388598 0.333994 0.860971 -0.141303
C18   C     C_R   0.445179 0.418136 0.928149 0.164930
C19   C     C_R   0.445209 0.418120 0.072618 0.168953
C20   C     C_R   0.552466 0.578346 0.071011 -0.103510
C21   C     C_R   0.552458 0.578302 0.928038 -0.101861
C22   C     C_R   0.661959 0.499960 0.499848 0.878339
C23   C     C_3   0.973776 0.577437 0.412576 -0.171696
C24   C     C_3   0.971692 0.520640 0.625444 -0.163418
C25   C     C_3   0.025626 0.405517 0.590846 -0.146015
C26   C     C_1   0.248857 0.496084 0.500893 -0.184169
C27   C     C_1   0.750864 0.496485 0.499766 -0.194327
C28   C     C_3   0.030191 0.606475 0.536609 -0.179064
C29   C     C_3   0.841231 0.840501 0.581387 -0.259847
C30   C     C_2   0.796677 0.156223 0.695075 0.411680
C31   C     C_3   0.917036 0.491596 0.501351 0.199490
C32   C     C_3   0.027609 0.462344 0.377882 -0.155380
C33   C     C_3   0.969047 0.376431 0.466736 -0.153099
C34   C     C_1   0.173384 0.493365 0.501557 -0.078553
C35   C     C_1   0.826157 0.493533 0.500420 -0.090982
C36   C     C_R   0.651219 0.138682 0.599216 -0.368091
H1    H     H_    0.048984 0.335254 0.663696 0.150309
H2    H     H_    0.946523 0.544552 0.726490 0.148540
H3    H     H_    0.941697 0.282457 0.438432 0.141814
H4    H     H_    0.052658 0.438531 0.276732 0.139683
H5    H     H_    0.950327 0.647832 0.339940 0.136923
H6    H     H_    0.057282 0.700527 0.565170 0.138913
H7    H     H_    0.383711 0.108891 0.403615 0.133406
H8    H     H_    0.652603 0.240560 0.598949 0.166866
H9    H     H_    0.864773 0.921614 0.518898 0.162960
H10   H     H_    0.804376 0.771797 0.518263 0.139451
H11   H     H_    0.897694 0.792148 0.620193 0.195711
H12   H     H_    0.653655 0.774591 0.599610 0.163393
H13   H     H_    0.793759 0.258260 0.692714 0.058110
H14   H     H_    0.383987 0.879924 0.403493 0.147860
H15   H     H_    0.595364 0.642463 0.124204 0.152093
H16   H     H_    0.384642 0.328428 0.247359 0.196648
H17   H     H_    0.291270 0.187779 0.125464 0.147309
H18   H     H_    0.291122 0.188051 0.877497 0.151517
H19   H     H_    0.384555 0.328906 0.754198 0.200348
H20   H     H_    0.595340 0.642407 0.874104 0.158220
N1    N     N_R   0.499210 0.498800 0.142780 -0.122410
N2    N     N_R   0.499180 0.498720 0.857170 -0.123024
O1    O     O_R   0.500000 0.316780 0.614690 -0.637165
O2    O     O_2   0.860998 0.109164 0.738444 -0.533567
O3    O     O_R   0.499990 0.316750 0.385360 -0.630283
O4    O     O_R   0.376780 0.500000 0.614650 -0.627976
O5    O     O_R   0.376770 0.499980 0.385310 -0.632016
O6    O     O_R   0.500010 0.683250 0.614640 -0.611087
O7    O     O_R   0.500000 0.683220 0.385310 -0.613120
O8    O     O_R   0.623230 0.500020 0.614690 -0.619042
O9    O     O_R   0.623220 0.500000 0.385350 -0.604270
O10   O     O_3   0.792800 0.881280 0.691960 -0.567607
Zn1   Zn    Zn3+2 0.500010 0.500020 0.653130 0.940091
Zn2   Zn    Zn3+2 0.499990 0.499980 0.346870 0.943445

loop_
_geom_bond_atom_site_label_1
_geom_bond_atom_site_label_2
_ccdc_geom_bond_type
O3    Zn2   S    
C21   H20   S    
C4    C26   S    
C31   C33   S    
N2    Zn1   S    
C6    C7    A    
C13   C14   A    
N1    Zn2   S    
C29   O10   S    
C9    C10   A    
C17   H19   S    
C24   H2    S    
C3    O10   S    
C23   H5    S    
O5    Zn2   S    
C29   H10   S    
C2    C30   S    
O9    Zn2   S    
C25   H1    S    
C32   C33   S    
C20   C21   A    
C32   H4    S    
C17   C18   A    
C29   H9    S    
C24   C31   S    
C21   N2    A    
O6    Zn1   S    
C12   C32   S    
C4    O5    A    
C33   H3    S    
C29   H11   S    
O4    Zn1   S    
C28   H6    S    
C30   H13   S    
O1    Zn1   S    
C2    C3    A    
C20   H15   S    
C3    C5    A    
C22   C27   S    
C1    O1    A    
C5    C6    A    
C5    H12   S    
C31   C35   S    
C22   O9    A    
C9    H7    S    
O8    Zn1   S    
C36   H8    S    
C10   C11   A    
C13   C19   A    
C13   H16   S    
C12   C34   S    
O7    Zn2   S    
C1    C8    S    
C15   H18   S    
C4    O4    A    
C7    C8    A    
C14   H17   S    
C30   O2    D    
C24   C25   S    
C12   C28   S    
C18   C19   A    
C7    C36   A    
C2    C36   A    
C6    C11   A    
C15   C17   A    
C12   C25   S    
C14   C15   A    
C22   O8    A    
C16   O7    A    
C16   O6    A    
C27   C35   T    
C20   N1    A    
C23   C28   S    
C26   C34   T    
C18   N2    A    
C11   C16   S    
C19   N1    A    
C24   C28   S    
C23   C32   S    
C25   C33   S    
C8    C9    A    
C1    O3    A    
C23   C31   S    
C10   H14   S    
