data_mof_unit_43863.cif
_audit_creation_date              2012-12-11T15:17:37-0500
_audit_creation_method            fapswitch 2.2
_symmetry_space_group_name_H-M    P1
_symmetry_Int_Tables_number       1
_space_group_crystal_system       triclinic
_cell_length_a                    6.928749
_cell_length_b                    20.091643
_cell_length_c                    22.358189
_cell_angle_alpha                 89.962287
_cell_angle_beta                  90.000283
_cell_angle_gamma                 89.999691
_cell_volume                      3112.48172852

loop_
_atom_site_label
_atom_site_type_symbol
_atom_type_description
_atom_site_fract_x
_atom_site_fract_y
_atom_site_fract_z
_atom_type_partial_charge
O1    O     O_R   0.620180 0.810610 0.187990 -0.543746
O2    O     O_R   0.379820 0.189390 0.812010 -0.543746
O3    O     O_R   0.379820 0.189390 0.687990 -0.539185
O4    O     O_R   0.620180 0.810610 0.312010 -0.539185
O5    O     O_R   0.120180 0.689390 0.312010 -0.543747
O6    O     O_R   0.879820 0.310610 0.687990 -0.543747
O7    O     O_R   0.879820 0.310610 0.812010 -0.539183
O8    O     O_R   0.120180 0.689390 0.187990 -0.539183
O9    O     O_R   0.290420 0.818570 0.311590 -0.543307
O10   O     O_R   0.709580 0.181430 0.688410 -0.543307
O11   O     O_R   0.709580 0.181430 0.811590 -0.536277
O12   O     O_R   0.290420 0.818570 0.188410 -0.536277
O13   O     O_R   0.790420 0.681430 0.188410 -0.543307
O14   O     O_R   0.209580 0.318570 0.811590 -0.543307
O15   O     O_R   0.209580 0.318570 0.688410 -0.536277
O16   O     O_R   0.790420 0.681430 0.311590 -0.536277
C1    C     C_R   0.459395 0.834581 0.332341 0.712939
C2    C     C_R   0.540605 0.165419 0.667659 0.712939
C3    C     C_R   0.540601 0.165263 0.832184 0.711025
C4    C     C_R   0.459399 0.834737 0.167816 0.711025
C5    C     C_R   0.959394 0.665420 0.167658 0.712940
C6    C     C_R   0.040606 0.334580 0.832342 0.712940
C7    C     C_R   0.040600 0.334736 0.667815 0.711025
C8    C     C_R   0.959400 0.665264 0.332184 0.711025
H1    H     H_    0.757923 0.423913 0.647571 0.175402
H2    H     H_    0.242077 0.576087 0.352429 0.175402
H3    H     H_    0.702397 0.568822 0.140563 0.178127
H4    H     H_    0.297603 0.431178 0.859437 0.178127
H5    H     H_    0.257930 0.076086 0.852427 0.175402
H6    H     H_    0.742070 0.923914 0.147573 0.175402
H7    H     H_    0.202384 0.931173 0.359442 0.178125
H8    H     H_    0.797616 0.068827 0.640557 0.178125
H9    H     H_    0.567447 0.597581 0.512629 0.159181
H10   H     H_    0.432553 0.402419 0.487370 0.159181
H11   H     H_    0.591521 0.389967 0.002760 0.155679
H12   H     H_    0.408479 0.610033 0.997239 0.155679
H13   H     H_    0.067433 0.902426 0.987373 0.159181
H14   H     H_    0.932566 0.097574 0.012627 0.159181
H15   H     H_    0.091513 0.110029 0.497242 0.155678
H16   H     H_    0.908487 0.889971 0.502758 0.155678
H17   H     H_    0.300280 0.354926 0.578910 0.116983
H18   H     H_    0.699720 0.645074 0.421090 0.116983
H19   H     H_    0.241898 0.653373 0.084604 0.115932
H20   H     H_    0.758102 0.346627 0.915396 0.115932
H21   H     H_    0.800287 0.145069 0.921089 0.116984
H22   H     H_    0.199713 0.854930 0.078911 0.116984
H23   H     H_    0.741914 0.846636 0.415389 0.115937
H24   H     H_    0.258086 0.153364 0.584611 0.115937
O17   O     O_3   0.453640 0.707610 0.250000 -0.366104
O18   O     O_3   0.546360 0.292390 0.750000 -0.366104
O19   O     O_3   0.953640 0.792390 0.250000 -0.366106
O20   O     O_3   0.046360 0.207610 0.750000 -0.366106
V1    V     V_3+5 0.178800 0.757860 0.250000 1.466141
V2    V     V_3+5 0.821200 0.242140 0.750000 1.466141
V3    V     V_3+5 0.678800 0.742140 0.250000 1.466140
V4    V     V_3+5 0.321200 0.257860 0.750000 1.466140
C9    C     C_R   0.177389 0.388178 0.575802 -0.133135
C10   C     C_R   0.822611 0.611822 0.424198 -0.133135
C11   C     C_R   0.128450 0.616748 0.078838 -0.143262
C12   C     C_R   0.871550 0.383252 0.921162 -0.143262
C13   C     C_R   0.677395 0.111818 0.924197 -0.133127
C14   C     C_R   0.322605 0.888182 0.075803 -0.133127
C15   C     C_R   0.628459 0.883257 0.421158 -0.143264
C16   C     C_R   0.371541 0.116743 0.578842 -0.143263
C17   C     C_R   0.029974 0.384362 0.618748 -0.089539
C18   C     C_R   0.970026 0.615638 0.381252 -0.089539
C19   C     C_R   0.970296 0.616240 0.118188 -0.096139
C20   C     C_R   0.029704 0.383760 0.881812 -0.096139
C21   C     C_R   0.529977 0.115636 0.881251 -0.089541
C22   C     C_R   0.470023 0.884364 0.118749 -0.089541
C23   C     C_R   0.470298 0.883761 0.381811 -0.096141
C24   C     C_R   0.529702 0.116238 0.618189 -0.096140
C25   C     C_R   0.870284 0.427267 0.614117 -0.148943
C26   C     C_R   0.129716 0.572733 0.385883 -0.148943
C27   C     C_R   0.823210 0.568889 0.109933 -0.152003
C28   C     C_R   0.176790 0.431111 0.890067 -0.152003
C29   C     C_R   0.370288 0.072732 0.885881 -0.148942
C30   C     C_R   0.629712 0.927268 0.114119 -0.148942
C31   C     C_R   0.323205 0.931109 0.390069 -0.152008
C32   C     C_R   0.676794 0.068891 0.609931 -0.152008
C33   C     C_R   0.857094 0.474342 0.567472 0.047288
C34   C     C_R   0.142906 0.525658 0.432528 0.047288
C35   C     C_R   0.833782 0.521579 0.063424 0.053151
C36   C     C_R   0.166218 0.478421 0.936576 0.053151
C37   C     C_R   0.357095 0.025658 0.932527 0.047286
C38   C     C_R   0.642905 0.974341 0.067473 0.047286
C39   C     C_R   0.333780 0.978420 0.436577 0.053151
C40   C     C_R   0.666220 0.021580 0.563423 0.053151
C41   C     C_R   0.005410 0.476937 0.523895 0.029554
C42   C     C_R   0.994590 0.523063 0.476104 0.029554
C43   C     C_R   0.993220 0.523233 0.023697 0.040532
C44   C     C_R   0.006780 0.476767 0.976302 0.040532
C45   C     C_R   0.505411 0.023062 0.976104 0.029551
C46   C     C_R   0.494588 0.976938 0.023896 0.029551
C47   C     C_R   0.493221 0.976767 0.476302 0.040530
C48   C     C_R   0.506779 0.023232 0.523698 0.040530
C49   C     C_R   0.165109 0.433541 0.528133 0.090364
C50   C     C_R   0.834890 0.566458 0.471867 0.090364
C51   C     C_R   0.139779 0.571212 0.031420 0.091355
C52   C     C_R   0.860221 0.428788 0.968580 0.091355
C53   C     C_R   0.665115 0.066455 0.971866 0.090369
C54   C     C_R   0.334885 0.933545 0.028134 0.090369
C55   C     C_R   0.639784 0.928791 0.468578 0.091353
C56   C     C_R   0.360216 0.071209 0.531422 0.091353
C57   C     C_R   0.700096 0.519018 0.563135 0.257424
C58   C     C_R   0.299904 0.480982 0.436865 0.257424
C59   C     C_R   0.690076 0.472419 0.055574 0.264107
C60   C     C_R   0.309924 0.527581 0.944426 0.264107
C61   C     C_R   0.200092 0.980985 0.936865 0.257418
C62   C     C_R   0.799908 0.019015 0.063134 0.257418
C63   C     C_R   0.190073 0.027581 0.444427 0.264105
C64   C     C_R   0.809927 0.972419 0.555573 0.264105
C65   C     C_R   0.689716 0.564071 0.515463 -0.178268
C66   C     C_R   0.310284 0.435929 0.484537 -0.178268
C67   C     C_R   0.703924 0.426967 0.008356 -0.171858
C68   C     C_R   0.296076 0.573033 0.991644 -0.171858
C69   C     C_R   0.189709 0.935933 0.984539 -0.178268
C70   C     C_R   0.810291 0.064067 0.015461 -0.178268
C71   C     C_R   0.203917 0.073030 0.491646 -0.171867
C72   C     C_R   0.796082 0.926970 0.508354 -0.171867
Br1   Br    Br    0.497349 0.522598 0.621711 -0.511460
Br2   Br    Br    0.502651 0.477402 0.378289 -0.511460
Br3   Br    Br    0.472976 0.463398 0.108483 -0.511953
Br4   Br    Br    0.527024 0.536602 0.891517 -0.511953
Br5   Br    Br    0.997337 0.977406 0.878289 -0.511461
Br6   Br    Br    0.002663 0.022594 0.121711 -0.511461
Br7   Br    Br    0.972984 0.036607 0.391514 -0.511941
Br8   Br    Br    0.027016 0.963393 0.608486 -0.511941

loop_
_geom_bond_atom_site_label_1
_geom_bond_atom_site_label_2
_ccdc_geom_bond_type
O14   V4    S    
C40   C48   A    
C45   C46   A    
C14   C54   A    
C22   C30   A    
C11   C51   A    
C21   C29   A    
C55   C72   A    
C10   C50   A    
C59   Br3   S    
C60   C68   A    
C4    C22   S    
C62   C70   A    
C31   C39   A    
C61   C69   A    
O11   C3    A    
O18   V2    S    
C58   C66   A    
C53   C70   A    
C57   C65   A    
C38   C62   A    
C60   Br4   S    
C37   C61   A    
H23   C15   S    
H15   C71   S    
H24   C16   S    
C39   C63   A    
C13   C21   A    
C18   C26   A    
C17   C25   A    
C14   C22   A    
O3    C2    A    
C63   C71   A    
C25   C33   A    
H18   C10   S    
C38   C46   A    
C11   C19   A    
C37   C45   A    
C10   C18   A    
C47   C48   A    
C34   C58   A    
C47   C55   A    
C1    C23   S    
C39   C47   A    
H11   C67   S    
H1    C25   S    
O12   V1    S    
H19   C11   S    
C56   C71   A    
C33   C41   A    
C30   C38   A    
O15   C7    A    
C29   C37   A    
O16   C8    A    
C5    C19   S    
O12   C4    A    
C52   C67   A    
C26   C34   A    
H3    C27   S    
C23   C31   A    
O20   V2    S    
C2    C24   S    
C7    C17   S    
C33   C57   A    
C28   C36   A    
H20   C12   S    
O13   C5    A    
C15   C55   A    
C45   C53   A    
C51   C68   A    
C64   C72   A    
C50   C65   A    
O17   V3    S    
O18   V4    S    
C41   C49   A    
O19   V1    S    
H6    C30   S    
C13   C53   A    
C49   C66   A    
O9    V1    S    
H8    C32   S    
O3    V4    S    
C9    C49   A    
C58   Br2   S    
O8    C5    A    
C57   Br1   S    
C20   C28   A    
O9    C1    A    
O11   V2    S    
C6    C20   S    
C54   C69   A    
C62   Br6   S    
O4    C1    A    
C61   Br5   S    
H16   C72   S    
H22   C14   S    
O6    V2    S    
C48   C56   A    
O4    V3    S    
C63   Br7   S    
C3    C21   S    
C19   C27   A    
H12   C68   S    
C43   C44   A    
C44   C52   A    
O5    V1    S    
C16   C56   A    
O1    C4    A    
O2    C3    A    
C15   C23   A    
C12   C52   A    
O8    V1    S    
H7    C31   S    
C8    C18   S    
H10   C66   S    
O7    C6    A    
C35   C43   A    
H9    C65   S    
C34   C42   A    
C43   C51   A    
O15   V4    S    
O14   C6    A    
O1    V3    S    
O16   V3    S    
H17   C9    S    
C32   C40   A    
O2    V4    S    
C40   C64   A    
C27   C35   A    
O5    C8    A    
O10   C2    A    
O17   V1    S    
O6    C7    A    
H21   C13   S    
H2    C26   S    
H13   C69   S    
C35   C59   A    
C59   C67   A    
O19   V3    S    
C16   C24   A    
O10   V2    S    
C64   Br8   S    
H14   C70   S    
C36   C60   A    
H5    C29   S    
C12   C20   A    
C24   C32   A    
C36   C44   A    
O7    V2    S    
O13   V3    S    
C41   C42   A    
C42   C50   A    
O20   V4    S    
C46   C54   A    
C9    C17   A    
H4    C28   S    
