data_mof_unit_15457.cif
_audit_creation_date              2012-12-11T15:26:08-0500
_audit_creation_method            fapswitch 2.2
_symmetry_space_group_name_H-M    P1
_symmetry_Int_Tables_number       1
_space_group_crystal_system       triclinic
_cell_length_a                    24.45344
_cell_length_b                    17.180249
_cell_length_c                    15.756328
_cell_angle_alpha                 89.999987
_cell_angle_beta                  51.065955
_cell_angle_gamma                 90.0
_cell_volume                      5149.10067375

loop_
_atom_site_label
_atom_site_type_symbol
_atom_type_description
_atom_site_fract_x
_atom_site_fract_y
_atom_site_fract_z
_atom_type_partial_charge
C1    C     C_R   0.358059 0.147658 0.742723 0.567523
C2    C     C_R   0.665881 0.891576 0.199550 0.589882
C3    C     C_R   0.641941 0.147658 0.257277 0.567525
C4    C     C_R   0.334119 0.891576 0.800450 0.589883
C5    C     C_R   0.858059 0.647658 0.742723 0.567524
C6    C     C_R   0.165881 0.391576 0.199550 0.589883
C7    C     C_R   0.141941 0.647658 0.257277 0.567524
C8    C     C_R   0.834119 0.391576 0.800450 0.589883
C9    C     C_2   0.638331 0.257881 0.155487 -0.219238
C10   C     C_2   0.314269 0.832676 0.964557 -0.211681
C11   C     C_2   0.361669 0.257881 0.844513 -0.219237
C12   C     C_2   0.685731 0.832675 0.035444 -0.211682
C13   C     C_2   0.138331 0.757881 0.155487 -0.219237
C14   C     C_2   0.814269 0.332673 0.964555 -0.211682
C15   C     C_2   0.861669 0.757881 0.844513 -0.219238
C16   C     C_2   0.185731 0.332675 0.035443 -0.211681
C17   C     C_2   0.707973 0.264654 0.088560 -0.091381
C18   C     C_2   0.244419 0.834273 0.028139 -0.091298
C19   C     C_2   0.292027 0.264656 0.911437 -0.091387
C20   C     C_2   0.755581 0.834272 0.971862 -0.091298
C21   C     C_2   0.207973 0.764656 0.088563 -0.091387
C22   C     C_2   0.744419 0.334271 0.028137 -0.091298
C23   C     C_2   0.792027 0.764655 0.911438 -0.091386
C24   C     C_2   0.255581 0.334273 0.971861 -0.091299
C25   C     C_R   0.615488 0.100614 0.591718 -0.133931
C26   C     C_R   0.411289 0.855787 0.408446 -0.102185
C27   C     C_R   0.384512 0.100614 0.408282 -0.133932
C28   C     C_R   0.588711 0.855787 0.591554 -0.102185
C29   C     C_R   0.115488 0.600614 0.591718 -0.133931
C30   C     C_R   0.911289 0.355787 0.408446 -0.102185
C31   C     C_R   0.884512 0.600614 0.408282 -0.133932
C32   C     C_R   0.088711 0.355787 0.591554 -0.102185
C33   C     C_R   0.689941 0.095340 0.411819 -0.045882
C34   C     C_R   0.337843 0.855619 0.590807 -0.160606
C35   C     C_R   0.310058 0.095339 0.588181 -0.045876
C36   C     C_R   0.662157 0.855619 0.409193 -0.160606
C37   C     C_R   0.189941 0.595339 0.411819 -0.045876
C38   C     C_R   0.837843 0.355619 0.590807 -0.160606
C39   C     C_R   0.810058 0.595339 0.588181 -0.045878
C40   C     C_R   0.162157 0.355619 0.409193 -0.160606
C41   C     C_R   0.554714 0.142977 0.248257 -0.230671
C42   C     C_R   0.425464 0.890601 0.798440 -0.267889
C43   C     C_R   0.445286 0.142977 0.751743 -0.230673
C44   C     C_R   0.574535 0.890601 0.201560 -0.267888
C45   C     C_R   0.054714 0.642977 0.248256 -0.230674
C46   C     C_R   0.925465 0.390601 0.798440 -0.267889
C47   C     C_R   0.945286 0.642977 0.751743 -0.230673
C48   C     C_R   0.074535 0.390601 0.201560 -0.267888
C49   C     C_R   0.390093 0.188152 0.777371 -0.013930
C50   C     C_R   0.644127 0.870371 0.140606 0.014454
C51   C     C_R   0.609907 0.188152 0.222630 -0.013931
C52   C     C_R   0.355873 0.870371 0.859394 0.014454
C53   C     C_R   0.890093 0.688152 0.777370 -0.013930
C54   C     C_R   0.144127 0.370372 0.140606 0.014453
C55   C     C_R   0.109907 0.688152 0.222629 -0.013930
C56   C     C_R   0.855873 0.370370 0.859393 0.014454
C57   C     C_R   0.684873 0.111695 0.502084 -0.007530
C58   C     C_R   0.361052 0.811733 0.499719 0.027535
C59   C     C_R   0.315127 0.111695 0.497916 -0.007531
C60   C     C_R   0.638948 0.811733 0.500281 0.027535
C61   C     C_R   0.184873 0.611695 0.502084 -0.007532
C62   C     C_R   0.861052 0.311733 0.499719 0.027535
C63   C     C_R   0.815127 0.611695 0.497916 -0.007531
C64   C     C_R   0.138948 0.311733 0.500281 0.027535
C65   C     C_R   0.192154 0.155518 0.597397 -0.180199
C66   C     C_R   0.727161 0.705937 0.400539 -0.172651
C67   C     C_R   0.807845 0.155518 0.402603 -0.180201
C68   C     C_R   0.272839 0.705937 0.599460 -0.172652
C69   C     C_R   0.692154 0.655518 0.597397 -0.180201
C70   C     C_R   0.227161 0.205937 0.400539 -0.172651
C71   C     C_R   0.307846 0.655518 0.402603 -0.180199
C72   C     C_R   0.772839 0.205937 0.599460 -0.172652
C73   C     C_R   0.647684 0.705802 0.598011 -0.169491
C74   C     C_R   0.271756 0.155738 0.399871 -0.163769
C75   C     C_R   0.352316 0.705802 0.401989 -0.169492
C76   C     C_R   0.728244 0.155738 0.600129 -0.163770
C77   C     C_R   0.147684 0.205802 0.598011 -0.169492
C78   C     C_R   0.771756 0.655738 0.399871 -0.163770
C79   C     C_R   0.852316 0.205802 0.401989 -0.169491
C80   C     C_R   0.228243 0.655738 0.600129 -0.163769
C81   C     C_R   0.668892 0.737731 0.499616 0.143086
C82   C     C_R   0.257821 0.136761 0.498288 0.143755
C83   C     C_R   0.331108 0.737731 0.500384 0.143086
C84   C     C_R   0.742178 0.136761 0.501712 0.143755
C85   C     C_R   0.168892 0.237731 0.499616 0.143086
C86   C     C_R   0.757821 0.636761 0.498288 0.143755
C87   C     C_R   0.831108 0.237731 0.500383 0.143086
C88   C     C_R   0.242178 0.636761 0.501712 0.143755
H1    H     H_    0.594234 0.097299 0.675903 0.092294
H2    H     H_    0.439600 0.840661 0.324005 0.090405
H3    H     H_    0.405766 0.097299 0.324097 0.092294
H4    H     H_    0.560400 0.840661 0.675995 0.090405
H5    H     H_    0.094234 0.597299 0.675903 0.092294
H6    H     H_    0.939600 0.340661 0.324005 0.090405
H7    H     H_    0.905766 0.597299 0.324097 0.092294
H8    H     H_    0.060400 0.340661 0.675995 0.090405
H9    H     H_    0.738053 0.087690 0.329697 0.119443
H10   H     H_    0.298327 0.839461 0.674464 0.166301
H11   H     H_    0.261947 0.087690 0.670303 0.119441
H12   H     H_    0.701673 0.839462 0.325536 0.166301
H13   H     H_    0.238053 0.587689 0.329697 0.119441
H14   H     H_    0.798326 0.339462 0.674464 0.166301
H15   H     H_    0.761947 0.587689 0.670303 0.119441
H16   H     H_    0.201673 0.339462 0.325536 0.166301
H17   H     H_    0.518299 0.156685 0.233344 0.139252
H18   H     H_    0.456092 0.891264 0.826381 0.135394
H19   H     H_    0.481700 0.156685 0.766657 0.139252
H20   H     H_    0.543908 0.891263 0.173619 0.135394
H21   H     H_    0.018300 0.656685 0.233343 0.139252
H22   H     H_    0.956092 0.391263 0.826381 0.135394
H23   H     H_    0.981700 0.656685 0.766656 0.139252
H24   H     H_    0.043908 0.391264 0.173619 0.135394
H25   H     H_    0.177629 0.138471 0.675175 0.112959
H26   H     H_    0.742634 0.725054 0.322864 0.121652
H27   H     H_    0.822370 0.138471 0.324825 0.112959
H28   H     H_    0.257365 0.725054 0.677136 0.121652
H29   H     H_    0.677629 0.638471 0.675175 0.112960
H30   H     H_    0.242634 0.225054 0.322864 0.121652
H31   H     H_    0.322371 0.638471 0.324825 0.112959
H32   H     H_    0.757365 0.225054 0.677136 0.121652
H33   H     H_    0.600580 0.725025 0.676050 0.108270
H34   H     H_    0.320038 0.138514 0.321879 0.109657
H35   H     H_    0.399419 0.725026 0.323950 0.108270
H36   H     H_    0.679962 0.138514 0.678120 0.109658
H37   H     H_    0.100580 0.225025 0.676049 0.108270
H38   H     H_    0.820038 0.638513 0.321880 0.109657
H39   H     H_    0.899419 0.225026 0.323950 0.108270
H40   H     H_    0.179962 0.638514 0.678120 0.109657
H41   H     H_    0.215804 0.880054 0.023703 0.182622
H42   H     H_    0.740384 0.215616 0.076485 0.170451
H43   H     H_    0.784195 0.880054 0.976297 0.182622
H44   H     H_    0.259615 0.215619 0.923510 0.170454
H45   H     H_    0.715805 0.380053 0.023703 0.182621
H46   H     H_    0.240385 0.715619 0.076490 0.170454
H47   H     H_    0.284195 0.380054 0.976297 0.182623
H48   H     H_    0.759615 0.715618 0.923511 0.170453
H49   H     H_    0.341188 0.790133 0.977823 0.138609
H50   H     H_    0.604244 0.302642 0.162732 0.142501
H51   H     H_    0.658811 0.790131 0.022178 0.138610
H52   H     H_    0.395756 0.302641 0.837271 0.142501
H53   H     H_    0.841189 0.290129 0.977820 0.138610
H54   H     H_    0.104244 0.802641 0.162729 0.142501
H55   H     H_    0.158811 0.290133 0.022177 0.138609
H56   H     H_    0.895756 0.802642 0.837270 0.142501
N1    N     N_R   0.388930 0.078160 0.705470 -0.112395
N2    N     N_R   0.611070 0.921840 0.294530 -0.106383
N3    N     N_R   0.611070 0.078160 0.294530 -0.112395
N4    N     N_R   0.388930 0.921840 0.705470 -0.106383
N5    N     N_R   0.888930 0.578160 0.705470 -0.112395
N6    N     N_R   0.111070 0.421840 0.294530 -0.106383
N7    N     N_R   0.111070 0.578160 0.294530 -0.112395
N8    N     N_R   0.888930 0.421840 0.705470 -0.106383
N9    N     N_R   0.580500 0.077840 0.556650 -0.041135
N10   N     N_R   0.419500 0.922160 0.443350 -0.033264
N11   N     N_R   0.419500 0.077840 0.443350 -0.041135
N12   N     N_R   0.580500 0.922160 0.556650 -0.033264
N13   N     N_R   0.080500 0.577840 0.556650 -0.041135
N14   N     N_R   0.919500 0.422160 0.443350 -0.033264
N15   N     N_R   0.919500 0.577840 0.443350 -0.041135
N16   N     N_R   0.080500 0.422160 0.556650 -0.033264
N17   N     N_R   0.626210 0.077590 0.443410 -0.045392
N18   N     N_R   0.373790 0.922410 0.556590 -0.046927
N19   N     N_R   0.373790 0.077590 0.556590 -0.045392
N20   N     N_R   0.626210 0.922410 0.443410 -0.046927
N21   N     N_R   0.126210 0.577590 0.443410 -0.045392
N22   N     N_R   0.873790 0.422410 0.556590 -0.046927
N23   N     N_R   0.873790 0.577590 0.556590 -0.045392
N24   N     N_R   0.126210 0.422410 0.443410 -0.046927
N25   N     N_R   0.554800 0.077270 0.294580 -0.068639
N26   N     N_R   0.445200 0.922730 0.705420 -0.061432
N27   N     N_R   0.445200 0.077270 0.705420 -0.068638
N28   N     N_R   0.554800 0.922730 0.294580 -0.061432
N29   N     N_R   0.054800 0.577270 0.294580 -0.068638
N30   N     N_R   0.945200 0.422730 0.705420 -0.061432
N31   N     N_R   0.945200 0.577270 0.705420 -0.068638
N32   N     N_R   0.054800 0.422730 0.294580 -0.061432
Ni1   Ni    Ni4+2 0.382710 0.000000 0.629850 0.207591
Ni2   Ni    Ni4+2 0.617290 0.000000 0.370150 0.207591
Ni3   Ni    Ni4+2 0.882710 0.500000 0.629850 0.207591
Ni4   Ni    Ni4+2 0.117290 0.500000 0.370150 0.207591
Ni5   Ni    Ni4+2 0.513020 0.000000 0.629850 0.191572
Ni6   Ni    Ni4+2 0.486980 0.000000 0.370150 0.191572
Ni7   Ni    Ni4+2 0.013020 0.500000 0.629850 0.191572
Ni8   Ni    Ni4+2 0.986980 0.500000 0.370150 0.191572
O1    O     O_3   0.303641 0.173674 0.744968 -0.659296
C89   C     C_3   0.324933 0.241549 0.679971 -0.264313
H57   H     H_    0.377713 0.234721 0.598692 0.139056
H58   H     H_    0.324472 0.293834 0.721484 0.160877
H59   H     H_    0.286760 0.252645 0.665354 0.172790
O2    O     O_3   0.734716 0.891059 0.160695 -0.656515
C90   C     C_3   0.755763 0.967139 0.161185 -0.309359
H60   H     H_    0.732536 0.984811 0.245045 0.161704
H61   H     H_    0.742787 0.009690 0.122814 0.142133
H62   H     H_    0.813685 0.967625 0.112703 0.175618
O3    O     O_3   0.696361 0.173673 0.255028 -0.659295
C91   C     C_3   0.675071 0.241549 0.320023 -0.264313
H63   H     H_    0.622291 0.234723 0.401303 0.139056
H64   H     H_    0.675533 0.293833 0.278509 0.160877
H65   H     H_    0.713245 0.252644 0.334638 0.172789
O4    O     O_3   0.265284 0.891060 0.839305 -0.656515
C92   C     C_3   0.244237 0.967140 0.838815 -0.309361
H66   H     H_    0.267464 0.984812 0.754955 0.161704
H67   H     H_    0.257213 0.009690 0.877186 0.142132
H68   H     H_    0.186315 0.967625 0.887297 0.175618
O5    O     O_3   0.803641 0.673674 0.744970 -0.659295
C93   C     C_3   0.824932 0.741549 0.679973 -0.264313
H69   H     H_    0.877711 0.734722 0.598693 0.139056
H70   H     H_    0.824470 0.793834 0.721486 0.160877
H71   H     H_    0.786758 0.752645 0.665357 0.172790
O6    O     O_3   0.234716 0.391060 0.160695 -0.656515
C94   C     C_3   0.255763 0.467140 0.161184 -0.309363
H72   H     H_    0.232535 0.484812 0.245045 0.161705
H73   H     H_    0.242787 0.509690 0.122812 0.142132
H74   H     H_    0.313685 0.467625 0.112703 0.175619
O7    O     O_3   0.196359 0.673674 0.255031 -0.659296
C95   C     C_3   0.175067 0.741549 0.320028 -0.264311
H75   H     H_    0.122287 0.734721 0.401308 0.139056
H76   H     H_    0.175528 0.793834 0.278516 0.160877
H77   H     H_    0.213240 0.752645 0.334645 0.172789
O8    O     O_3   0.765284 0.391059 0.839305 -0.656514
C96   C     C_3   0.744237 0.467139 0.838815 -0.309360
H78   H     H_    0.767464 0.484811 0.754955 0.161704
H79   H     H_    0.757213 0.509689 0.877186 0.142132
H80   H     H_    0.686315 0.467625 0.887297 0.175618

loop_
_geom_bond_atom_site_label_1
_geom_bond_atom_site_label_2
_ccdc_geom_bond_type
C68   C80   A    
N6    N32   A    
C90   H61   S    
N1    N27   A    
C3    N3    A    
N4    Ni1   S    
N7    N29   A    
N2    N28   A    
C18   C21   S    
C92   H66   S    
C21   H46   S    
C1    N1    A    
C9    C51   S    
C59   C82   S    
C7    C55   A    
C72   C76   A    
C10   C52   S    
C76   C84   A    
C79   C87   A    
N7    Ni4   S    
N11   Ni6   S    
N20   Ni2   S    
C63   C86   S    
N3    Ni2   S    
O5    C93   S    
C48   C54   A    
C11   C19   D    
O2    C90   S    
C41   H17   S    
C23   H48   S    
C4    C52   A    
C8    O8    S    
C15   C53   S    
N31   Ni7   S    
C8    N8    A    
C95   H76   S    
C96   H80   S    
C34   C58   A    
C45   H21   S    
C4    O4    S    
C4    N4    A    
N5    Ni3   S    
C5    N5    A    
N2    Ni2   S    
C35   C59   A    
C60   C81   S    
C67   H27   S    
N18   Ni1   S    
C2    C50   A    
O1    C89   S    
N29   Ni8   S    
N15   N23   A    
O4    C92   S    
C70   C74   A    
N4    N26   A    
C46   N30   A    
C3    O3    S    
C27   H3    S    
C10   H49   S    
N15   Ni8   S    
C42   N26   A    
N16   Ni7   S    
C47   C53   A    
C30   H6    S    
N8    N30   A    
C78   C86   A    
C15   C23   D    
C14   H53   S    
C77   C85   A    
C67   C84   A    
C16   C24   D    
C71   C75   A    
C39   N23   A    
C92   H67   S    
C8    C56   A    
C25   C57   A    
C6    C54   A    
C91   H65   S    
C35   H11   S    
C73   C81   A    
O8    C96   S    
C29   H5    S    
N27   Ni5   S    
N8    Ni3   S    
C44   H20   S    
C27   N11   A    
C66   C78   A    
C29   C61   A    
C57   C84   S    
C65   C77   A    
C22   H45   S    
C25   N9    A    
C90   H60   S    
C76   H36   S    
C31   C63   A    
C16   H55   S    
C67   C79   A    
C95   H75   S    
C32   C64   A    
C28   H4    S    
N13   N21   A    
C43   N27   A    
C93   H69   S    
C43   C49   A    
C37   N21   A    
O3    C91   S    
C80   H40   S    
C34   N18   A    
N24   Ni4   S    
C41   N25   A    
C35   N19   A    
C15   H56   S    
N9    N17   A    
N5    N31   A    
C42   C52   A    
C14   C56   S    
C33   N17   A    
C11   H52   S    
C44   N28   A    
N19   Ni1   S    
C96   H78   S    
C11   C49   S    
C61   C88   S    
C45   N29   A    
C40   H16   S    
C26   C58   A    
C9    H50   S    
C12   C50   S    
C94   H72   S    
C20   C23   S    
C30   N14   A    
C28   N12   A    
N32   Ni8   S    
C12   C20   D    
C12   H51   S    
C13   C21   D    
C36   H12   S    
C43   H19   S    
C13   H54   S    
C69   C73   A    
C42   H18   S    
N12   N20   A    
C28   C60   A    
C68   H28   S    
C7    N7    A    
C24   H47   S    
C9    C17   D    
C94   H73   S    
N9    Ni5   S    
N23   Ni3   S    
C73   H33   S    
C72   H32   S    
C30   C62   A    
N26   Ni5   S    
C92   H68   S    
C75   H35   S    
C26   N10   A    
C2    N2    A    
C20   H43   S    
C89   H58   S    
C78   H38   S    
C64   C85   S    
C72   C87   A    
C77   H37   S    
C37   C61   A    
N14   N22   A    
N6    Ni4   S    
C74   C82   A    
C44   C50   A    
C19   H44   S    
C38   N22   A    
C79   H39   S    
C33   C57   A    
C66   H26   S    
C74   H34   S    
C17   H42   S    
C68   C83   A    
C65   H25   S    
N10   N18   A    
C31   N15   A    
C2    O2    S    
C13   C55   S    
C91   H63   S    
C36   C60   A    
C89   H57   S    
N30   Ni7   S    
C29   N13   A    
N12   Ni5   S    
C39   H15   S    
C6    O6    S    
C1    O1    S    
C26   H2    S    
C39   C63   A    
C62   C87   S    
C25   H1    S    
C17   C22   S    
C40   C64   A    
C71   H31   S    
C95   H77   S    
N11   N19   A    
C14   C22   D    
C89   H59   S    
C46   H22   S    
C19   C24   S    
C5    C53   A    
C90   H62   S    
C80   C88   A    
C27   C59   A    
C58   C83   S    
C66   C81   A    
C37   H13   S    
C32   H8    S    
C70   C85   A    
C93   H71   S    
C75   C83   A    
C65   C82   A    
N14   Ni8   S    
C10   C18   D    
C47   H23   S    
N10   Ni6   S    
C69   H29   S    
C34   H10   S    
C3    C51   A    
C33   H9    S    
N16   N24   A    
O7    C95   S    
C38   H14   S    
C16   C54   S    
N25   Ni6   S    
C40   N24   A    
C91   H64   S    
C31   H7    S    
C47   N31   A    
C5    O5    S    
C71   C88   A    
C6    N6    A    
N28   Ni6   S    
C70   H30   S    
C94   H74   S    
C45   C55   A    
C96   H79   S    
O6    C94   S    
C46   C56   A    
C36   N20   A    
N21   Ni4   S    
C48   H24   S    
C18   H41   S    
N22   Ni3   S    
N1    Ni1   S    
C32   N16   A    
N17   Ni2   S    
C93   H70   S    
C1    C49   A    
C41   C51   A    
C7    O7    S    
C69   C86   A    
N3    N25   A    
N13   Ni7   S    
C48   N32   A    
C38   C62   A    
