data_mof_unit_30528.cif
_audit_creation_date              2012-12-10T20:50:09-0500
_audit_creation_method            fapswitch 2.2
_symmetry_space_group_name_H-M    P1
_symmetry_Int_Tables_number       1
_space_group_crystal_system       triclinic
_cell_length_a                    19.043022
_cell_length_b                    8.895225
_cell_length_c                    8.187455
_cell_angle_alpha                 90.003461
_cell_angle_beta                  90.085108
_cell_angle_gamma                 90.020207
_cell_volume                      1386.88747495

loop_
_atom_site_label
_atom_site_type_symbol
_atom_type_description
_atom_site_fract_x
_atom_site_fract_y
_atom_site_fract_z
_atom_type_partial_charge
C1    C     C_R   0.499997 0.218389 0.500002 0.930290
C2    C     C_R   0.246387 0.459288 0.353847 0.239810
C3    C     C_R   0.187013 0.520602 0.654019 0.341068
C4    C     C_R   0.817853 0.646681 0.380624 0.291127
C5    C     C_R   0.812290 0.553421 0.658238 0.345932
C6    C     C_R   0.173646 0.433316 0.375384 0.288880
C7    C     C_R   0.142756 0.487971 0.520752 -0.263693
C8    C     C_R   0.853031 0.607426 0.526907 -0.260177
C9    C     C_R   0.287796 0.481095 0.497235 -0.381889
C10   C     C_R   0.710386 0.547377 0.499336 -0.383782
C11   C     C_R   0.929696 0.592503 0.527916 0.445615
C12   C     C_R   0.500109 0.781608 0.500008 0.933560
C13   C     C_R   0.068167 0.527486 0.524679 0.450978
C14   C     C_R   0.364711 0.495700 0.498791 0.967276
C15   C     C_R   0.635086 0.509196 0.499184 0.973667
C16   C     C_1   0.500084 0.065340 0.500023 -0.076287
C17   C     C_1   0.500136 0.934643 0.500032 -0.065165
C18   C     C_R   0.254375 0.459719 0.646878 0.303671
C19   C     C_R   0.749264 0.588288 0.357096 0.236762
C20   C     C_R   0.740737 0.584298 0.649511 0.306468
H1    H     H_    0.216893 0.138517 0.527489 0.386202
H2    H     H_    0.721462 0.322187 0.167042 0.378050
H3    H     H_    0.747771 0.915878 0.529554 0.389020
H4    H     H_    0.293844 0.712750 0.168680 0.375150
H5    H     H_    0.137426 0.913837 0.704524 0.415435
H6    H     H_    0.923165 0.977981 0.283142 0.397885
H7    H     H_    0.893465 0.183670 0.698872 0.413393
H8    H     H_    0.039399 0.153580 0.277826 0.398898
N1    N     N_1   0.500000 0.500000 0.073640 0.069525
N2    N     N_1   0.500000 0.500000 0.926360 0.052327
N3    N     N_R   0.032868 0.550432 0.383472 -0.062516
N4    N     N_R   0.965555 0.575541 0.669820 -0.055246
N5    N     N_R   0.964753 0.579919 0.385009 -0.062442
N6    N     N_R   0.033553 0.542333 0.668249 -0.054915
O1    O     O_R   0.500000 0.285350 0.636850 -0.601616
O2    O     O_2   0.203414 0.229452 0.827968 -0.192173
O3    O     O_3   0.266509 0.153049 0.560340 -0.528219
O4    O     O_2   0.657987 0.677768 0.131004 -0.189149
O5    O     O_2   0.771252 0.587429 0.031535 -0.168479
O6    O     O_3   0.682869 0.390066 0.133217 -0.495345
O7    O     O_2   0.646972 0.751395 0.814352 -0.183625
O8    O     O_2   0.769872 0.832199 0.829379 -0.179434
O9    O     O_3   0.700571 0.879569 0.561431 -0.550636
O10   O     O_2   0.330960 0.341000 0.129225 -0.188234
O11   O     O_2   0.225636 0.467321 0.027907 -0.165568
O12   O     O_R   0.500000 0.714650 0.363150 -0.608600
O13   O     O_3   0.326671 0.633425 0.131705 -0.500138
O14   O     O_2   0.126518 0.668760 0.903203 -0.189118
O15   O     O_2   0.245638 0.745504 0.826154 -0.226185
O16   O     O_3   0.142391 0.822496 0.636325 -0.539817
O17   O     O_2   0.894692 0.718904 0.114913 -0.177970
O18   O     O_2   0.794788 0.882169 0.181237 -0.194733
O19   O     O_3   0.906525 0.900820 0.361261 -0.546235
O20   O     O_2   0.884097 0.425011 0.904891 -0.191299
O21   O     O_2   0.773451 0.305652 0.823394 -0.230720
O22   O     O_3   0.881527 0.273844 0.633506 -0.541006
O23   O     O_R   0.500000 0.714650 0.636850 -0.596338
O24   O     O_2   0.091542 0.392182 0.109998 -0.176370
O25   O     O_2   0.175392 0.191800 0.177284 -0.186654
O26   O     O_3   0.064263 0.218898 0.357013 -0.544458
O27   O     O_R   0.500000 0.285350 0.363150 -0.609537
O28   O     O_R   0.398140 0.500000 0.636920 -0.586573
O29   O     O_R   0.601860 0.500000 0.363080 -0.555465
O30   O     O_R   0.601860 0.500000 0.636920 -0.583603
O31   O     O_R   0.398140 0.500000 0.363080 -0.557300
O32   O     O_2   0.331369 0.257884 0.812190 -0.176541
S1    S     S_3+6 0.263708 0.272733 0.719431 0.119320
S2    S     S_3+6 0.715411 0.564595 0.157082 0.153750
S3    S     S_3+6 0.714485 0.764219 0.721183 0.115526
S4    S     S_3+6 0.282112 0.471415 0.154572 0.154816
S5    S     S_3+6 0.175954 0.691569 0.762461 0.108857
S6    S     S_3+6 0.853236 0.788670 0.251395 0.117181
S7    S     S_3+6 0.837518 0.386891 0.762426 0.099994
S8    S     S_3+6 0.126280 0.307428 0.246855 0.119833
Zn1   Zn    Zn3+2 0.500000 0.500000 0.682780 1.150605
Zn2   Zn    Zn3+2 0.500000 0.500000 0.317220 1.156378

loop_
_geom_bond_atom_site_label_1
_geom_bond_atom_site_label_2
_ccdc_geom_bond_type
C12   C17   S    
C5    C8    A    
C3    S5    S    
O16   S5    S    
N3    N5    A    
O13   S4    S    
O10   S4    D    
C6    C7    A    
O18   S6    D    
O20   S7    D    
O5    S2    D    
O19   S6    S    
C4    C19   A    
C4    S6    S    
C10   C19   A    
C4    C8    A    
O6    S2    S    
H2    O6    S    
O23   Zn1   S    
O12   Zn2   S    
O32   S1    D    
O11   S4    D    
C15   O30   A    
H3    O9    S    
C19   S2    S    
O9    S3    S    
C1    C16   S    
O29   Zn2   S    
N2    Zn1   S    
H4    O13   S    
O25   S8    D    
O1    Zn1   S    
C2    C6    A    
O31   Zn2   S    
C2    S4    S    
C8    C11   S    
C12   O23   A    
O3    S1    S    
O26   S8    S    
C14   O31   A    
O4    S2    D    
C11   N4    A    
C6    S8    S    
C3    C7    A    
C10   C15   S    
H8    O26   S    
O27   Zn2   S    
C5    S7    S    
C20   S3    S    
C5    C20   A    
O28   Zn1   S    
O2    S1    D    
O22   S7    S    
O17   S6    D    
O14   S5    D    
N1    N2    T    
O21   S7    D    
H6    O19   S    
C9    C18   A    
C11   N5    A    
H1    O3    S    
O24   S8    D    
C3    C18   A    
O7    S3    D    
O15   S5    D    
N1    Zn2   S    
C9    C14   S    
C15   O29   A    
H7    O22   S    
O30   Zn1   S    
C13   N6    A    
C7    C13   S    
C1    O1    A    
N4    N6    A    
C18   S1    S    
H5    O16   S    
C2    C9    A    
C13   N3    A    
O8    S3    D    
C10   C20   A    
C16   C17   T    
C1    O27   A    
C12   O12   A    
C14   O28   A    
