data_mof_unit_48517.cif
_audit_creation_date              2012-12-11T15:42:39-0500
_audit_creation_method            fapswitch 2.2
_symmetry_space_group_name_H-M    P1
_symmetry_Int_Tables_number       1
_space_group_crystal_system       triclinic
_cell_length_a                    6.927546
_cell_length_b                    14.557757
_cell_length_c                    16.191402
_cell_angle_alpha                 90.326272
_cell_angle_beta                  89.695098
_cell_angle_gamma                 89.964414
_cell_volume                      1632.84536018

loop_
_atom_site_label
_atom_site_type_symbol
_atom_type_description
_atom_site_fract_x
_atom_site_fract_y
_atom_site_fract_z
_atom_type_partial_charge
O1    O     O_R   0.505810 0.583360 0.413880 -0.539192
O2    O     O_R   0.175870 0.595480 0.585520 -0.543339
O3    O     O_R   0.005540 0.416640 0.586120 -0.540531
C1    C     C_R   0.344683 0.617592 0.614756 0.688367
O4    O     O_R   0.176100 0.594390 0.414490 -0.540713
O5    O     O_R   0.005770 0.415540 0.413870 -0.537433
C2    C     C_R   0.345301 0.616238 0.385706 0.734146
O6    O     O_R   0.505580 0.584460 0.586130 -0.540000
O7    O     O_3   0.339190 0.441320 0.500000 -0.372771
V1    V     V_3+5 0.064350 0.510890 0.500000 1.404904
O8    O     O_R   0.676050 0.404520 0.414480 -0.547600
C3    C     C_R   0.846422 0.380616 0.387045 0.701754
O9    O     O_R   0.675830 0.405610 0.585510 -0.539500
C4    C     C_R   0.844962 0.382422 0.612555 0.725218
V2    V     V_3+5 0.564340 0.489110 0.500000 1.399824
O10   O     O_3   0.839370 0.558680 0.500000 -0.368603
C5    C     C_2   0.733483 0.198067 0.777254 -0.227741
C6    C     C_2   0.884430 0.191494 0.829663 0.315655
H1    H     H_    0.618851 0.147269 0.779876 0.087819
C7    C     C_2   0.710874 0.272382 0.715103 -0.102127
C8    C     C_2   0.862039 0.310055 0.675372 -0.260065
H2    H     H_    0.565238 0.292120 0.698275 0.120576
H3    H     H_    0.006675 0.285317 0.687145 0.161818
C9    C     C_R   0.029542 0.192569 0.239793 -0.176060
H4    H     H_    0.154236 0.148398 0.231532 0.141828
C10   C     C_R   0.024675 0.254262 0.306795 0.147796
C11   C     C_R   0.860206 0.311414 0.318995 -0.093591
C12   C     C_R   0.705933 0.304001 0.263579 -0.192476
H5    H     H_    0.581156 0.348108 0.271863 0.125337
C13   C     C_R   0.710857 0.242360 0.196542 0.152735
C14   C     C_R   0.875371 0.185249 0.184331 -0.099090
C15   C     C_R   0.188164 0.724063 0.719170 -0.154159
H6    H     H_    0.047253 0.706609 0.695123 0.116202
C16   C     C_R   0.199806 0.786189 0.785497 -0.151445
H7    H     H_    0.067130 0.814898 0.810132 0.118143
C17   C     C_R   0.379637 0.811157 0.819274 -0.048771
C18   C     C_R   0.547448 0.771963 0.784773 -0.161395
H8    H     H_    0.688343 0.789380 0.808860 0.116496
C19   C     C_R   0.535809 0.709852 0.718431 -0.147225
H9    H     H_    0.668482 0.681127 0.693810 0.119813
C20   C     C_R   0.355999 0.685031 0.684531 -0.046740
C21   C     C_R   0.224778 0.756752 0.312933 -0.224302
H10   H     H_    0.118518 0.765869 0.361615 0.138315
C22   C     C_R   0.234327 0.821148 0.248279 0.399395
C23   C     C_R   0.378074 0.812463 0.186193 -0.237121
C24   C     C_R   0.506703 0.737016 0.189231 0.388894
C25   C     C_R   0.498186 0.675097 0.255497 -0.235633
H11   H     H_    0.600499 0.618826 0.257438 0.142789
C26   C     C_R   0.356093 0.683584 0.317167 -0.162827
O11   O     O_R   0.230120 0.912300 0.917180 -0.543576
O12   O     O_R   0.559740 0.902430 0.088770 -0.528589
O13   O     O_R   0.729930 0.081310 0.089370 -0.541754
C27   C     C_R   0.390444 0.880753 0.117889 0.774889
O14   O     O_R   0.559840 0.901330 0.917750 -0.541577
O15   O     O_R   0.730030 0.080210 0.917120 -0.552051
C28   C     C_R   0.390991 0.878953 0.888740 0.673685
O16   O     O_R   0.230020 0.913400 0.089430 -0.526212
O17   O     O_3   0.396460 0.055470 0.003290 -0.378503
V3    V     V_3+5 0.671360 0.985960 0.003250 1.413487
O18   O     O_R   0.059740 0.091300 0.917690 -0.542646
C29   C     C_R   0.891428 0.115317 0.890874 0.632901
O19   O     O_R   0.059640 0.092400 0.088720 -0.539298
C30   C     C_R   0.889261 0.116191 0.116213 0.719542
V4    V     V_3+5 0.171350 0.007820 0.003190 1.416926
O20   O     O_3   0.896380 0.938200 0.003220 -0.364270
O21   O     O_3   0.118331 0.898609 0.250992 -0.563713
C31   C     C_3   0.927036 0.873394 0.232221 -0.150122
H12   H     H_    0.919022 0.838600 0.171001 0.184363
H13   H     H_    0.838148 0.936658 0.228794 0.138932
H14   H     H_    0.863209 0.829294 0.281087 0.120551
O22   O     O_3   0.645711 0.724525 0.128700 -0.558479
C32   C     C_3   0.568837 0.667124 0.066681 -0.227696
H15   H     H_    0.439385 0.698542 0.037685 0.115346
H16   H     H_    0.533244 0.597901 0.091335 0.133965
H17   H     H_    0.679367 0.657940 0.017493 0.160808
O23   O     O_3   0.012001 0.265110 0.836040 -0.547281
C33   C     C_3   0.205284 0.236561 0.824660 -0.225422
H18   H     H_    0.220709 0.176788 0.781730 0.101807
H19   H     H_    0.272833 0.221744 0.885157 0.169567
H20   H     H_    0.287166 0.294350 0.797207 0.146623
C34   C     C_3   0.194555 0.255214 0.364795 -0.722334
H21   H     H_    0.144077 0.246206 0.429453 0.196771
H22   H     H_    0.298182 0.198888 0.350804 0.194209
H23   H     H_    0.274585 0.320831 0.358789 0.217990
C35   C     C_3   0.541014 0.241446 0.138502 -0.726061
H24   H     H_    0.591526 0.250486 0.073849 0.200447
H25   H     H_    0.460949 0.175833 0.144470 0.220303
H26   H     H_    0.437391 0.297772 0.152493 0.189097

loop_
_geom_bond_atom_site_label_1
_geom_bond_atom_site_label_2
_ccdc_geom_bond_type
O15   V3    S    
O11   V4    S    
C22   O21   S    
C1    O6    A    
C34   H21   S    
C19   C20   A    
C33   H18   S    
C10   C11   A    
O19   C30   A    
C4    C8    S    
C12   H5    S    
C9    C10   A    
O5    C3    A    
C13   C14   A    
C33   H20   S    
C1    C20   S    
V2    O10   S    
C5    C7    S    
C16   H7    S    
O19   V4    S    
O8    V2    S    
C15   C20   A    
O1    V2    S    
O7    V1    S    
C33   H19   S    
O21   C31   S    
C23   C27   S    
O9    C4    A    
C21   C22   A    
C32   H17   S    
C25   C26   A    
C34   H22   S    
O14   V3    S    
C35   H25   S    
C8    H3    S    
O17   V4    S    
O14   C28   A    
C3    C11   S    
C31   H12   S    
C14   C30   S    
O23   C33   S    
C2    C26   S    
C32   H16   S    
C19   H9    S    
O4    C2    A    
C27   O16   A    
O17   V3    S    
C35   H24   S    
O11   C28   A    
O18   C29   A    
O12   C27   A    
C15   C16   A    
O2    C1    A    
C18   H8    S    
C17   C28   S    
O13   V3    S    
C25   H11   S    
C5    C6    D    
C9    H4    S    
C13   C35   S    
C24   O22   S    
O3    C4    A    
C7    H2    S    
C10   C34   S    
O9    V2    S    
O12   V3    S    
C21   H10   S    
O2    V1    S    
C34   H23   S    
C22   C23   A    
O16   V4    S    
C35   H26   S    
C24   C25   A    
C17   C18   A    
C6    O23   S    
O1    C2    A    
C32   H15   S    
O13   C30   A    
O5    V1    S    
O8    C3    A    
C6    C29   S    
O6    V2    S    
O18   V4    S    
C31   H14   S    
C15   H6    S    
C12   C13   A    
O7    V2    S    
C9    C14   A    
O22   C32   S    
C18   C19   A    
O3    V1    S    
V1    O10   S    
V3    O20   S    
O15   C29   A    
V4    O20   S    
C5    H1    S    
C16   C17   A    
C21   C26   A    
C23   C24   A    
O4    V1    S    
C7    C8    D    
C11   C12   A    
C31   H13   S    
