data_mof_unit_64729.cif
_audit_creation_date              2013-03-05T16:18:44-0500
_audit_creation_method            fapswitch 2.2
_symmetry_space_group_name_H-M    P1
_symmetry_Int_Tables_number       1
_space_group_crystal_system       triclinic
_cell_length_a                    44.39857
_cell_length_b                    38.919046
_cell_length_c                    21.321495
_cell_angle_alpha                 90.041359
_cell_angle_beta                  61.099709
_cell_angle_gamma                 90.011972
_cell_volume                      32254.1824819

loop_
_atom_site_label
_atom_site_type_symbol
_atom_site_description
_atom_site_fract_x
_atom_site_fract_y
_atom_site_fract_z
_atom_type_partial_charge
O1    O     O_R   0.050910 0.528730 0.449120 -0.626251
O2    O     O_R   0.949090 0.528730 0.550880 -0.624484
O3    O     O_R   0.550910 0.028730 0.449120 -0.623186
O4    O     O_R   0.449090 0.028730 0.550880 -0.625214
O5    O     O_R   0.050890 0.471240 0.449130 -0.621813
O6    O     O_R   0.949110 0.471240 0.550870 -0.623428
O7    O     O_R   0.550890 0.971240 0.449130 -0.624938
O8    O     O_R   0.449110 0.971240 0.550870 -0.620773
C1    C     C_R   0.067176 0.499978 0.432846 0.874390
C2    C     C_R   0.932823 0.499982 0.567162 0.873353
C3    C     C_R   0.567177 0.999975 0.432834 0.857392
C4    C     C_R   0.432824 0.999979 0.567129 0.863510
O9    O     O_R   0.999990 0.528730 0.593030 -0.632700
O10   O     O_R   0.000010 0.528730 0.406970 -0.633019
O11   O     O_R   0.499990 0.028730 0.593030 -0.609954
O12   O     O_R   0.500010 0.028730 0.406970 -0.632748
O13   O     O_R   0.999970 0.471240 0.593040 -0.626683
O14   O     O_R   0.000030 0.471240 0.406960 -0.627077
O15   O     O_R   0.499970 0.971240 0.593040 -0.609799
O16   O     O_R   0.500030 0.971240 0.406960 -0.626665
C5    C     C_R   0.999877 0.499963 0.621686 0.903173
C6    C     C_R   0.000002 0.499938 0.378433 0.903489
C7    C     C_R   0.500370 0.999981 0.621198 0.870737
C8    C     C_R   0.500012 0.999938 0.378424 0.902997
Zn1   Zn    Zn3+2 0.000000 0.538370 0.500000 0.941757
Zn2   Zn    Zn3+2 0.500000 0.038370 0.500000 0.956249
Zn3   Zn    Zn3+2 1.000000 0.461600 0.500000 0.962520
Zn4   Zn    Zn3+2 0.500000 0.961600 0.500000 0.968942
C9    C     C_3   0.029308 0.512263 0.700500 0.126861
C10   C     C_3   0.972214 0.515609 0.297903 0.125294
C11   C     C_3   0.514462 0.971335 0.715834 0.120689
C12   C     C_3   0.472070 0.015331 0.298057 0.125506
C13   C     C_3   0.026187 0.479973 0.744568 -0.151586
C14   C     C_3   0.971505 0.483189 0.257623 -0.153816
C15   C     C_3   0.481948 0.972783 0.789251 -0.148619
C16   C     C_3   0.471683 0.982905 0.257450 -0.153771
H1    H     H_    0.047807 0.464243 0.741071 0.151838
H2    H     H_    0.948175 0.470140 0.262787 0.153674
H3    H     H_    0.467402 0.950422 0.822348 0.145373
H4    H     H_    0.448484 0.969624 0.262483 0.153264
C17   C     C_3   0.000080 0.499999 0.810997 -0.032743
C18   C     C_3   0.999863 0.499950 0.189057 -0.032790
C19   C     C_3   0.500401 0.000018 0.810723 -0.033564
C20   C     C_3   0.499867 0.999950 0.189054 -0.032759
C21   C     C_3   0.004159 0.532753 0.767068 -0.264507
C22   C     C_3   0.999684 0.532953 0.229154 -0.263682
C23   C     C_3   0.533460 0.997650 0.737729 -0.279439
C24   C     C_3   0.499359 0.032950 0.229482 -0.263535
C25   C     C_3   0.974543 0.519178 0.755928 0.120462
C26   C     C_3   0.027409 0.515940 0.242251 0.121620
C27   C     C_3   0.518378 0.026324 0.711824 0.124889
C28   C     C_3   0.527259 0.016216 0.242394 0.121384
C29   C     C_3   0.969670 0.487130 0.801688 -0.157342
C30   C     C_3   0.028469 0.483533 0.200219 -0.155395
C31   C     C_3   0.485979 0.029549 0.785167 -0.150180
C32   C     C_3   0.528640 0.983821 0.200040 -0.155999
C33   C     C_3   0.995824 0.467340 0.733816 -0.219257
C34   C     C_3   0.000109 0.467014 0.270186 -0.219277
C35   C     C_3   0.467718 0.002306 0.761892 -0.204068
C36   C     C_3   0.500451 0.967018 0.269842 -0.218836
C37   C     C_3   0.999840 0.499772 0.689082 -0.008832
C38   C     C_3   0.999938 0.499694 0.311138 -0.008728
C39   C     C_3   0.500409 0.999951 0.688537 -0.011326
C40   C     C_3   0.499956 0.999694 0.311120 -0.008927
H5    H     H_    0.007555 0.559312 0.781649 0.135559
H6    H     H_    0.999507 0.559726 0.211404 0.135058
H7    H     H_    0.560261 0.995745 0.728428 0.156905
H8    H     H_    0.498911 0.059720 0.212005 0.135148
H9    H     H_    0.944842 0.477222 0.844988 0.155465
H10   H     H_    0.051940 0.470751 0.158240 0.154079
H11   H     H_    0.474757 0.053763 0.814918 0.136695
H12   H     H_    0.552239 0.971273 0.157934 0.153667
H13   H     H_    0.992403 0.440806 0.719148 0.165847
H14   H     H_    0.000291 0.440262 0.288036 0.166261
H15   H     H_    0.441121 0.004178 0.769992 0.142626
H16   H     H_    0.500905 0.940268 0.287417 0.166352
C41   C     C_R   0.377804 0.479841 0.080126 -0.229985
C42   C     C_R   0.622201 0.479824 0.919783 -0.230068
C43   C     C_R   0.877715 0.979683 0.081018 -0.229345
C44   C     C_R   0.122311 0.979757 0.918934 -0.229299
H17   H     H_    0.391724 0.463239 0.034143 0.153729
H18   H     H_    0.608287 0.463203 0.965685 0.153653
H19   H     H_    0.891567 0.962788 0.035511 0.152549
H20   H     H_    0.108481 0.962879 0.964427 0.152639
C45   C     C_R   0.342096 0.479451 0.115476 -0.170163
C46   C     C_R   0.657909 0.479438 0.884437 -0.170220
C47   C     C_R   0.842010 0.979175 0.116840 -0.170067
C48   C     C_R   0.158017 0.979267 0.883083 -0.169837
H21   H     H_    0.328731 0.462818 0.096244 0.142009
H22   H     H_    0.671281 0.462790 0.903588 0.141953
H23   H     H_    0.828899 0.961637 0.098668 0.136231
H24   H     H_    0.171151 0.961761 0.901222 0.136342
C49   C     C_R   0.323755 0.500751 0.174812 0.080920
C50   C     C_R   0.676241 0.500764 0.825208 0.080925
C51   C     C_R   0.823520 0.000611 0.176209 0.087251
C52   C     C_R   0.176480 0.000678 0.823723 0.087282
C53   C     C_R   0.341163 0.522333 0.199141 -0.202625
C54   C     C_R   0.658826 0.522366 0.800979 -0.202663
C55   C     C_R   0.841302 0.022558 0.199323 -0.202683
C56   C     C_R   0.158672 0.022586 0.800653 -0.202539
H25   H     H_    0.326657 0.538758 0.245165 0.132253
H26   H     H_    0.673326 0.538810 0.755037 0.132255
H27   H     H_    0.827203 0.039857 0.243911 0.126148
H28   H     H_    0.172752 0.039865 0.756071 0.126288
C57   C     C_R   0.377149 0.522541 0.164624 0.107838
C58   C     C_R   0.622840 0.522569 0.835490 0.107806
C59   C     C_R   0.877288 0.022854 0.164269 0.109011
C60   C     C_R   0.122686 0.022866 0.835740 0.109095
C61   C     C_R   0.395439 0.500977 0.104762 -0.041111
C62   C     C_R   0.604558 0.500980 0.895244 -0.041037
C63   C     C_R   0.895448 0.001067 0.104866 -0.041107
C64   C     C_R   0.104551 0.001099 0.895126 -0.041210
C65   C     C_R   0.268235 0.531037 0.218931 -0.179186
C66   C     C_R   0.731746 0.531042 0.781316 -0.179238
C67   C     C_R   0.767376 0.003047 0.289030 -0.179365
C68   C     C_R   0.232602 0.003058 0.710854 -0.179801
H29   H     H_    0.281864 0.554855 0.196615 0.137976
H30   H     H_    0.718105 0.554848 0.803796 0.137961
H31   H     H_    0.780653 0.004845 0.320192 0.133579
H32   H     H_    0.219307 0.004807 0.679724 0.134126
C69   C     C_R   0.232487 0.530849 0.254179 -0.181665
C70   C     C_R   0.767494 0.530857 0.746080 -0.181608
C71   C     C_R   0.731629 0.003194 0.324684 -0.182480
C72   C     C_R   0.268349 0.003196 0.675156 -0.179929
H33   H     H_    0.219026 0.554591 0.257821 0.132973
H34   H     H_    0.780944 0.554587 0.742612 0.133048
H35   H     H_    0.717816 0.005464 0.382533 0.136169
H36   H     H_    0.282145 0.005406 0.617303 0.138537
C73   C     C_R   0.214421 0.500200 0.283577 0.106429
C74   C     C_R   0.785573 0.500222 0.716472 0.106459
C75   C     C_R   0.713835 0.999810 0.285904 0.100543
C76   C     C_R   0.286165 0.999871 0.713898 0.100479
C77   C     C_R   0.232728 0.469672 0.276256 -0.180611
C78   C     C_R   0.767279 0.469707 0.723568 -0.180804
C79   C     C_R   0.731869 0.996484 0.211293 -0.179528
C80   C     C_R   0.268148 0.996622 0.788518 -0.180808
H37   H     H_    0.219456 0.445830 0.299519 0.134111
H38   H     H_    0.780561 0.445878 0.700138 0.133985
H39   H     H_    0.718236 0.994123 0.180897 0.138650
H40   H     H_    0.281794 0.994311 0.818890 0.137672
C81   C     C_R   0.268483 0.469789 0.239866 -0.177527
C82   C     C_R   0.731525 0.469821 0.759949 -0.177583
C83   C     C_R   0.767626 0.996967 0.175419 -0.180392
C84   C     C_R   0.232392 0.997112 0.824433 -0.179550
H41   H     H_    0.282301 0.446112 0.234877 0.138334
H42   H     H_    0.717716 0.446153 0.764767 0.138293
H43   H     H_    0.781091 0.995319 0.117515 0.133096
H44   H     H_    0.218941 0.995516 0.882338 0.133081
C85   C     C_R   0.286272 0.500504 0.211577 0.111517
C86   C     C_R   0.713723 0.500521 0.788448 0.111534
C87   C     C_R   0.785686 0.000167 0.214026 0.117645
C88   C     C_R   0.214312 0.000243 0.785863 0.117417
C89   C     C_R   0.158398 0.472224 0.314863 -0.169550
C90   C     C_R   0.841603 0.472214 0.684991 -0.169586
C91   C     C_R   0.658438 0.972009 0.315722 -0.171861
C92   C     C_R   0.341554 0.972108 0.684268 -0.169764
H45   H     H_    0.171757 0.450773 0.280111 0.132142
H46   H     H_    0.828250 0.450736 0.719588 0.132003
H47   H     H_    0.672159 0.950293 0.282251 0.137584
H48   H     H_    0.327827 0.950457 0.717892 0.138166
C93   C     C_R   0.122649 0.472021 0.351724 -0.180704
C94   C     C_R   0.877353 0.472007 0.648117 -0.182718
C95   C     C_R   0.622678 0.971884 0.352136 -0.182004
C96   C     C_R   0.377314 0.971971 0.647910 -0.190597
H49   H     H_    0.109076 0.450333 0.345308 0.153731
H50   H     H_    0.890928 0.450289 0.654372 0.153394
H51   H     H_    0.609131 0.950125 0.345902 0.154621
H52   H     H_    0.390853 0.950270 0.654335 0.155186
C97   C     C_R   0.104653 0.499968 0.395098 -0.026114
C98   C     C_R   0.895343 0.499983 0.604936 -0.026827
C99   C     C_R   0.604654 0.999940 0.395277 -0.026967
C100  C     C_R   0.395347 0.999951 0.604596 -0.028588
C101  C     C_R   0.122667 0.527958 0.401989 -0.182001
C102  C     C_R   0.877320 0.528010 0.598263 -0.180411
C103  C     C_R   0.622663 0.027956 0.402296 -0.197334
C104  C     C_R   0.377351 0.027890 0.597305 -0.180958
H53   H     H_    0.109111 0.549600 0.435930 0.149662
H54   H     H_    0.890868 0.549680 0.564482 0.151158
H55   H     H_    0.609106 0.049737 0.435722 0.150866
H56   H     H_    0.390921 0.049604 0.563719 0.152250
C105  C     C_R   0.158419 0.527895 0.366207 -0.171147
C106  C     C_R   0.841568 0.527952 0.634055 -0.171472
C107  C     C_R   0.658422 0.027749 0.367005 -0.172146
C108  C     C_R   0.341592 0.027694 0.632548 -0.172528
H57   H     H_    0.171802 0.549395 0.373812 0.129821
H58   H     H_    0.828179 0.549482 0.626610 0.130022
H59   H     H_    0.672134 0.049432 0.372995 0.135834
H60   H     H_    0.327890 0.049323 0.626374 0.135775
C109  C     C_R   0.176591 0.500108 0.322014 0.113764
C110  C     C_R   0.823403 0.500132 0.678044 0.113833
C111  C     C_R   0.676352 0.999856 0.323402 0.108685
C112  C     C_R   0.323650 0.999888 0.676363 0.107903
O17   O     O_R   0.971250 0.449110 0.028730 -0.622814
O18   O     O_R   0.028750 0.449110 0.971270 -0.623144
O19   O     O_R   0.471250 0.949110 0.028730 -0.622919
O20   O     O_R   0.528750 0.949110 0.971270 -0.623047
C113  C     C_R   0.000003 0.432769 0.000003 0.914523
C114  C     C_R   0.500003 0.932770 0.999982 0.913663
O21   O     O_R   0.971250 0.500020 0.935710 -0.628031
O22   O     O_R   0.028750 0.500020 0.064290 -0.627327
O23   O     O_R   0.471250 0.000020 0.935710 -0.623777
O24   O     O_R   0.528750 0.000020 0.064290 -0.627608
O25   O     O_R   0.028730 0.500040 0.878250 -0.624299
O26   O     O_R   0.971270 0.500040 0.121750 -0.625026
O27   O     O_R   0.528730 0.000040 0.878250 -0.625478
O28   O     O_R   0.471270 0.000040 0.121750 -0.625077
C115  C     C_R   0.000035 0.499936 0.878351 0.888257
C116  C     C_R   0.999957 0.499915 0.121656 0.888241
C117  C     C_R   0.500079 0.000043 0.878323 0.886603
C118  C     C_R   0.499957 0.999915 0.121655 0.888614
Zn5   Zn    Zn3+2 0.961610 0.500020 0.038370 0.958301
Zn6   Zn    Zn3+2 0.038390 0.500020 0.961630 0.958682
Zn7   Zn    Zn3+2 0.461610 0.000020 0.038370 0.959516
Zn8   Zn    Zn3+2 0.538390 0.000020 0.961630 0.954748
O29   O     O_R   0.971250 0.550940 0.028740 -0.626064
O30   O     O_R   0.028750 0.550940 0.971260 -0.626197
O31   O     O_R   0.471250 0.050940 0.028740 -0.626564
O32   O     O_R   0.528750 0.050940 0.971260 -0.626576
C119  C     C_R   0.999997 0.567257 0.999999 0.856935
C120  C     C_R   0.499997 0.067257 0.000005 0.856688
O33   O     O_R   0.499970 0.449000 0.052430 -0.625778
O34   O     O_R   0.500030 0.449000 0.947570 -0.625780
O35   O     O_R   0.999970 0.949000 0.052430 -0.625937
O36   O     O_R   0.000030 0.949000 0.947570 -0.625941
C121  C     C_R   0.500001 0.432681 0.999978 0.857753
C122  C     C_R   0.000000 0.932681 0.999979 0.858030
O37   O     O_R   0.449080 0.499920 0.103410 -0.593106
O38   O     O_R   0.550920 0.499920 0.896590 -0.593115
O39   O     O_R   0.949080 0.999920 0.103410 -0.593359
O40   O     O_R   0.050920 0.999920 0.896590 -0.593289
O41   O     O_R   0.449080 0.499990 0.998370 -0.627113
O42   O     O_R   0.550920 0.499990 0.001630 -0.627135
O43   O     O_R   0.949080 0.999990 0.998370 -0.627320
O44   O     O_R   0.050920 0.999990 0.001630 -0.627313
C123  C     C_R   0.432874 0.500314 0.067205 0.872142
C124  C     C_R   0.567125 0.500313 0.932797 0.872137
C125  C     C_R   0.932878 0.000331 0.067208 0.872815
C126  C     C_R   0.067122 0.000337 0.932791 0.872865
Zn9   Zn    Zn3+2 0.499980 0.499910 0.070140 0.965511
Zn10  Zn    Zn3+2 0.500020 0.499910 0.929860 0.965579
Zn11  Zn    Zn3+2 0.999980 0.999910 0.070140 0.964513
Zn12  Zn    Zn3+2 0.000020 0.999910 0.929860 0.964577
O45   O     O_R   0.500000 0.550840 0.052620 -0.622855
O46   O     O_R   0.500000 0.550840 0.947380 -0.622828
O47   O     O_R   1.000000 0.050840 0.052620 -0.622798
O48   O     O_R   0.000000 0.050840 0.947380 -0.622781
C127  C     C_R   0.499999 0.567135 0.000020 0.854241
C128  C     C_R   1.000000 0.067135 0.000021 0.854794
C129  C     C_R   0.503828 0.622785 0.052695 -0.189783
C130  C     C_R   0.496179 0.622761 0.947422 -0.189699
C131  C     C_R   0.003851 0.122775 0.052691 -0.189489
C132  C     C_R   0.996165 0.122769 0.947463 -0.189487
H61   H     H_    0.506990 0.609405 0.093658 0.160665
H62   H     H_    0.493009 0.609363 0.906452 0.160743
H63   H     H_    0.007028 0.109387 0.093628 0.160526
H64   H     H_    0.992980 0.109378 0.906505 0.160551
C133  C     C_R   0.503918 0.658485 0.052587 -0.166223
C134  C     C_R   0.496113 0.658458 0.947537 -0.166177
C135  C     C_R   0.003942 0.158474 0.052603 -0.165938
C136  C     C_R   0.996099 0.158467 0.947599 -0.165927
H65   H     H_    0.507434 0.671988 0.093020 0.138522
H66   H     H_    0.492604 0.671940 0.907107 0.138637
H67   H     H_    0.007474 0.171968 0.093024 0.138409
H68   H     H_    0.992575 0.171956 0.907197 0.138428
C137  C     C_R   0.500025 0.676531 0.000058 0.120862
C138  C     C_R   0.000029 0.176530 0.000110 0.121031
C139  C     C_R   0.500000 0.604692 0.000053 -0.042274
C140  C     C_R   0.000004 0.104691 0.000062 -0.042258
C141  C     C_R   0.481765 0.732277 0.064650 -0.173167
C142  C     C_R   0.518324 0.732217 0.935415 -0.173148
C143  C     C_R   0.981789 0.232265 0.064752 -0.173014
C144  C     C_R   0.018307 0.232227 0.935504 -0.173022
H69   H     H_    0.467156 0.718820 0.114931 0.134487
H70   H     H_    0.532932 0.718713 0.885151 0.134410
H71   H     H_    0.967194 0.218799 0.115028 0.134431
H72   H     H_    0.032900 0.218731 0.885224 0.134482
C145  C     C_R   0.981865 0.267961 0.064745 -0.067459
C146  C     C_R   0.018229 0.267921 0.935518 -0.067504
C147  C     C_R   0.481838 0.767973 0.064614 -0.067485
C148  C     C_R   0.518244 0.767912 0.935399 -0.067404
H73   H     H_    0.967739 0.281733 0.114854 0.136406
H74   H     H_    0.032350 0.281662 0.885410 0.136456
H75   H     H_    0.467698 0.781753 0.114707 0.136499
H76   H     H_    0.532381 0.781645 0.885285 0.136252
C149  C     C_R   0.000043 0.285789 0.000132 0.208870
C150  C     C_R   0.500037 0.785790 0.999993 0.208886
C151  C     C_R   0.500042 0.714183 0.000044 0.095336
C152  C     C_R   0.000045 0.214182 0.000125 0.095406
C153  C     C_R   0.031021 0.341393 0.980227 0.296642
C154  C     C_R   0.969028 0.341369 0.019983 0.296616
C155  C     C_R   0.531016 0.841390 0.980139 0.296797
C156  C     C_R   0.469037 0.841374 0.019763 0.297053
C157  C     C_R   0.030679 0.377228 0.979276 -0.246537
C158  C     C_R   0.969351 0.377206 0.020848 -0.246107
C159  C     C_R   0.530676 0.877225 0.979227 -0.247172
C160  C     C_R   0.469360 0.877211 0.020668 -0.247525
H77   H     H_    0.054346 0.391120 0.964223 0.203259
H78   H     H_    0.945678 0.391081 0.035873 0.203264
H79   H     H_    0.554338 0.891115 0.964238 0.202956
H80   H     H_    0.445692 0.891090 0.035651 0.203162
C161  C     C_R   0.000011 0.395191 0.000037 -0.161203
C162  C     C_R   0.500012 0.895192 0.999957 -0.161571
C163  C     C_R   0.000029 0.323315 0.000124 -0.182339
C164  C     C_R   0.500030 0.823317 0.999963 -0.182270
C165  C     C_R   0.507486 0.377092 0.047705 -0.189914
C166  C     C_R   0.492512 0.377090 0.952117 -0.189920
C167  C     C_R   0.007479 0.877090 0.047709 -0.189884
C168  C     C_R   0.992512 0.877092 0.952112 -0.189871
H81   H     H_    0.513489 0.390516 0.084808 0.155647
H82   H     H_    0.486512 0.390513 0.915042 0.155706
H83   H     H_    0.013479 0.890512 0.084817 0.155366
H84   H     H_    0.986515 0.890517 0.915033 0.155345
C169  C     C_R   0.507645 0.341388 0.047368 -0.186479
C170  C     C_R   0.492341 0.341386 0.952386 -0.186240
C171  C     C_R   0.007637 0.841386 0.047369 -0.186357
C172  C     C_R   0.992339 0.841388 0.952377 -0.186385
H85   H     H_    0.513684 0.327600 0.084022 0.135331
H86   H     H_    0.486296 0.327596 0.915709 0.135626
H87   H     H_    0.013673 0.827596 0.084025 0.135074
H88   H     H_    0.986297 0.827600 0.915694 0.135046
C173  C     C_R   0.499988 0.323583 0.999863 0.108582
C174  C     C_R   0.999983 0.823582 0.999857 0.108843
C175  C     C_R   0.500000 0.395157 0.999931 -0.031098
C176  C     C_R   0.999998 0.895156 0.999931 -0.030781
C177  C     C_R   0.471921 0.268098 0.054087 0.092874
C178  C     C_R   0.528027 0.268062 0.945603 0.092601
C179  C     C_R   0.971915 0.768096 0.054065 0.092497
C180  C     C_R   0.028024 0.768064 0.945589 0.092482
C181  C     C_R   0.972199 0.732365 0.053736 -0.171541
C182  C     C_R   0.027739 0.732332 0.945927 -0.171540
C183  C     C_R   0.472205 0.232367 0.053767 -0.171367
C184  C     C_R   0.527741 0.232331 0.945949 -0.170456
H89   H     H_    0.950793 0.718693 0.096159 0.150519
H90   H     H_    0.049146 0.718634 0.903513 0.150537
H91   H     H_    0.450800 0.218697 0.096196 0.150442
H92   H     H_    0.549147 0.218632 0.903535 0.150743
C185  C     C_R   0.999971 0.714322 0.999840 0.006018
C186  C     C_R   0.499975 0.214322 0.999870 0.006091
C187  C     C_R   0.499976 0.286124 0.999843 -0.004080
C188  C     C_R   0.999972 0.786124 0.999829 -0.004107
C189  C     C_R   0.030155 0.658546 0.984103 -0.174288
C190  C     C_R   0.969808 0.658522 0.015687 -0.174393
C191  C     C_R   0.530158 0.158545 0.984123 -0.174065
C192  C     C_R   0.469808 0.158524 0.015731 -0.172765
H93   H     H_    0.053586 0.672014 0.972827 0.132138
H94   H     H_    0.946373 0.671970 0.026930 0.132103
H95   H     H_    0.553591 0.172012 0.972840 0.131914
H96   H     H_    0.446372 0.171973 0.026986 0.132413
C193  C     C_R   0.030204 0.622845 0.983823 -0.196129
C194  C     C_R   0.969771 0.622821 0.016063 -0.195826
C195  C     C_R   0.530206 0.122843 0.983836 -0.195664
C196  C     C_R   0.469770 0.122823 0.016100 -0.195150
H97   H     H_    0.053760 0.609415 0.971760 0.156186
H98   H     H_    0.946219 0.609373 0.028157 0.156188
H99   H     H_    0.553763 0.109413 0.971761 0.155777
H100  H     H_    0.446217 0.109377 0.028200 0.156249
C197  C     C_R   0.999990 0.604780 0.999967 -0.035304
C198  C     C_R   0.499991 0.104780 0.999986 -0.034721
C199  C     C_R   0.999979 0.676623 0.999871 0.138629
C200  C     C_R   0.499981 0.176624 0.999905 0.138665
N1    N     N_3   0.395168 0.544928 0.188934 -0.434368
H101  H     H_    0.377813 0.557988 0.235336 0.178842
H102  H     H_    0.407625 0.563598 0.149441 0.174611
N2    N     N_3   0.604811 0.544974 0.811284 -0.434385
H103  H     H_    0.622161 0.558053 0.764949 0.178818
H104  H     H_    0.592341 0.563627 0.850869 0.174571
N3    N     N_3   0.895454 0.045667 0.187471 -0.435788
H105  H     H_    0.878235 0.058852 0.233816 0.178167
H106  H     H_    0.907647 0.064189 0.147511 0.175377
N4    N     N_3   0.104493 0.045643 0.812585 -0.435610
H107  H     H_    0.121696 0.058815 0.766249 0.178302
H108  H     H_    0.092293 0.064179 0.852569 0.175390
N5    N     N_3   0.061731 0.525379 0.643468 -0.464929
H109  H     H_    0.076757 0.532539 0.666834 0.189134
H110  H     H_    0.056275 0.547869 0.624117 0.183689
N6    N     N_3   0.941547 0.532507 0.353016 -0.465017
H111  H     H_    0.927380 0.541090 0.328691 0.187566
H112  H     H_    0.949582 0.554391 0.369283 0.187311
N7    N     N_3   0.529633 0.939615 0.677134 -0.431212
H113  H     H_    0.537289 0.925243 0.708386 0.186215
H114  H     H_    0.552038 0.946222 0.630325 0.181913
N8    N     N_3   0.441237 0.031920 0.353354 -0.465709
H115  H     H_    0.426994 0.040390 0.329117 0.187011
H116  H     H_    0.449057 0.053864 0.369890 0.187309
N9    N     N_R   0.062770 0.323916 0.962341 0.206492
O49   O     O_R   0.062983 0.296963 0.998214 -0.386585
O50   O     O_R   0.092017 0.337396 0.916272 -0.388434
N10   N     N_R   0.937288 0.323863 0.037908 0.206470
O51   O     O_R   0.937086 0.296861 0.002076 -0.386675
O52   O     O_R   0.908035 0.337360 0.083964 -0.388569
N11   N     N_R   0.562758 0.823909 0.962298 0.206317
O53   O     O_R   0.562955 0.796954 0.998182 -0.386952
O54   O     O_R   0.592013 0.837389 0.916265 -0.390301
N12   N     N_R   0.437305 0.823873 0.037598 0.206439
O55   O     O_R   0.437128 0.796870 0.001741 -0.386603
O56   O     O_R   0.408041 0.837372 0.083594 -0.388941
N13   N     N_3   0.442742 0.285520 0.109527 -0.462959
H117  H     H_    0.432395 0.301656 0.085589 0.195228
H118  H     H_    0.451056 0.300677 0.138682 0.191111
N14   N     N_3   0.557207 0.285448 0.890153 -0.462890
H119  H     H_    0.567561 0.301605 0.914081 0.195004
H120  H     H_    0.548892 0.300579 0.861002 0.191380
N15   N     N_3   0.942734 0.785516 0.109504 -0.462923
H121  H     H_    0.932389 0.801654 0.085565 0.195406
H122  H     H_    0.951045 0.800670 0.138666 0.191022
N16   N     N_3   0.057206 0.785451 0.890147 -0.462797
H123  H     H_    0.067557 0.801606 0.914083 0.195499
H124  H     H_    0.048893 0.800585 0.860996 0.191052
N17   N     N_3   0.946287 0.539985 0.760536 -0.458887
H125  H     H_    0.933195 0.549899 0.812518 0.185329
H126  H     H_    0.957064 0.560940 0.726202 0.192965
N18   N     N_3   0.057898 0.533211 0.235660 -0.461302
H127  H     H_    0.071956 0.541858 0.182849 0.187192
H128  H     H_    0.049629 0.555067 0.268168 0.191049
N19   N     N_3   0.537852 0.055509 0.668499 -0.438951
H129  H     H_    0.547821 0.068561 0.697263 0.181544
H130  H     H_    0.558857 0.045729 0.622481 0.172979
N20   N     N_3   0.557577 0.033792 0.235959 -0.461114
H131  H     H_    0.571559 0.042548 0.183215 0.186542
H132  H     H_    0.549095 0.055583 0.268628 0.191967

loop_
_geom_bond_atom_site_label_1
_geom_bond_atom_site_label_2
_geom_bond_distance
_ccdc_geom_bond_type
C170  H86   1.083427 S    
C55   H27   1.083028 S    
C130  H62   1.083020 S    
C31   C35   1.554195 S    
C82   H42   1.083482 S    
C1    C97   1.456707 S    
C14   C18   1.539451 S    
O30   C119  1.285346 A    
C136  H68   1.083116 S    
C29   H9    1.110325 S    
C43   C47   1.387969 A    
O35   C122  1.285151 A    
C4    C100  1.456694 S    
C77   H37   1.082674 S    
C114  C162  1.462472 S    
C63   C125  1.455131 S    
C10   N6    1.456037 S    
Zn11  O47   2.017225 S    
N15   H122  1.044879 S    
C130  C139  1.402768 A    
C90   H46   1.082720 S    
C47   H23   1.082754 S    
N13   H118  1.044878 S    
C51   C55   1.403911 A    
O17   Zn5   2.016429 S    
O18   C113  1.285780 A    
C194  H98   1.083128 S    
C177  N13   1.433304 S    
C9    C13   1.535303 S    
C56   H28   1.083034 S    
O23   C117  1.273453 A    
O43   C125  1.285041 A    
C59   N3    1.438146 S    
C97   C101  1.400330 A    
C192  H96   1.083036 S    
C32   H12   1.110239 S    
C147  H75   1.083402 S    
O4    C4    1.285311 A    
C80   H40   1.083470 S    
O19   C114  1.285796 A    
C53   C57   1.399238 A    
C83   C87   1.404941 A    
C172  C174  1.397641 A    
O22   C116  1.272384 A    
C74   C78   1.405031 A    
C58   N2    1.437943 S    
C155  C164  1.415646 A    
C67   C71   1.389499 A    
C166  C170  1.389609 A    
C147  C150  1.398996 A    
C96   H52   1.083272 S    
C133  C137  1.402087 A    
C46   H22   1.083472 S    
C69   C73   1.404943 A    
C189  H93   1.083036 S    
C159  H79   1.083286 S    
O16   Zn4   2.018554 S    
C54   H26   1.083858 S    
C36   H16   1.110179 S    
C153  C157  1.395018 A    
O7    Zn4   2.013394 S    
C9    C21   1.537538 S    
C17   C115  1.435130 S    
O15   C7    1.273322 A    
C11   C39   1.523333 S    
C42   H18   1.083652 S    
O4    Zn2   2.014159 S    
C30   H10   1.110223 S    
C92   H48   1.083448 S    
C44   C64   1.398977 A    
O9    C5    1.274697 A    
C166  H82   1.083036 S    
O24   Zn8   2.017126 S    
C178  C187  1.410558 A    
C159  C162  1.398604 A    
C73   C77   1.405025 A    
N14   H120  1.044881 S    
O27   Zn8   2.020264 S    
C64   C126  1.455148 S    
O8    Zn4   2.013278 S    
C133  H65   1.083113 S    
C16   C20   1.539431 S    
C66   C86   1.398838 A    
C136  C138  1.402069 A    
C184  C186  1.401301 A    
C132  C136  1.389303 A    
C103  C107  1.390000 A    
C179  C188  1.410563 A    
C98   C102  1.400364 A    
C153  N9    1.440679 S    
C104  C108  1.390039 A    
C28   N20   1.455990 S    
C144  C146  1.389200 A    
C165  C175  1.403797 A    
C35   C39   1.538468 S    
O3    Zn2   2.014039 S    
C26   N18   1.455970 S    
C33   C37   1.540133 S    
C50   C86   1.457048 S    
C178  N14   1.433301 S    
C54   C58   1.399234 A    
O46   C127  1.288734 A    
C36   C40   1.540157 S    
C121  C175  1.460402 S    
C26   C30   1.534204 S    
O25   C115  1.272975 A    
O35   Zn11  2.016801 S    
C25   C29   1.533665 S    
C177  C183  1.390658 A    
C27   C31   1.534904 S    
C19   C117  1.434478 S    
O3    C3    1.285297 A    
N12   O55   1.301380 A    
C174  C188  1.457857 S    
C24   C28   1.537740 S    
C44   C48   1.387971 A    
O47   C128  1.288789 A    
C67   C87   1.405012 A    
C14   C34   1.552542 S    
C17   C21   1.540371 S    
Zn9   O45   2.017225 S    
C154  C163  1.415667 A    
C106  C110  1.404420 A    
N17   H125  1.044953 S    
C19   C23   1.541728 S    
O16   C8    1.272444 A    
C93   H49   1.083339 S    
C20   C24   1.540318 S    
C135  H67   1.083114 S    
N9    O50   1.301471 A    
C146  C149  1.398976 A    
C191  H95   1.083036 S    
Zn10  O46   2.016696 S    
O36   Zn12  2.017337 S    
C102  C106  1.389670 A    
N4    H107  1.045662 S    
C122  C176  1.460406 S    
C143  C152  1.403684 A    
C89   C109  1.404222 A    
C160  C162  1.398591 A    
O33   Zn9   2.016801 S    
O40   Zn12  2.015144 S    
C12   C16   1.534708 S    
N18   H127  1.044923 S    
O38   Zn10  2.015144 S    
C18   C22   1.540313 S    
C52   C88   1.470615 S    
O42   C124  1.284955 A    
N2    H103  1.045686 S    
C72   C76   1.398742 A    
C33   H13   1.110246 S    
C158  C161  1.398596 A    
C190  C194  1.389470 A    
O5    Zn3   2.013394 S    
O32   C120  1.285346 A    
O6    Zn3   2.013278 S    
C194  C197  1.402107 A    
N10   O51   1.301382 A    
C73   C109  1.470450 S    
N19   H130  1.045211 S    
O27   C117  1.271300 A    
C15   C19   1.538137 S    
C76   C112  1.457024 S    
C20   C118  1.435116 S    
C168  C176  1.403812 A    
O8    C4    1.285132 A    
C93   C97   1.400471 A    
C79   C83   1.389969 A    
C41   C45   1.388090 A    
C157  H77   1.083286 S    
C134  H66   1.083116 S    
C190  C199  1.402743 A    
C27   N19   1.456075 S    
C120  C198  1.460356 S    
N6    H112  1.044991 S    
O7    C3    1.285171 A    
N20   H132  1.044991 S    
C9    C37   1.521438 S    
C56   C60   1.399021 A    
C10   C14   1.534643 S    
C91   H47   1.083444 S    
O13   Zn3   2.018016 S    
O26   C116  1.272684 A    
C156  C160  1.395044 A    
C12   C40   1.521441 S    
Zn8   O32   2.016813 S    
C179  C181  1.390658 A    
Zn6   O30   2.016809 S    
O34   C121  1.285166 A    
C91   C95   1.390008 A    
C145  C149  1.398991 A    
C68   H32   1.082737 S    
O41   Zn10  2.013855 S    
C69   H33   1.082696 S    
C177  C187  1.410562 A    
O20   Zn8   2.016546 S    
O28   C118  1.272705 A    
C71   H35   1.083489 S    
C143  C145  1.389234 A    
C76   C80   1.399023 A    
C41   C61   1.400799 A    
O15   Zn4   2.018016 S    
C17   C29   1.540059 S    
C180  C188  1.410560 A    
C119  C197  1.460348 S    
C65   H29   1.083491 S    
C61   C123  1.455286 S    
C19   C31   1.538275 S    
C67   H31   1.082735 S    
C21   H5    1.110250 S    
C96   C100  1.402172 A    
C167  C171  1.389585 A    
C182  C185  1.401302 A    
C157  C161  1.398613 A    
C49   C53   1.399504 A    
C34   H14   1.110169 S    
N11   O54   1.301472 A    
C57   C61   1.410588 A    
O14   C6    1.272441 A    
C59   C63   1.408892 A    
C90   C94   1.389706 A    
N14   H119  1.045537 S    
C169  H85   1.083427 S    
C81   H41   1.083480 S    
C10   C22   1.537803 S    
C129  C139  1.402768 A    
C84   C88   1.404889 A    
C135  C138  1.402069 A    
N13   H117  1.045539 S    
C178  C184  1.390672 A    
C156  N12   1.440676 S    
C165  H81   1.083036 S    
C52   C56   1.403871 A    
C167  C176  1.403794 A    
C148  C150  1.398972 A    
C137  C151  1.465400 S    
C101  C105  1.389666 A    
C74   C110  1.470448 S    
O43   Zn12  2.013855 S    
C104  H56   1.083322 S    
C65   C69   1.389601 A    
C186  C200  1.467187 S    
O41   C123  1.284973 A    
C9    N5    1.456078 S    
C168  H84   1.083034 S    
C34   C38   1.540154 S    
C179  N15   1.433305 S    
C48   C52   1.402362 A    
N8    H115  1.044912 S    
C193  H97   1.083131 S    
C49   C85   1.457097 S    
C142  C151  1.403694 A    
C44   H20   1.083720 S    
N7    H113  1.044964 S    
O31   C120  1.285339 A    
N1    H102  1.045704 S    
O5    C1    1.285242 A    
Zn12  O48   2.016696 S    
C149  C163  1.460496 S    
C181  H89   1.083553 S    
C150  C164  1.460492 S    
C22   H6    1.110171 S    
C196  C198  1.402107 A    
N5    H110  1.045121 S    
C171  C174  1.397647 A    
C58   C62   1.410579 A    
C195  H99   1.083132 S    
C50   C54   1.399496 A    
C170  C173  1.397644 A    
C165  C169  1.389577 A    
C141  C147  1.389238 A    
C15   C35   1.554710 S    
C106  H58   1.082721 S    
C142  C148  1.389206 A    
C131  C135  1.389349 A    
C94   H50   1.083340 S    
C105  C109  1.404426 A    
C132  C140  1.402756 A    
N15   H121  1.045537 S    
C191  C195  1.389483 A    
O42   Zn9   2.013857 S    
N8    H116  1.045009 S    
C108  C112  1.400058 A    
C18   C116  1.435112 S    
C95   C99   1.402209 A    
C102  H54   1.083390 S    
C5    C37   1.436204 S    
C189  C199  1.402760 A    
C195  C198  1.402099 A    
C72   H36   1.083487 S    
C7    C39   1.436607 S    
C90   C110  1.404217 A    
C11   N7    1.456098 S    
C8    C40   1.436237 S    
C11   C23   1.535552 S    
C12   C24   1.537782 S    
C192  C200  1.402747 A    
C62   C124  1.455242 S    
O12   Zn2   2.018236 S    
C173  C187  1.457853 S    
C25   C37   1.521454 S    
C148  H76   1.083404 S    
O1    C1    1.285185 A    
O20   C114  1.285772 A    
C28   C40   1.521265 S    
C193  C197  1.402096 A    
C45   H21   1.083472 S    
C23   C27   1.535441 S    
C13   H1    1.110301 S    
C60   C64   1.408932 A    
O33   C121  1.285146 A    
O36   C122  1.285165 A    
C15   H3    1.110211 S    
C181  C185  1.401298 A    
O29   C119  1.285337 A    
C78   C82   1.389787 A    
O39   Zn11  2.015135 S    
C20   C32   1.539694 S    
C131  H63   1.083019 S    
C94   C98   1.400502 A    
C21   C25   1.538138 S    
C144  H72   1.083002 S    
O37   Zn9   2.015135 S    
C27   C39   1.522619 S    
N3    H106  1.045709 S    
C24   H8    1.110183 S    
O23   Zn7   2.017122 S    
N12   O56   1.301469 A    
O28   Zn7   2.020262 S    
C25   N17   1.456134 S    
O45   C127  1.288817 A    
C142  H70   1.083003 S    
C10   C38   1.521435 S    
C190  H94   1.083037 S    
C153  C163  1.415650 A    
C11   C15   1.533992 S    
C51   C87   1.470671 S    
C3    C99   1.456727 S    
N9    O49   1.301381 A    
C185  C199  1.467183 S    
C145  H73   1.083402 S    
C29   C33   1.552528 S    
C68   C72   1.389518 A    
C71   C75   1.398717 A    
C129  C133  1.389380 A    
O6    C2    1.285261 A    
N4    H108  1.045707 S    
C2    C98   1.456809 S    
C55   C59   1.399041 A    
C79   H39   1.083470 S    
C77   C81   1.389806 A    
C141  H69   1.083002 S    
C172  H88   1.083427 S    
C13   C17   1.539174 S    
C82   C86   1.398798 A    
N18   H128  1.044986 S    
C80   C84   1.389934 A    
C18   C30   1.539656 S    
C43   H19   1.083722 S    
O10   C6    1.274775 A    
C113  C161  1.462501 S    
C196  H100  1.083130 S    
O26   Zn5   2.020262 S    
O34   Zn10  2.017337 S    
N2    H104  1.045701 S    
O2    Zn1   2.014159 S    
C167  H83   1.083035 S    
O10   Zn1   2.018236 S    
C89   H45   1.082720 S    
O13   C5    1.272498 A    
O19   Zn7   2.016429 S    
C32   C36   1.552336 S    
C160  H80   1.083286 S    
N10   O52   1.301471 A    
C89   C93   1.389720 A    
N16   H123  1.045540 S    
C183  H91   1.083554 S    
C131  C140  1.402767 A    
Zn5   O29   2.016924 S    
C192  C196  1.389469 A    
C155  C159  1.395012 A    
N3    H105  1.045660 S    
C84   H44   1.082696 S    
C81   C85   1.398816 A    
N11   O53   1.301379 A    
C83   H43   1.082691 S    
O22   Zn6   2.017126 S    
C143  H71   1.083003 S    
C107  H59   1.083450 S    
N7    H114  1.045151 S    
C105  H57   1.082721 S    
C129  H61   1.083016 S    
C168  C172  1.389601 A    
C57   N1    1.437940 S    
C189  C193  1.389478 A    
C48   H24   1.082758 S    
C31   H11   1.110201 S    
C41   H17   1.083653 S    
N17   H126  1.045025 S    
C46   C50   1.397810 A    
C166  C175  1.403806 A    
O21   Zn5   2.017122 S    
C132  H64   1.083019 S    
C42   C46   1.388079 A    
O11   C7    1.274212 A    
O12   C8    1.274771 A    
O1    Zn1   2.014039 S    
O9    Zn1   2.018762 S    
C45   C49   1.397825 A    
O24   C118  1.272365 A    
C23   H7    1.110224 S    
O48   C128  1.288754 A    
C65   C85   1.398845 A    
C16   H4    1.110216 S    
C180  C182  1.390668 A    
C155  N11   1.440671 S    
Zn7   O31   2.016924 S    
O11   Zn2   2.018762 S    
C103  H55   1.083314 S    
C171  H87   1.083427 S    
C99   C103  1.402008 A    
C108  H60   1.083447 S    
C47   C51   1.402362 A    
C70   H34   1.082693 S    
C95   H51   1.083269 S    
C138  C152  1.465395 S    
C6    C38   1.436245 S    
C75   C79   1.398978 A    
N19   H129  1.044944 S    
C101  H53   1.083395 S    
O21   C115  1.272106 A    
C42   C62   1.400793 A    
C66   H30   1.083490 S    
C91   C111  1.399741 A    
C92   C112  1.399773 A    
C146  H74   1.083404 S    
C26   C38   1.521243 S    
O25   Zn6   2.020264 S    
O40   C126  1.284591 A    
O2    C2    1.285225 A    
C35   H15   1.110188 S    
C68   C88   1.405012 A    
N6    H111  1.044915 S    
N20   H131  1.044928 S    
C30   C34   1.552310 S    
C12   N8    1.456044 S    
C13   C33   1.552346 S    
C14   H2    1.110197 S    
C141  C151  1.403673 A    
O14   Zn3   2.018554 S    
C184  H92   1.083553 S    
C169  C173  1.397640 A    
C16   C36   1.552523 S    
C107  C111  1.400011 A    
C78   H38   1.082675 S    
C183  C186  1.401298 A    
C128  C140  1.461659 S    
C75   C111  1.456937 S    
C144  C152  1.403680 A    
O37   C123  1.284815 A    
N1    H101  1.045685 S    
C22   C26   1.537694 S    
C180  N16   1.433301 S    
C43   C63   1.398973 A    
C127  C139  1.461686 S    
C158  H78   1.083285 S    
N5    H109  1.044918 S    
O17   C113  1.285800 A    
C130  C134  1.389283 A    
C156  C164  1.415671 A    
N16   H124  1.044877 S    
O44   C126  1.285070 A    
O38   C124  1.284803 A    
O18   Zn6   2.016546 S    
O44   Zn11  2.013857 S    
C154  N10   1.440671 S    
C191  C200  1.402754 A    
C66   C70   1.389602 A    
C100  C104  1.402001 A    
C92   C96   1.389977 A    
C182  H90   1.083554 S    
C60   N4    1.438154 S    
C134  C137  1.402044 A    
O39   C125  1.284613 A    
C70   C74   1.404949 A    
C154  C158  1.395037 A    
C53   H25   1.083859 S    
C28   C32   1.534162 S    
