data_mof_unit_62782.cif
_audit_creation_date              2013-03-05T16:06:31-0500
_audit_creation_method            fapswitch 2.2
_symmetry_space_group_name_H-M    P1
_symmetry_Int_Tables_number       1
_space_group_crystal_system       triclinic
_cell_length_a                    45.262463
_cell_length_b                    31.994443
_cell_length_c                    31.995045
_cell_angle_alpha                 89.998734
_cell_angle_beta                  134.998504
_cell_angle_gamma                 89.99857
_cell_volume                      32763.6141343

loop_
_atom_site_label
_atom_site_type_symbol
_atom_site_description
_atom_site_fract_x
_atom_site_fract_y
_atom_site_fract_z
_atom_type_partial_charge
O1    O     O_R   0.560480 0.000000 0.595480 -0.578014
O2    O     O_R   0.060480 0.500000 0.595480 -0.578011
O3    O     O_R   0.560430 0.000000 0.525440 -0.568640
O4    O     O_R   0.060430 0.500000 0.525440 -0.568650
C1    C     C_R   0.580246 0.999993 0.580243 0.818392
C2    C     C_R   0.080246 0.499994 0.580243 0.818280
O5    O     O_R   0.500020 0.060460 0.535020 -0.566922
O6    O     O_R   0.500020 0.939540 0.535020 -0.566357
O7    O     O_R   0.000020 0.560460 0.535020 -0.566981
O8    O     O_R   0.000020 0.439540 0.535020 -0.566212
O9    O     O_R   0.499970 0.060450 0.464980 -0.580453
O10   O     O_R   0.499970 0.939550 0.464980 -0.580808
O11   O     O_R   0.999970 0.560450 0.464980 -0.580366
O12   O     O_R   0.999970 0.439550 0.464980 -0.580957
C3    C     C_R   0.499993 0.080275 0.499993 0.818419
C4    C     C_R   0.499993 0.919725 0.499994 0.819459
C5    C     C_R   0.999993 0.580275 0.499993 0.818435
C6    C     C_R   0.999993 0.419725 0.499994 0.819398
Cu1   Cu    Cu3+1 0.500020 1.000000 0.541470 1.017308
Cu2   Cu    Cu3+1 0.000020 0.500000 0.541470 1.017425
Cu3   Cu    Cu3+1 0.499960 1.000000 0.458530 0.997334
Cu4   Cu    Cu3+1 0.999960 0.500000 0.458530 0.997282
O13   O     O_R   0.439560 0.000000 0.474560 -0.572167
O14   O     O_R   0.939560 0.500000 0.474560 -0.572091
O15   O     O_R   0.439510 0.000000 0.404520 -0.581084
O16   O     O_R   0.939510 0.500000 0.404520 -0.581109
C7    C     C_R   0.419710 0.999999 0.419723 0.816019
C8    C     C_R   0.919710 0.500000 0.419723 0.816084
C9    C     C_3   0.535580 0.263923 0.553191 -0.250482
C10   C     C_3   0.535803 0.736070 0.552938 -0.249074
C11   C     C_3   0.035335 0.763924 0.553435 -0.250610
C12   C     C_3   0.035651 0.236070 0.553101 -0.249069
C13   C     C_3   0.532957 0.236026 0.510874 -0.222462
C14   C     C_3   0.532651 0.763970 0.510130 -0.221725
C15   C     C_3   0.033260 0.736026 0.511632 -0.222792
C16   C     C_3   0.032849 0.263970 0.510617 -0.221539
H1    H     H_    0.560017 0.224146 0.519777 0.174862
H2    H     H_    0.559466 0.775847 0.518429 0.175435
H3    H     H_    0.060566 0.724147 0.521158 0.174728
H4    H     H_    0.059825 0.275847 0.519314 0.175463
H5    H     H_    0.564704 0.275539 0.597150 0.167548
H6    H     H_    0.565122 0.724449 0.596701 0.168376
H7    H     H_    0.064252 0.775540 0.597586 0.167443
H8    H     H_    0.064842 0.224449 0.596993 0.168379
H9    H     H_    0.495513 0.276090 0.423351 0.163282
H10   H     H_    0.494540 0.723915 0.422446 0.162431
H11   H     H_    0.996507 0.776090 0.424291 0.163278
H12   H     H_    0.995174 0.223915 0.423036 0.162346
C17   C     C_1   0.499958 0.125138 0.499927 -0.139901
C18   C     C_1   0.499955 0.874862 0.499927 -0.138582
C19   C     C_1   0.999960 0.625138 0.499929 -0.139776
C20   C     C_1   0.999956 0.374862 0.499927 -0.138725
C21   C     C_1   0.500009 0.374853 0.500033 -0.158076
C22   C     C_1   0.500002 0.625147 0.500026 -0.158396
C23   C     C_1   0.000009 0.874853 0.500034 -0.158044
C24   C     C_1   0.000002 0.125147 0.500026 -0.158444
C25   C     C_3   0.502398 0.236074 0.541222 0.679167
C26   C     C_3   0.502908 0.763923 0.541698 0.679723
C27   C     C_3   0.001865 0.736074 0.540718 0.679162
C28   C     C_3   0.002568 0.263924 0.541382 0.679780
C29   C     C_3   0.499852 0.208648 0.499554 0.040183
C30   C     C_3   0.499841 0.791352 0.499547 0.039752
C31   C     C_3   0.999858 0.708648 0.499558 0.040122
C32   C     C_3   0.999844 0.291352 0.499549 0.039860
C33   C     C_3   0.467274 0.263756 0.488828 0.104093
C34   C     C_3   0.467556 0.736248 0.489547 0.103392
C35   C     C_3   0.966981 0.763755 0.488084 0.103622
C36   C     C_3   0.967364 0.236248 0.489070 0.103644
C37   C     C_3   0.500022 0.291325 0.500030 0.088020
C38   C     C_3   0.500013 0.708675 0.500020 0.087643
C39   C     C_3   0.000023 0.791325 0.500031 0.088027
C40   C     C_3   0.000013 0.208675 0.500022 0.087690
C41   C     C_3   0.464289 0.236027 0.446403 -0.231295
C42   C     C_3   0.464045 0.763980 0.446640 -0.230973
C43   C     C_3   0.964540 0.736026 0.446165 -0.230693
C44   C     C_3   0.964200 0.263980 0.446480 -0.231476
C45   C     C_3   0.497444 0.264085 0.457777 -0.145924
C46   C     C_3   0.496905 0.735918 0.457277 -0.147393
C47   C     C_3   0.997991 0.764085 0.458293 -0.145844
C48   C     C_3   0.997254 0.235917 0.457601 -0.147419
C49   C     C_1   0.499916 0.162822 0.499794 0.022657
C50   C     C_1   0.499910 0.837178 0.499791 0.023922
C51   C     C_1   0.999919 0.662822 0.499797 0.022807
C52   C     C_1   0.999911 0.337178 0.499792 0.023733
C53   C     C_1   0.500036 0.337172 0.500041 -0.008965
C54   C     C_1   0.500027 0.662827 0.500032 -0.009107
C55   C     C_1   0.000036 0.837172 0.500043 -0.008964
C56   C     C_1   0.000027 0.162828 0.500033 -0.009170
H13   H     H_    0.434982 0.224346 0.402670 0.165874
H14   H     H_    0.434549 0.775666 0.403110 0.166518
H15   H     H_    0.935434 0.724346 0.402230 0.166414
H16   H     H_    0.934829 0.275666 0.402815 0.165973
C57   C     C_3   0.764241 0.968315 0.788747 -0.219687
C58   C     C_3   0.764218 0.036926 0.779681 -0.220790
C59   C     C_3   0.264238 0.469073 0.789693 -0.219637
C60   C     C_3   0.264221 0.537379 0.778559 -0.220885
C61   C     C_3   0.736245 0.963793 0.721504 0.590575
C62   C     C_3   0.736222 0.031113 0.712609 0.589828
C63   C     C_3   0.236242 0.463367 0.722605 0.590599
C64   C     C_3   0.236225 0.530387 0.711681 0.589737
H17   H     H_    0.775844 0.942362 0.820241 0.174910
H18   H     H_    0.775799 0.067154 0.803749 0.174525
H19   H     H_    0.275838 0.443733 0.821962 0.174875
H20   H     H_    0.275804 0.567970 0.801708 0.174489
C65   C     C_1   0.625048 0.999983 0.625036 -0.130316
C66   C     C_1   0.125049 0.499987 0.625036 -0.130387
C67   C     C_1   0.874939 0.000009 0.875056 -0.163212
C68   C     C_1   0.374939 0.500009 0.875056 -0.163232
C69   C     C_3   0.736341 0.005130 0.775414 0.055230
C70   C     C_3   0.236340 0.506314 0.775241 0.055284
C71   C     C_3   0.708480 0.000002 0.708700 -0.076493
C72   C     C_3   0.208480 0.500015 0.708700 -0.076465
C73   C     C_3   0.791515 0.000022 0.791730 -0.024487
C74   C     C_3   0.291515 0.500027 0.791730 -0.024454
C75   C     C_3   0.763924 0.994870 0.725094 0.005905
C76   C     C_3   0.263924 0.493697 0.725268 0.005900
C77   C     C_1   0.662690 0.999981 0.662724 0.088977
C78   C     C_1   0.162690 0.499988 0.662724 0.088920
C79   C     C_1   0.837297 0.000019 0.837477 0.034120
C80   C     C_1   0.337297 0.500021 0.837478 0.034091
C81   C     C_3   0.236285 0.031184 0.259514 0.623022
C82   C     C_3   0.236290 0.964156 0.251399 0.622911
C83   C     C_3   0.736285 0.534619 0.253997 0.622917
C84   C     C_3   0.736290 0.467174 0.257151 0.623044
C85   C     C_3   0.264171 0.036571 0.248434 -0.183310
C86   C     C_3   0.264176 0.968234 0.240160 -0.184276
C87   C     C_3   0.764171 0.533444 0.242565 -0.183884
C88   C     C_3   0.764176 0.464682 0.245781 -0.183673
H21   H     H_    0.275983 0.066744 0.247850 0.167220
H22   H     H_    0.275992 0.941896 0.232735 0.167451
H23   H     H_    0.775983 0.561132 0.237132 0.167436
H24   H     H_    0.775993 0.435508 0.243009 0.167254
H25   H     H_    0.224493 0.008723 0.152441 0.184460
H26   H     H_    0.724495 0.496612 0.151994 0.184438
C89   C     C_1   0.374840 0.999996 0.374873 -0.159134
C90   C     C_1   0.874840 0.500000 0.374873 -0.159063
C91   C     C_1   0.125142 0.000000 0.125114 -0.133393
C92   C     C_1   0.625142 0.499995 0.125113 -0.133374
C93   C     C_3   0.264031 0.995209 0.303527 -0.283453
C94   C     C_3   0.764030 0.501851 0.303770 -0.283420
C95   C     C_3   0.291322 0.999992 0.291353 0.007365
C96   C     C_3   0.791322 0.499998 0.291352 0.007335
C97   C     C_3   0.208664 0.000037 0.208289 -0.035321
C98   C     C_3   0.708664 0.499978 0.208285 -0.035362
C99   C     C_3   0.236219 0.004795 0.196585 -0.314591
C100  C     C_3   0.736220 0.498135 0.196338 -0.314586
C101  C     C_1   0.337155 0.999993 0.337197 0.025691
C102  C     C_1   0.837155 0.499999 0.337196 0.025760
C103  C     C_1   0.162825 0.000012 0.162666 0.077759
C104  C     C_1   0.662825 0.499989 0.162663 0.077777
H27   H     H_    0.275470 0.991269 0.347484 0.179109
H28   H     H_    0.775469 0.503378 0.347929 0.179163
O17   O     O_R   0.534970 0.500000 0.595520 -0.578697
O18   O     O_R   0.034970 0.000000 0.595520 -0.578718
O19   O     O_R   0.464980 0.500000 0.525470 -0.579122
O20   O     O_R   0.964980 0.000000 0.525470 -0.579096
C105  C     C_R   0.499964 0.500000 0.580331 0.821667
C106  C     C_R   0.999964 1.000000 0.580331 0.821679
O21   O     O_R   0.534980 0.439530 0.535070 -0.578005
O22   O     O_R   0.534980 0.560470 0.535070 -0.578132
O23   O     O_R   0.034980 0.939530 0.535070 -0.578068
O24   O     O_R   0.034980 0.060470 0.535070 -0.578118
O25   O     O_R   0.465000 0.439530 0.465010 -0.576032
O26   O     O_R   0.465000 0.560470 0.465010 -0.575834
O27   O     O_R   0.965000 0.939530 0.465010 -0.575928
O28   O     O_R   0.965000 0.060470 0.465010 -0.575901
C107  C     C_R   0.499993 0.419714 0.500037 0.823576
C108  C     C_R   0.499991 0.580286 0.500035 0.823158
C109  C     C_R   0.999993 0.919714 0.500037 0.823585
C110  C     C_R   0.999991 0.080286 0.500035 0.823161
Cu5   Cu    Cu3+1 0.541430 0.500000 0.541530 0.985949
Cu6   Cu    Cu3+1 0.041430 0.000000 0.541530 0.985872
Cu7   Cu    Cu3+1 0.458550 0.500000 0.458570 0.998759
Cu8   Cu    Cu3+1 0.958550 1.000000 0.458570 0.998803
O29   O     O_R   0.535000 0.500000 0.474630 -0.581655
O30   O     O_R   0.035000 0.000000 0.474630 -0.581675
O31   O     O_R   0.465020 0.500000 0.404580 -0.565872
O32   O     O_R   0.965020 1.000000 0.404580 -0.565865
C111  C     C_R   0.500027 0.500001 0.419835 0.819336
C112  C     C_R   0.000027 0.000001 0.419835 0.819331
O33   O     O_R   0.000030 0.965010 0.060550 -0.574680
O34   O     O_R   0.000030 0.034990 0.060550 -0.575273
O35   O     O_R   0.500030 0.465010 0.060550 -0.574587
O36   O     O_R   0.500030 0.534990 0.060550 -0.575322
C113  C     C_R   0.000021 0.999999 0.080330 0.822921
C114  C     C_R   0.500021 0.499999 0.080330 0.822922
O37   O     O_R   0.939530 0.965000 0.939580 -0.576442
O38   O     O_R   0.939530 0.035000 0.939580 -0.576933
O39   O     O_R   0.439530 0.465000 0.939580 -0.576467
O40   O     O_R   0.439530 0.535000 0.939580 -0.576934
C115  C     C_R   0.919741 0.000002 0.919798 0.817073
C116  C     C_R   0.419741 0.500002 0.919798 0.817078
Cu9   Cu    Cu3+1 0.999990 0.958550 0.000050 1.000248
Cu10  Cu    Cu3+1 0.999990 0.041450 0.000050 0.997100
Cu11  Cu    Cu3+1 0.499990 0.458550 0.000050 0.998814
Cu12  Cu    Cu3+1 0.499990 0.541450 0.000050 0.998556
O41   O     O_R   0.999960 0.964990 0.939550 -0.577707
O42   O     O_R   0.999960 0.035010 0.939550 -0.578252
O43   O     O_R   0.499960 0.464990 0.939550 -0.578226
O44   O     O_R   0.499960 0.535010 0.939550 -0.577769
O45   O     O_R   0.060450 0.965000 0.060520 -0.570617
O46   O     O_R   0.060450 0.035000 0.060520 -0.572906
O47   O     O_R   0.560450 0.465000 0.060520 -0.572080
O48   O     O_R   0.560450 0.535000 0.060520 -0.571376
C117  C     C_R   0.999946 0.000000 0.919690 0.819741
C118  C     C_R   0.499946 0.500000 0.919690 0.819709
C119  C     C_R   0.080272 0.999999 0.080343 0.815268
C120  C     C_R   0.580273 0.499999 0.080342 0.815229
C121  C     C_3   0.020034 0.034081 0.784045 -0.151968
C122  C     C_3   0.019329 0.965512 0.783343 -0.151742
C123  C     C_3   0.519936 0.534138 0.783947 -0.151690
C124  C     C_3   0.519429 0.465568 0.783442 -0.152063
C125  C     C_3   0.480363 0.534433 0.716460 -0.149993
C126  C     C_3   0.479857 0.465862 0.715956 -0.150506
C127  C     C_3   0.980463 0.034490 0.716560 -0.150019
C128  C     C_3   0.979758 0.965920 0.715857 -0.150453
H29   H     H_    0.464291 0.562768 0.688445 0.143581
H30   H     H_    0.463367 0.437769 0.687525 0.143305
H31   H     H_    0.964472 0.062871 0.688627 0.143532
H32   H     H_    0.963188 0.937876 0.687346 0.143438
H33   H     H_    0.036605 0.062126 0.812556 0.143361
H34   H     H_    0.035321 0.937131 0.811276 0.143727
H35   H     H_    0.536426 0.562231 0.812377 0.143653
H36   H     H_    0.535502 0.437233 0.811457 0.143395
H37   H     H_    0.927754 0.000747 0.703667 0.142199
H38   H     H_    0.427753 0.500538 0.703666 0.142200
C129  C     C_1   0.499937 0.500000 0.625228 -0.159819
C130  C     C_1   0.999937 0.000000 0.625228 -0.159801
C131  C     C_1   0.999919 0.000001 0.874739 -0.159406
C132  C     C_1   0.499919 0.500001 0.874739 -0.159442
C133  C     C_3   0.539472 0.499705 0.775594 -0.153980
C134  C     C_3   0.039471 0.999592 0.775593 -0.153985
C135  C     C_3   0.499901 0.500000 0.708801 0.176670
C136  C     C_3   0.999900 0.000001 0.708801 0.176641
C137  C     C_3   0.999892 0.000001 0.791103 0.176293
C138  C     C_3   0.499892 0.500001 0.791103 0.176307
C139  C     C_3   0.960320 0.000410 0.724310 -0.151382
C140  C     C_3   0.460320 0.500295 0.724309 -0.151377
C141  C     C_1   0.499917 0.500000 0.662928 -0.057156
C142  C     C_1   0.999917 0.000000 0.662928 -0.057129
C143  C     C_1   0.999901 0.000001 0.837001 -0.057620
C144  C     C_1   0.499901 0.500001 0.837001 -0.057658
H39   H     H_    0.572040 0.499463 0.796242 0.142356
H40   H     H_    0.072038 0.999255 0.796240 0.142362
C145  C     C_3   0.021950 0.967357 0.258113 0.098991
C146  C     C_3   0.017626 0.035177 0.253784 0.099430
C147  C     C_3   0.522158 0.467498 0.258320 0.098632
C148  C     C_3   0.517400 0.535289 0.253559 0.099627
C149  C     C_3   0.483067 0.464860 0.247065 0.624251
C150  C     C_3   0.478325 0.532443 0.242318 0.623819
C151  C     C_3   0.982844 0.964968 0.246841 0.624264
C152  C     C_3   0.978533 0.032581 0.242526 0.623776
H41   H     H_    0.927511 0.995384 0.152345 0.187286
H42   H     H_    0.427541 0.494922 0.152375 0.187290
C153  C     C_1   0.500093 0.500011 0.375099 -0.133506
C154  C     C_1   0.000093 0.000010 0.375099 -0.133522
C155  C     C_1   0.999955 0.999998 0.125060 -0.158939
C156  C     C_1   0.499954 0.499998 0.125060 -0.158942
C157  C     C_3   0.540157 0.502824 0.304210 -0.314762
C158  C     C_3   0.040174 0.002567 0.304227 -0.314719
C159  C     C_3   0.500504 0.500042 0.292099 -0.097121
C160  C     C_3   0.000504 0.000039 0.292100 -0.097157
C161  C     C_3   0.999911 0.999999 0.208464 -0.000329
C162  C     C_3   0.499910 0.499999 0.208464 -0.000325
C163  C     C_3   0.960234 0.997470 0.196374 -0.350282
C164  C     C_3   0.460250 0.497217 0.196390 -0.350261
C165  C     C_1   0.500239 0.500023 0.337597 0.091279
C166  C     C_1   0.000239 0.000021 0.337597 0.091276
C167  C     C_1   0.999897 0.999996 0.162643 0.033058
C168  C     C_1   0.499896 0.499996 0.162643 0.033031
H43   H     H_    0.572833 0.505117 0.348310 0.187211
H44   H     H_    0.072864 0.004651 0.348342 0.187240
C169  C     C_3   0.720576 0.010974 0.804058 -0.771006
H45   H     H_    0.701230 0.039703 0.786512 0.239022
H46   H     H_    0.701380 0.983609 0.794098 0.239852
H47   H     H_    0.747519 0.013909 0.852638 0.238998
C170  C     C_3   0.220575 0.513504 0.803686 -0.771167
H48   H     H_    0.201226 0.542273 0.785263 0.238912
H49   H     H_    0.201383 0.486430 0.794557 0.239892
H50   H     H_    0.247518 0.517099 0.852166 0.239028
F1    F     F_    0.221460 0.063734 0.268925 -0.635793
F2    F     F_    0.221470 0.926758 0.252341 -0.635103
F3    F     F_    0.721459 0.570749 0.257651 -0.635319
F4    F     F_    0.721470 0.432921 0.264098 -0.635425
F5    F     F_    0.465682 0.428160 0.244442 -0.634832
F6    F     F_    0.455984 0.566357 0.234735 -0.634705
F7    F     F_    0.965224 0.928379 0.243984 -0.634743
F8    F     F_    0.956408 0.066637 0.235160 -0.634809
C171  C     C_3   0.046332 0.929794 0.266694 -0.738272
H51   H     H_    0.058459 0.911615 0.305755 0.242600
H52   H     H_    0.025575 0.909596 0.226856 0.244139
H53   H     H_    0.072915 0.940560 0.273793 0.227463
C172  C     C_3   0.037039 0.075531 0.257393 -0.739804
H54   H     H_    0.046760 0.095104 0.294046 0.242292
H55   H     H_    0.064774 0.068228 0.265645 0.228002
H56   H     H_    0.013885 0.092930 0.215156 0.243626
C173  C     C_3   0.546779 0.430092 0.267141 -0.737417
H57   H     H_    0.559022 0.411990 0.306318 0.242632
H58   H     H_    0.526152 0.409762 0.227432 0.244065
H59   H     H_    0.573292 0.441027 0.274171 0.227805
C174  C     C_3   0.536556 0.575767 0.256910 -0.740361
H60   H     H_    0.546151 0.595401 0.293437 0.242304
H61   H     H_    0.564337 0.568641 0.265208 0.227593
H62   H     H_    0.513291 0.593017 0.214562 0.243740
C175  C     C_3   0.430173 0.279442 0.476872 -0.785047
H63   H     H_    0.412031 0.252451 0.470767 0.248400
H64   H     H_    0.441402 0.298546 0.514786 0.244039
H65   H     H_    0.409781 0.298875 0.436243 0.230665
C176  C     C_3   0.430794 0.720565 0.478423 -0.783441
H66   H     H_    0.412816 0.747559 0.472723 0.248710
H67   H     H_    0.410133 0.701136 0.437799 0.230881
H68   H     H_    0.442378 0.701458 0.516540 0.243878
C177  C     C_3   0.929538 0.779441 0.475270 -0.783804
H69   H     H_    0.911232 0.752450 0.468751 0.248637
H70   H     H_    0.940398 0.798546 0.512968 0.243945
H71   H     H_    0.909426 0.798874 0.434643 0.230848
C178  C     C_3   0.930378 0.220566 0.477397 -0.784158
H72   H     H_    0.912293 0.247560 0.471432 0.248530
H73   H     H_    0.909893 0.201137 0.436768 0.230733
H74   H     H_    0.941728 0.201459 0.515380 0.244036
F9    F     F_    0.504667 0.221248 0.584023 -0.647353
F10   F     F_    0.505720 0.778746 0.585008 -0.646455
F11   F     F_    0.003577 0.721249 0.582989 -0.647320
F12   F     F_    0.005023 0.278746 0.584359 -0.646427
F13   F     F_    0.721656 0.926298 0.691147 -0.635347
F14   F     F_    0.721608 0.063235 0.673052 -0.635550
F15   F     F_    0.221650 0.425412 0.693388 -0.635387
F16   F     F_    0.221614 0.561740 0.671165 -0.635577
C179  C     C_3   0.779429 0.989012 0.696094 -0.709605
H75   H     H_    0.798817 0.960319 0.713598 0.233214
H76   H     H_    0.752365 0.986010 0.647554 0.253637
H77   H     H_    0.798524 0.016403 0.705818 0.232285
C180  C     C_3   0.279430 0.486493 0.696466 -0.709596
H78   H     H_    0.298762 0.457718 0.714772 0.233372
H79   H     H_    0.252365 0.482908 0.648016 0.253610
H80   H     H_    0.298581 0.513556 0.705446 0.232133

loop_
_geom_bond_atom_site_label_1
_geom_bond_atom_site_label_2
_geom_bond_distance
_ccdc_geom_bond_type
C19   C51   1.205676 T    
H37   C139  1.110103 S    
C68   C80   1.204774 T    
C32   C44   1.542412 S    
C1    C65   1.433966 S    
C180  H78   1.109713 S    
Cu5   Cu7   2.652677 S    
C147  C173  1.519543 S    
O38   C115  1.286504 A    
C82   C93   1.543994 S    
O18   C106  1.287547 A    
C59   C63   1.549175 S    
C174  H62   1.109738 S    
Cu11  O47   1.946085 S    
C9    C13   1.554576 S    
C169  H47   1.109668 S    
Cu9   O45   1.946085 S    
C11   C27   1.543694 S    
C20   C52   1.205677 T    
C32   C52   1.466184 S    
O23   Cu6   1.945702 S    
O9    C3    1.286722 A    
C86   C99   1.555075 S    
O10   C4    1.286723 A    
O8    Cu2   1.945369 S    
O34   Cu10  1.945430 S    
Cu12  O48   1.946061 S    
C94   H28   1.110037 S    
C27   F11   1.382697 S    
O5    C3    1.286813 A    
C154  C166  1.204544 T    
O6    C4    1.286812 A    
C134  H40   1.110098 S    
C128  C136  1.536943 S    
C66   C78   1.204773 T    
C60   C74   1.547763 S    
C151  F7    1.382671 S    
C125  C135  1.536945 S    
C152  F8    1.382676 S    
C34   C176  1.519750 S    
C148  C150  1.538254 S    
C9    C37   1.542889 S    
O27   C109  1.286960 A    
H26   C100  1.110061 S    
O28   Cu8   1.945698 S    
O26   C108  1.286960 A    
C28   F12   1.382699 S    
C16   C48   1.553682 S    
C57   H17   1.110078 S    
C63   C76   1.538813 S    
C145  C171  1.519546 S    
C174  H60   1.109669 S    
O34   C113  1.286124 A    
C178  H74   1.109775 S    
Cu1   O13   1.946006 S    
C121  C137  1.536932 S    
C96   C102  1.466938 S    
C148  C157  1.550934 S    
C36   C40   1.533774 S    
C123  H35   1.110086 S    
C134  C136  1.536929 S    
C150  F6    1.382665 S    
O26   Cu7   1.945698 S    
C122  C137  1.536934 S    
C123  C133  1.549571 S    
O5    Cu1   1.945356 S    
C60   H20   1.110096 S    
C126  C135  1.536942 S    
H25   C99   1.110068 S    
C61   F13   1.382614 S    
C180  H80   1.109723 S    
C63   F15   1.382615 S    
C161  C163  1.548855 S    
H42   C164  1.109959 S    
C125  H29   1.110086 S    
C58   C69   1.549898 S    
C26   F10   1.382702 S    
C94   C96   1.543214 S    
C157  C159  1.547878 S    
C25   C29   1.530803 S    
C30   C50   1.466184 S    
C86   C95   1.542382 S    
C27   C31   1.530804 S    
O36   C114  1.286126 A    
C28   C32   1.530801 S    
C42   H14   1.110120 S    
O20   C106  1.287536 A    
C135  C141  1.468224 S    
C34   C38   1.533777 S    
O8    C6    1.286815 A    
O10   Cu3   1.945008 S    
O21   C107  1.286869 A    
O22   C108  1.286867 A    
C87   H23   1.110060 S    
C95   C101  1.466938 S    
Cu11  Cu12  2.652343 S    
C85   H21   1.110075 S    
C97   C103  1.467149 S    
C58   H18   1.110101 S    
C41   C45   1.555037 S    
C13   C29   1.541547 S    
Cu9   Cu10  2.652343 S    
C86   H22   1.110064 S    
C21   C53   1.205577 T    
C16   C32   1.541549 S    
C43   C47   1.555036 S    
C148  C162  1.538872 S    
C147  C149  1.538250 S    
C69   C169  1.519446 S    
C122  H34   1.110084 S    
C117  C131  1.437345 S    
C76   C180  1.519692 S    
C24   C56   1.205577 T    
C39   C47   1.541990 S    
C35   C43   1.545493 S    
C3    C17   1.435377 S    
C121  C127  1.549594 S    
C11   H7    1.109982 S    
C12   C16   1.554570 S    
Cu1   Cu3   2.651749 S    
C130  C142  1.206860 T    
C69   C71   1.538426 S    
C122  C128  1.549594 S    
C177  H70   1.109772 S    
C62   F14   1.382596 S    
C34   C42   1.545496 S    
C145  C158  1.550933 S    
C137  C143  1.468227 S    
C98   C104  1.467143 S    
C27   C35   1.533943 S    
C25   F9    1.382701 S    
C175  H64   1.109775 S    
C127  C139  1.549614 S    
Cu7   O31   1.945534 S    
C151  C163  1.548842 S    
C152  C160  1.535590 S    
C70   C170  1.519451 S    
O23   C109  1.286870 A    
C11   C39   1.542886 S    
C170  H48   1.109746 S    
C173  H58   1.109738 S    
C81   F1    1.382446 S    
C82   C97   1.531248 S    
C124  C138  1.536935 S    
C58   C73   1.547754 S    
Cu6   Cu8   2.652677 S    
Cu11  O43   1.945676 S    
C84   F4    1.382460 S    
C12   H8    1.109995 S    
O6    Cu1   1.945369 S    
C10   C14   1.554564 S    
O48   C120  1.287049 A    
C125  C140  1.549618 S    
C126  H30   1.110088 S    
O35   C114  1.286119 A    
C22   C54   1.205577 T    
C92   C120  1.436102 S    
O27   Cu8   1.945678 S    
O9    Cu3   1.945013 S    
C81   C85   1.543142 S    
C172  H54   1.109672 S    
C132  C144  1.206853 T    
O4    Cu4   1.946290 S    
C83   C87   1.543126 S    
C171  H51   1.109669 S    
C136  C142  1.468224 S    
C90   C102  1.206139 T    
O28   C110  1.286963 A    
C89   C101  1.206139 T    
O46   C119  1.287038 A    
C42   C46   1.555032 S    
C155  C167  1.204331 T    
Cu2   Cu4   2.651749 S    
C145  C161  1.538875 S    
C57   C61   1.549176 S    
C37   C53   1.466856 S    
C124  H36   1.110087 S    
Cu3   O15   1.945778 S    
C162  C168  1.465571 S    
C9    H5    1.110001 S    
C10   H6    1.109996 S    
C44   C48   1.555037 S    
C22   C108  1.435284 S    
C74   C76   1.538507 S    
C36   C44   1.545498 S    
O47   C120  1.287040 A    
O11   C5    1.286723 A    
C71   C77   1.465569 S    
C7    C89   1.436133 S    
C81   C93   1.543996 S    
C40   C48   1.541985 S    
C85   C99   1.555072 S    
C93   C95   1.543199 S    
C88   C100  1.555077 S    
C62   C75   1.538804 S    
Cu10  O42   1.945685 S    
C31   C43   1.542409 S    
C60   C64   1.549164 S    
C93   H27   1.110047 S    
C169  H46   1.109761 S    
C23   C55   1.205577 T    
C70   C72   1.538428 S    
O30   C112  1.286364 A    
O24   Cu6   1.945675 S    
C170  H50   1.109663 S    
C67   C115  1.433958 S    
C122  C134  1.549574 S    
C68   C116  1.433958 S    
H9    C45   1.110034 S    
C73   C75   1.538511 S    
O37   Cu9   1.946055 S    
Cu6   O30   1.945595 S    
C57   C69   1.549892 S    
O25   Cu7   1.945678 S    
C26   C30   1.530804 S    
O19   C105  1.287536 A    
C121  H33   1.110086 S    
O41   C117  1.287588 A    
C64   C76   1.538803 S    
C5    C19   1.435380 S    
C6    C20   1.435380 S    
C12   C40   1.542890 S    
O20   Cu8   1.945591 S    
O21   Cu5   1.945702 S    
O1    C1    1.286415 A    
C4    C18   1.435380 S    
C172  H56   1.109735 S    
C61   C71   1.536581 S    
C118  C132  1.437339 S    
C58   C62   1.549171 S    
C59   C74   1.547768 S    
Cu10  O46   1.946061 S    
C14   C30   1.541553 S    
C171  H53   1.109711 S    
C173  H57   1.109670 S    
C17   C49   1.205680 T    
C178  H73   1.109716 S    
C81   C97   1.531255 S    
C73   C79   1.465320 S    
C37   C45   1.541991 S    
C83   C98   1.531246 S    
O35   Cu11  1.945439 S    
O33   Cu9   1.945439 S    
Cu8   O32   1.945534 S    
C84   C88   1.543127 S    
C24   C110  1.435284 S    
C180  H79   1.109667 S    
C145  C151  1.538243 S    
O42   C117  1.287593 A    
C65   C77   1.204773 T    
C127  C136  1.536946 S    
C67   C79   1.204771 T    
C10   C38   1.542893 S    
C174  H61   1.109714 S    
O1    Cu1   1.946131 S    
O2    Cu2   1.946131 S    
O14   C8    1.286959 A    
C148  C174  1.519540 S    
C150  C164  1.548843 S    
C98   C100  1.542521 S    
H10   C46   1.110035 S    
C124  C133  1.549572 S    
C61   C75   1.538812 S    
C29   C41   1.542411 S    
O36   Cu12  1.945430 S    
C60   C70   1.549902 S    
O43   C118  1.287589 A    
C13   H1    1.110059 S    
C31   C51   1.466183 S    
C121  C134  1.549575 S    
C158  H44   1.110199 S    
C15   H3    1.110063 S    
C127  H31   1.110086 S    
C131  C143  1.206847 T    
O39   Cu11  1.946055 S    
O7    Cu2   1.945356 S    
O24   C110  1.286864 A    
C129  C141  1.206860 T    
O45   C119  1.287051 A    
C133  C135  1.536927 S    
C57   C73   1.547766 S    
C82   F2    1.382458 S    
C39   C55   1.466856 S    
C75   C179  1.519689 S    
C113  C155  1.433287 S    
C124  C126  1.549595 S    
C64   C72   1.536579 S    
C11   C15   1.554574 S    
O4    C2    1.286430 A    
C12   C28   1.543694 S    
C18   C50   1.205673 T    
C133  H39   1.110092 S    
O40   C116  1.286502 A    
C126  C140  1.549617 S    
C8    C90   1.436133 S    
C84   C94   1.543996 S    
C25   C33   1.533945 S    
O3    C1    1.286433 A    
C59   C70   1.549898 S    
O32   C112  1.286537 A    
C157  H43   1.110200 S    
C146  C172  1.519543 S    
C41   H13   1.110122 S    
O12   Cu4   1.945008 S    
C177  H69   1.109694 S    
C33   C37   1.533772 S    
O22   Cu5   1.945675 S    
C138  C140  1.536937 S    
O11   Cu4   1.945013 S    
C35   C39   1.533774 S    
O17   C105  1.287547 A    
C156  C168  1.204331 T    
C146  C158  1.550933 S    
C105  C129  1.437340 S    
C87   C100  1.555078 S    
C28   C36   1.533944 S    
C162  C164  1.548852 S    
C175  H63   1.109699 S    
Cu4   O16   1.945778 S    
C30   C42   1.542413 S    
C29   C49   1.466183 S    
C23   C109  1.435281 S    
C74   C80   1.465313 S    
H38   C140  1.110093 S    
C38   C46   1.541983 S    
C179  H75   1.109716 S    
O12   C6    1.286720 A    
H11   C47   1.110020 S    
Cu12  O44   1.945685 S    
C13   C45   1.553682 S    
C112  C154  1.433473 S    
C146  C152  1.538246 S    
C176  H66   1.109697 S    
C92   C104  1.206116 T    
C153  C165  1.204541 T    
C36   C178  1.519747 S    
C128  C139  1.549617 S    
C159  C165  1.464194 S    
C160  C166  1.464191 S    
C138  C144  1.468224 S    
C10   C26   1.543698 S    
C33   C41   1.545499 S    
C123  C138  1.536936 S    
C15   C47   1.553685 S    
C15   C31   1.541548 S    
C26   C34   1.533944 S    
Cu2   O14   1.946006 S    
C59   H19   1.110081 S    
O13   C7    1.286959 A    
O37   C115  1.286525 A    
C147  C162  1.538871 S    
O40   Cu12  1.946078 S    
O19   Cu7   1.945591 S    
O38   Cu10  1.946078 S    
C149  F5    1.382665 S    
C137  C139  1.536936 S    
C91   C103  1.206109 T    
O2    C2    1.286418 A    
C88   H24   1.110057 S    
C40   C56   1.466856 S    
C21   C107  1.435284 S    
C2    C66   1.433966 S    
C35   C177  1.519747 S    
C16   H4    1.110064 S    
C158  C160  1.547882 S    
C85   C95   1.542379 S    
O33   C113  1.286118 A    
C177  H71   1.109713 S    
O29   C111  1.286365 A    
C173  H59   1.109715 S    
H41   C163  1.109958 S    
Cu5   O29   1.945595 S    
C83   C94   1.543992 S    
C87   C96   1.542378 S    
C149  C164  1.548842 S    
C82   C86   1.543142 S    
O39   C116  1.286527 A    
O25   C107  1.286958 A    
C150  C159  1.535583 S    
C161  C167  1.465571 S    
C175  H65   1.109712 S    
O17   Cu5   1.945179 S    
C169  H45   1.109754 S    
C179  H76   1.109668 S    
O18   Cu6   1.945179 S    
C33   C175  1.519745 S    
C44   H16   1.110118 S    
O7    C5    1.286814 A    
C123  C125  1.549593 S    
C170  H49   1.109750 S    
C179  H77   1.109733 S    
O3    Cu3   1.946290 S    
C38   C54   1.466852 S    
C106  C130  1.437340 S    
C91   C119  1.436105 S    
C176  H68   1.109775 S    
C97   C99   1.542501 S    
O44   C118  1.287594 A    
C62   C71   1.536580 S    
C14   H2    1.110067 S    
C9    C25   1.543694 S    
C147  C157  1.550937 S    
C43   H15   1.110106 S    
O15   C7    1.286958 A    
O16   C8    1.286958 A    
H12   C48   1.110029 S    
C111  C153  1.433476 S    
C172  H55   1.109707 S    
C83   F3    1.382454 S    
C14   C46   1.553680 S    
C72   C78   1.465566 S    
C176  H67   1.109716 S    
C114  C156  1.433287 S    
Cu9   O41   1.945676 S    
C63   C72   1.536578 S    
C64   F16   1.382601 S    
C171  H52   1.109736 S    
O31   C111  1.286532 A    
C178  H72   1.109698 S    
C151  C160  1.535597 S    
C152  C163  1.548839 S    
C84   C98   1.531248 S    
C149  C159  1.535593 S    
C128  H32   1.110087 S    
C88   C96   1.542380 S    
C146  C161  1.538875 S    
