data_mof_unit_25344.cif
_audit_creation_date              2012-12-11T15:39:19-0500
_audit_creation_method            fapswitch 2.2
_symmetry_space_group_name_H-M    P1
_symmetry_Int_Tables_number       1
_space_group_crystal_system       triclinic
_cell_length_a                    17.361631
_cell_length_b                    24.408498
_cell_length_c                    14.833788
_cell_angle_alpha                 88.986407
_cell_angle_beta                  125.541418
_cell_angle_gamma                 91.386021
_cell_volume                      5113.45180847

loop_
_atom_site_label
_atom_site_type_symbol
_atom_type_description
_atom_site_fract_x
_atom_site_fract_y
_atom_site_fract_z
_atom_type_partial_charge
C1    C     C_R   0.310178 0.374469 0.908703 -0.123960
C2    C     C_R   0.650734 0.350059 0.093575 -0.156703
C3    C     C_R   0.810178 0.874469 0.908703 -0.123979
C4    C     C_R   0.150715 0.850055 0.093579 -0.156725
C5    C     C_R   0.329738 0.652218 0.000044 0.049255
C6    C     C_R   0.612175 0.686027 0.000376 0.101482
C7    C     C_R   0.829665 0.152151 0.000052 0.049036
C8    C     C_R   0.112179 0.186026 0.000376 0.101469
C9    C     C_R   0.566592 0.498406 0.370462 0.213471
C10   C     C_R   0.555877 0.501327 0.730645 0.199542
C11   C     C_R   0.066612 0.998404 0.370470 0.213461
C12   C     C_R   0.055870 0.001330 0.730636 0.199576
C13   C     C_R   0.196058 0.501354 0.632690 0.083145
C14   C     C_R   0.825045 0.502397 0.276340 0.070823
C15   C     C_R   0.696059 0.001354 0.632688 0.083153
C16   C     C_R   0.325045 0.002397 0.276339 0.070820
C17   C     C_R   0.070783 0.553842 0.469669 0.159209
C18   C     C_R   0.977411 0.554419 0.379409 0.170173
C19   C     C_R   0.570784 0.053841 0.469668 0.159200
C20   C     C_R   0.477412 0.054418 0.379409 0.170168
C21   C     C_R   0.116211 0.504025 0.516130 0.019787
C22   C     C_R   0.927381 0.505113 0.332740 0.020937
C23   C     C_R   0.616212 0.004024 0.516128 0.019782
C24   C     C_R   0.427381 0.005112 0.332740 0.020931
C25   C     C_R   0.074288 0.456208 0.452613 -0.185331
C26   C     C_R   0.979696 0.456848 0.360129 -0.181742
C27   C     C_R   0.574288 0.956207 0.452612 -0.185326
C28   C     C_R   0.479696 0.956847 0.360129 -0.181740
C29   C     C_3   0.956774 0.602556 0.423244 -0.521309
C30   C     C_3   0.058984 0.602062 0.521402 -0.512482
C31   C     C_3   0.456775 0.102555 0.423245 -0.521300
C32   C     C_3   0.558986 0.102061 0.521401 -0.512467
C33   C     C_R   0.179524 0.688961 0.938723 -0.176768
C34   C     C_R   0.712675 0.765556 0.105212 -0.190243
C35   C     C_R   0.679474 0.188914 0.938783 -0.176770
C36   C     C_R   0.212676 0.265556 0.105213 -0.190213
C37   C     C_R   0.626890 0.229573 0.940441 -0.161407
C38   C     C_R   0.264885 0.309100 0.106099 -0.147908
C39   C     C_R   0.126917 0.729596 0.940400 -0.161423
C40   C     C_R   0.764885 0.809099 0.106098 -0.147928
C41   C     C_R   0.674206 0.275230 0.006087 0.141015
C42   C     C_R   0.240975 0.331650 0.005779 0.132756
C43   C     C_R   0.174210 0.775239 0.006101 0.141040
C44   C     C_R   0.740975 0.831650 0.005778 0.132761
C45   C     C_R   0.411467 0.632193 0.093417 -0.090130
C46   C     C_R   0.555633 0.652860 0.908587 -0.076496
C47   C     C_R   0.911416 0.132143 0.093417 -0.090093
C48   C     C_R   0.055634 0.152860 0.908587 -0.076422
C49   C     C_R   0.772158 0.282001 0.067613 -0.251306
C50   C     C_R   0.152031 0.319533 0.908001 -0.241039
C51   C     C_R   0.272163 0.782022 0.067665 -0.251302
C52   C     C_R   0.652031 0.819533 0.908000 -0.241065
C53   C     C_R   0.325341 0.743118 0.062921 -0.065721
C54   C     C_R   0.595724 0.777326 0.907401 -0.070698
C55   C     C_R   0.825313 0.243073 0.062886 -0.065712
C56   C     C_R   0.095724 0.277326 0.907401 -0.070668
C57   C     C_R   0.277832 0.695640 0.000340 0.065861
C58   C     C_R   0.634883 0.744820 0.004155 0.082951
C59   C     C_R   0.777782 0.195584 0.000359 0.065878
C60   C     C_R   0.134885 0.244820 0.004155 0.082825
C61   C     C_R   0.624250 0.549970 0.639760 0.443736
C62   C     C_R   0.632569 0.546397 0.551050 0.394413
C63   C     C_R   0.124227 0.049976 0.639727 0.443857
C64   C     C_R   0.132582 0.046397 0.551048 0.394433
C65   C     C_R   0.603559 0.497217 0.489255 -0.372534
C66   C     C_R   0.607920 0.501227 0.679265 -0.353297
C67   C     C_R   0.103587 0.997216 0.489265 -0.372573
C68   C     C_R   0.107908 0.001233 0.679248 -0.353401
C69   C     C_R   0.604179 0.448133 0.542018 0.469986
C70   C     C_R   0.622361 0.450821 0.646464 0.390556
C71   C     C_R   0.104210 0.948133 0.542033 0.470012
C72   C     C_R   0.122370 0.950826 0.646469 0.390542
C73   C     C_R   0.551880 0.453835 0.305426 -0.149719
C74   C     C_R   0.519984 0.455087 0.752027 -0.160760
C75   C     C_R   0.051886 0.953834 0.305428 -0.149708
C76   C     C_R   0.019980 0.955089 0.752021 -0.160724
C77   C     C_R   0.245964 0.546245 0.697080 -0.162445
C78   C     C_R   0.767233 0.547164 0.246371 -0.150005
C79   C     C_R   0.745966 0.046244 0.697078 -0.162472
C80   C     C_R   0.267233 0.047163 0.246371 -0.150011
C81   C     C_R   0.547463 0.544556 0.304249 -0.152494
C82   C     C_R   0.523246 0.546543 0.754915 -0.127554
C83   C     C_R   0.047478 0.044555 0.304257 -0.152548
C84   C     C_R   0.023246 0.046544 0.754918 -0.127630
C85   C     C_R   0.243323 0.455136 0.695066 -0.135613
C86   C     C_R   0.769080 0.455421 0.251245 -0.119170
C87   C     C_R   0.743324 0.955135 0.695066 -0.135606
C88   C     C_R   0.269080 0.955421 0.251243 -0.119169
C89   C     C_R   0.319286 0.633612 0.906488 -0.050527
C90   C     C_R   0.643947 0.652917 0.091584 -0.137519
C91   C     C_R   0.819240 0.133571 0.906493 -0.050394
C92   C     C_R   0.143950 0.152917 0.091585 -0.137545
C93   C     C_R   0.403491 0.374930 0.093975 -0.128388
C94   C     C_R   0.559274 0.349302 0.909128 -0.133105
C95   C     C_R   0.903491 0.874930 0.093975 -0.128385
C96   C     C_R   0.059266 0.849299 0.909133 -0.133094
C97   C     C_R   0.313502 0.361097 0.002485 0.049435
C98   C     C_R   0.623445 0.320184 0.002543 0.051954
C99   C     C_R   0.813502 0.861097 0.002485 0.049440
C100  C     C_R   0.123424 0.820178 0.002551 0.051968
H1    H     H_    0.251483 0.368741 0.823133 0.103251
H2    H     H_    0.694393 0.336923 0.179264 0.111142
H3    H     H_    0.751483 0.868740 0.823133 0.103247
H4    H     H_    0.194373 0.836922 0.179271 0.111143
H5    H     H_    0.938666 0.639671 0.370383 0.193718
H6    H     H_    0.067735 0.591877 0.600243 0.199132
H7    H     H_    0.438666 0.139670 0.370384 0.193721
H8    H     H_    0.567737 0.091875 0.600243 0.199131
H9    H     H_    0.907900 0.592526 0.446966 0.195141
H10   H     H_    0.099687 0.638745 0.524510 0.196335
H11   H     H_    0.407902 0.092525 0.446967 0.195138
H12   H     H_    0.599689 0.138744 0.524509 0.196338
H13   H     H_    0.144157 0.652421 0.889970 0.121228
H14   H     H_    0.740971 0.744877 0.183213 0.112419
H15   H     H_    0.644088 0.152365 0.890071 0.121237
H16   H     H_    0.240972 0.244877 0.183214 0.112430
H17   H     H_    0.550424 0.225656 0.891499 0.120300
H18   H     H_    0.329412 0.320156 0.184729 0.100267
H19   H     H_    0.050451 0.725674 0.891426 0.120283
H20   H     H_    0.829412 0.820155 0.184728 0.100273
H21   H     H_    0.806261 0.319556 0.113301 0.148372
H22   H     H_    0.127781 0.341633 0.832197 0.152244
H23   H     H_    0.306250 0.819568 0.113394 0.148357
H24   H     H_    0.627782 0.841633 0.832197 0.152249
H25   H     H_    0.442598 0.641750 0.179126 0.089253
H26   H     H_    0.512257 0.665324 0.822834 0.090983
H27   H     H_    0.942536 0.141687 0.179125 0.089236
H28   H     H_    0.012257 0.165324 0.822834 0.090977
H29   H     H_    0.575234 0.412530 0.332410 0.172380
H30   H     H_    0.526178 0.412781 0.739010 0.166689
H31   H     H_    0.075237 0.912528 0.332408 0.172372
H32   H     H_    0.026174 0.912783 0.739001 0.166679
H33   H     H_    0.240108 0.588116 0.669393 0.106934
H34   H     H_    0.785685 0.589829 0.249163 0.112544
H35   H     H_    0.740111 0.088115 0.669389 0.106941
H36   H     H_    0.285686 0.089829 0.249164 0.112547
H37   H     H_    0.560175 0.586876 0.329238 0.166370
H38   H     H_    0.535685 0.589125 0.747960 0.148953
H39   H     H_    0.060201 0.086874 0.329251 0.166363
H40   H     H_    0.035695 0.089126 0.747983 0.148991
H41   H     H_    0.231756 0.413612 0.665087 0.093019
H42   H     H_    0.791120 0.413406 0.263741 0.099782
H43   H     H_    0.731757 0.913611 0.665087 0.093012
H44   H     H_    0.291118 0.913405 0.263736 0.099782
H45   H     H_    0.266300 0.644531 0.820975 0.092783
H46   H     H_    0.678081 0.665980 0.176115 0.089091
H47   H     H_    0.766243 0.144483 0.820982 0.092764
H48   H     H_    0.178086 0.165979 0.176116 0.089094
H49   H     H_    0.431836 0.370604 0.180400 0.094300
H50   H     H_    0.518938 0.335311 0.824301 0.103354
H51   H     H_    0.931836 0.870605 0.180400 0.094286
H52   H     H_    0.018939 0.835311 0.824304 0.103337
H53   H     H_    0.109528 0.417266 0.480774 0.138475
H54   H     H_    0.945437 0.418346 0.320270 0.144119
H55   H     H_    0.609529 0.917265 0.480772 0.138479
H56   H     H_    0.445437 0.918345 0.320270 0.144131
N1    N     N_R   0.394180 0.396910 0.943210 -0.040641
N2    N     N_R   0.605820 0.396910 0.056790 -0.038435
N3    N     N_R   0.894180 0.896910 0.943210 -0.040639
N4    N     N_R   0.105820 0.896910 0.056790 -0.038436
N5    N     N_R   0.450950 0.603070 0.056740 -0.036366
N6    N     N_R   0.549050 0.603070 0.943260 -0.047597
N7    N     N_R   0.950950 0.103070 0.056740 -0.036323
N8    N     N_R   0.049050 0.103070 0.943260 -0.047609
N9    N     N_R   0.525650 0.471570 0.206150 -0.056701
N10   N     N_R   0.474350 0.471570 0.793850 -0.052985
N11   N     N_R   0.025650 0.971570 0.206150 -0.056698
N12   N     N_R   0.974350 0.971570 0.793850 -0.052988
N13   N     N_R   0.319480 0.528420 0.793810 -0.043031
N14   N     N_R   0.680520 0.528420 0.206190 -0.041310
N15   N     N_R   0.819480 0.028420 0.793810 -0.043038
N16   N     N_R   0.180520 0.028420 0.206190 -0.041310
N17   N     N_R   0.525640 0.528390 0.206120 -0.055860
N18   N     N_R   0.474360 0.528390 0.793880 -0.056377
N19   N     N_R   0.025640 0.028390 0.206120 -0.055858
N20   N     N_R   0.974360 0.028390 0.793880 -0.056377
N21   N     N_R   0.319490 0.471590 0.793840 -0.040558
N22   N     N_R   0.680510 0.471590 0.206160 -0.041574
N23   N     N_R   0.819490 0.971590 0.793840 -0.040558
N24   N     N_R   0.180510 0.971590 0.206160 -0.041573
N25   N     N_R   0.394130 0.603080 0.943110 -0.039506
N26   N     N_R   0.605870 0.603080 0.056890 -0.041381
N27   N     N_R   0.894130 0.103080 0.943110 -0.039471
N28   N     N_R   0.105870 0.103080 0.056890 -0.041378
N29   N     N_R   0.450990 0.396900 0.056840 -0.039268
N30   N     N_R   0.549010 0.396900 0.943160 -0.040354
N31   N     N_R   0.950990 0.896900 0.056840 -0.039266
N32   N     N_R   0.049010 0.896900 0.943160 -0.040355
Ni1   Ni    Ni4+2 0.434860 0.434850 0.869700 0.208758
Ni2   Ni    Ni4+2 0.565140 0.434850 0.130300 0.216128
Ni3   Ni    Ni4+2 0.934860 0.934850 0.869700 0.208746
Ni4   Ni    Ni4+2 0.065140 0.934850 0.130300 0.216124
Ni5   Ni    Ni4+2 0.565130 0.565140 0.130240 0.221915
Ni6   Ni    Ni4+2 0.434870 0.565140 0.869760 0.224574
Ni7   Ni    Ni4+2 0.065130 0.065140 0.130240 0.221923
Ni8   Ni    Ni4+2 0.934870 0.065140 0.869760 0.224584
C101  C     C_2   0.427711 0.755284 0.117317 0.974232
O1    O     O_2   0.473417 0.780215 0.205022 -0.661513
O2    O     O_R   0.471131 0.740149 0.066610 -0.767077
H57   H     H_    0.540624 0.751072 0.111937 0.320820
C102  C     C_2   0.497004 0.769723 0.808401 0.963726
O3    O     O_2   0.475570 0.782413 0.716424 -0.658266
O4    O     O_R   0.427446 0.749830 0.820916 -0.774382
H58   H     H_    0.362721 0.746690 0.747726 0.322985
C103  C     C_2   0.927679 0.255234 0.117232 0.974267
O5    O     O_2   0.973405 0.280194 0.204903 -0.661512
O6    O     O_R   0.971068 0.240071 0.066506 -0.767048
H59   H     H_    0.040555 0.251003 0.111788 0.320837
C104  C     C_2   0.997001 0.269723 0.808402 0.963703
O7    O     O_2   0.975562 0.282416 0.716424 -0.658264
O8    O     O_R   0.927448 0.249828 0.820922 -0.774374
H60   H     H_    0.862721 0.246689 0.747734 0.322992
O9    O     O_3   0.642432 0.598758 0.696209 -0.604975
C105  C     C_3   0.581411 0.640461 0.623746 -0.128527
H61   H     H_    0.509810 0.624685 0.555714 0.095852
H62   H     H_    0.614327 0.664106 0.589457 0.197161
H63   H     H_    0.571256 0.669723 0.672282 0.139788
O10   O     O_3   0.664235 0.591622 0.523210 -0.617906
C106  C     C_3   0.755970 0.581300 0.553207 -0.208096
H64   H     H_    0.755234 0.547551 0.503247 0.142116
H65   H     H_    0.805631 0.571949 0.643299 0.141210
H66   H     H_    0.783160 0.618717 0.536173 0.157761
O11   O     O_3   0.142359 0.098776 0.696120 -0.604857
C107  C     C_3   0.081210 0.140426 0.623616 -0.128998
H67   H     H_    0.009574 0.124597 0.555787 0.095767
H68   H     H_    0.113929 0.164033 0.589051 0.197238
H69   H     H_    0.071173 0.169738 0.672184 0.139978
O12   O     O_3   0.164261 0.091622 0.523223 -0.617875
C108  C     C_3   0.255989 0.081291 0.553204 -0.207940
H70   H     H_    0.255234 0.047550 0.503217 0.142086
H71   H     H_    0.305651 0.071925 0.643289 0.141168
H72   H     H_    0.283192 0.118709 0.536192 0.157754
O13   O     O_3   0.591877 0.397234 0.495691 -0.585703
C109  C     C_3   0.498825 0.377999 0.450625 -0.211071
H73   H     H_    0.444959 0.407566 0.389530 0.108623
H74   H     H_    0.488353 0.368916 0.516568 0.171165
H75   H     H_    0.486856 0.339220 0.405966 0.151861
O14   O     O_3   0.639264 0.402433 0.704996 -0.603960
C110  C     C_3   0.726465 0.407058 0.810162 -0.148050
H76   H     H_    0.723195 0.437316 0.862950 0.133620
H77   H     H_    0.785338 0.417899 0.802895 0.133631
H78   H     H_    0.742512 0.366730 0.852686 0.168916
O15   O     O_3   0.091937 0.897233 0.495725 -0.585698
C111  C     C_3   0.998896 0.877980 0.450665 -0.211101
H79   H     H_    0.945011 0.907541 0.389574 0.108607
H80   H     H_    0.988434 0.868884 0.516613 0.171200
H81   H     H_    0.986943 0.839204 0.406002 0.151858
O16   O     O_3   0.139279 0.902443 0.705014 -0.603977
C112  C     C_3   0.226480 0.907074 0.810178 -0.148036
H82   H     H_    0.223209 0.937340 0.862955 0.133609
H83   H     H_    0.285351 0.917911 0.802905 0.133633
H84   H     H_    0.242529 0.866751 0.852718 0.168919

loop_
_geom_bond_atom_site_label_1
_geom_bond_atom_site_label_2
_ccdc_geom_bond_type
O4    H58   S    
C107  H69   S    
C83   N19   A    
C92   H48   S    
C51   H23   S    
C102  O3    D    
C96   N32   A    
C93   H49   S    
O11   C107  S    
C50   H22   S    
C86   N22   A    
C16   C88   A    
N15   N23   A    
C107  H67   S    
C83   H39   S    
C95   N31   A    
N29   Ni2   S    
C90   N26   A    
C103  O5    D    
C65   C69   A    
C89   H45   S    
N11   Ni4   S    
C12   C68   S    
C64   O12   S    
C86   H42   S    
C112  H82   S    
C33   C39   A    
N12   Ni3   S    
C77   H33   S    
N14   N22   A    
N32   Ni3   S    
C34   C40   A    
C62   O10   S    
C29   H9    S    
C35   C37   A    
C110  H76   S    
N1    N29   A    
C38   C42   A    
C108  H72   S    
C55   C59   A    
N2    Ni2   S    
N22   Ni2   S    
C44   C99   S    
C95   C99   A    
C48   H28   S    
N16   N24   A    
C94   C98   A    
N3    N31   A    
O15   C111  S    
C96   H52   S    
C96   C100  A    
C78   N14   A    
C111  H79   S    
C12   C84   A    
C35   C59   A    
C31   H11   S    
C79   N15   A    
C101  O2    S    
C45   N5    A    
C69   O13   S    
O14   C110  S    
C61   C66   A    
C41   C49   A    
C15   C79   A    
C82   N18   A    
C45   H25   S    
C8    C60   S    
C109  H74   S    
C35   H15   S    
C8    C92   A    
C23   C27   A    
N1    Ni1   S    
C6    C46   A    
O13   C109  S    
C40   C44   A    
C61   C62   A    
C88   H44   S    
C2    N2    A    
C52   H24   S    
C47   N7    A    
C44   C52   A    
C15   C23   S    
C49   H21   S    
O2    H57   S    
C16   C24   S    
C30   H6    S    
C84   H40   S    
C3    N3    A    
C17   C30   S    
C102  O4    S    
C29   H5    S    
C69   C70   A    
C9    C73   A    
C7    C59   S    
C19   C32   S    
N2    N30   A    
C72   O16   S    
N13   N21   A    
O12   C108  S    
C108  H70   S    
C52   C54   A    
C88   N24   A    
C32   H8    S    
C13   C77   A    
C10   C66   S    
C27   H55   S    
C55   C103  S    
C73   H29   S    
C112  H83   S    
N21   Ni1   S    
C25   H53   S    
O6    H59   S    
C61   O9    S    
C64   C67   A    
N3    Ni3   S    
C43   C100  S    
C14   C86   A    
C104  O7    D    
N24   Ni4   S    
C42   C97   S    
C1    C97   A    
C106  H64   S    
C18   C29   S    
C53   C57   A    
C105  H61   S    
C39   C43   A    
C90   H46   S    
C11   C83   A    
C25   C26   A    
C6    C90   A    
C5    C45   A    
C10   C82   A    
N28   Ni7   S    
C17   C21   A    
C91   H47   S    
C56   C60   A    
C51   C53   A    
C109  H75   S    
C81   N17   A    
C81   H37   S    
C8    C48   A    
C7    C47   A    
C87   H43   S    
C29   C30   S    
N8    N28   A    
C63   O11   S    
C106  H65   S    
O8    H60   S    
C85   N21   A    
N7    Ni7   S    
C68   C72   A    
C7    C91   A    
N6    Ni6   S    
C17   C18   A    
C13   C21   S    
C1    N1    A    
C110  H77   S    
N26   Ni5   S    
N20   Ni8   S    
C34   C58   A    
N25   Ni6   S    
C78   H34   S    
C2    C98   A    
N31   Ni4   S    
O9    C105  S    
C42   C50   A    
C73   N9    A    
C40   H20   S    
C30   H10   S    
N18   Ni6   S    
C1    H1    S    
C4    C100  A    
C92   N28   A    
C20   C31   S    
C26   H54   S    
C80   N16   A    
C95   H51   S    
C109  H73   S    
C11   C67   S    
C85   H41   S    
N27   Ni8   S    
C36   H16   S    
C74   H30   S    
C93   C97   A    
C74   N10   A    
O16   C112  S    
C19   C23   A    
C24   C28   A    
N11   N19   A    
C54   C58   A    
C3    H3    S    
N12   N20   A    
C21   C25   A    
C63   C68   A    
C112  H84   S    
C33   C57   A    
C32   H12   S    
C62   C65   A    
C89   N25   A    
C91   N27   A    
C18   C22   A    
C31   H7    S    
C46   H26   S    
C31   C32   S    
C94   N30   A    
N15   Ni8   S    
C36   C60   A    
C105  H63   S    
C107  H68   S    
C4    N4    A    
N14   Ni5   S    
N8    Ni8   S    
C47   H27   S    
N13   Ni6   S    
C48   N8    A    
C34   H14   S    
C54   C102  S    
C79   H35   S    
N10   N18   A    
C33   H13   S    
C80   H36   S    
N6    N26   A    
C5    C57   S    
N10   Ni1   S    
C53   C101  S    
C14   C22   S    
C19   C20   A    
C12   C76   A    
C105  H62   S    
C71   O15   S    
C71   C72   A    
C108  H71   S    
C111  H81   S    
C11   C75   A    
C50   C56   A    
C76   H32   S    
C106  H66   S    
N17   Ni5   S    
C10   C74   A    
C43   C51   A    
O10   C106  S    
C66   C70   A    
N30   Ni1   S    
C39   H19   S    
C4    H4    S    
C36   C38   A    
N9    N17   A    
C104  O8    S    
C37   H17   S    
C111  H80   S    
C82   H38   S    
C76   N12   A    
C110  H78   S    
C67   C71   A    
C6    C58   S    
C14   C78   A    
C49   C55   A    
C37   C41   A    
C101  O1    D    
C20   C24   A    
N7    N27   A    
C9    C65   S    
N9    Ni2   S    
N5    Ni5   S    
N4    Ni4   S    
C87   N23   A    
C63   C64   A    
C38   H18   S    
C3    C99   A    
C94   H50   S    
C56   C104  S    
N23   Ni3   S    
C75   H31   S    
C77   N13   A    
C22   C26   A    
C15   C87   A    
C13   C85   A    
C27   C28   A    
C28   H56   S    
C2    H2    S    
C41   C98   S    
N16   Ni7   S    
C75   N11   A    
C70   O14   S    
C16   C80   A    
C84   N20   A    
C103  O6    S    
C46   N6    A    
N19   Ni7   S    
N5    N25   A    
C5    C89   A    
C9    C81   A    
N4    N32   A    
C93   N29   A    
