data_mof_unit_21425.cif
_audit_creation_date              2012-12-10T18:06:48-0500
_audit_creation_method            fapswitch 2.2
_symmetry_space_group_name_H-M    P1
_symmetry_Int_Tables_number       1
_space_group_crystal_system       triclinic
_cell_length_a                    12.610983
_cell_length_b                    13.075305
_cell_length_c                    15.462559
_cell_angle_alpha                 83.58933
_cell_angle_beta                  99.08022
_cell_angle_gamma                 95.62082
_cell_volume                      2493.56898371

loop_
_atom_site_label
_atom_site_type_symbol
_atom_type_description
_atom_site_fract_x
_atom_site_fract_y
_atom_site_fract_z
_atom_type_partial_charge
C1    C     C_R   0.448744 0.307847 0.518127 0.869526
C2    C     C_R   0.680483 0.544736 0.929331 0.159439
C3    C     C_R   0.569350 0.544330 0.895631 0.107466
C4    C     C_R   0.435673 0.515445 0.335812 0.899737
C5    C     C_R   0.754569 0.525767 0.875175 -0.180090
C6    C     C_R   0.718525 0.504704 0.788335 -0.201655
C7    C     C_R   0.534822 0.514319 0.811513 -0.229823
C8    C     C_R   0.732114 0.941888 0.501719 -0.193345
C9    C     C_R   0.599593 0.795868 0.512803 -0.102961
C10   C     C_R   0.320316 0.157543 0.548078 -0.185778
C11   C     C_R   0.294782 0.051727 0.559524 -0.143950
C12   C     C_R   0.449886 0.569516 0.094961 0.043502
C13   C     C_R   0.374739 0.984335 0.564986 -0.165779
C14   C     C_R   0.483915 0.022139 0.565488 0.086702
C15   C     C_R   0.511424 0.129580 0.562518 0.089738
C16   C     C_R   0.558169 0.690783 0.496383 0.871428
C17   C     C_R   0.564802 0.957343 0.557800 0.035346
C18   C     C_R   0.665755 0.001285 0.536916 0.163044
C19   C     C_R   0.697294 0.103404 0.551780 -0.240009
C20   C     C_R   0.622270 0.164891 0.571478 -0.190495
C21   C     C_R   0.545812 0.850573 0.562849 -0.067678
C22   C     C_R   0.694990 0.841263 0.483602 -0.213254
C23   C     C_R   0.342288 0.592312 0.060062 0.127795
C24   C     C_R   0.427403 0.197436 0.545581 -0.116933
C25   C     C_R   0.137195 0.636004 0.627554 -0.310822
C26   C     C_R   0.760647 0.378798 0.396136 0.119125
C27   C     C_R   0.857110 0.354581 0.374333 -0.287358
C28   C     C_R   0.565509 0.489178 0.663973 0.848281
C29   C     C_R   0.953018 0.401445 0.413351 -0.213975
C30   C     C_R   0.953226 0.473135 0.475201 0.022267
C31   C     C_R   0.853027 0.495397 0.495943 0.211632
C32   C     C_R   0.048876 0.522160 0.517936 -0.006790
C33   C     C_R   0.043184 0.590114 0.582381 0.196976
C34   C     C_R   0.528675 0.570069 0.039293 0.078094
C35   C     C_R   0.943925 0.610975 0.601465 -0.286610
C36   C     C_R   0.850156 0.564739 0.558246 -0.216413
C37   C     C_R   0.150966 0.505984 0.499801 -0.057170
C38   C     C_R   0.235506 0.614582 0.607997 0.000951
C39   C     C_R   0.400740 0.539952 0.241607 -0.054839
C40   C     C_R   0.607914 0.498834 0.756519 -0.057372
C41   C     C_R   0.271655 0.607809 0.120197 0.021406
C42   C     C_R   0.300209 0.577100 0.209824 -0.301926
C43   C     C_R   0.474880 0.538411 0.184492 -0.239540
C44   C     C_2   0.197047 0.591890 0.923653 0.482337
C45   C     C_R   0.494847 0.567998 0.948497 0.079046
C46   C     C_1   0.502348 0.798220 0.638912 0.165379
C47   C     C_1   0.662598 0.327841 0.354654 0.239091
C48   C     C_2   0.175522 0.667609 0.096244 0.469946
C49   C     C_R   0.387398 0.586923 0.913584 -0.320703
C50   C     C_R   0.310641 0.596110 0.967545 -0.006572
C51   C     C_R   0.640437 0.572578 0.071788 -0.219104
C52   C     C_R   0.715347 0.562459 0.016826 -0.219678
H1    H     H_    0.840035 0.527897 0.899783 0.170653
H2    H     H_    0.450070 0.500826 0.787913 0.162176
H3    H     H_    0.938661 0.663164 0.650145 0.162970
H4    H     H_    0.134698 0.686958 0.677762 0.145628
H5    H     H_    0.163887 0.457614 0.451205 0.126165
H6    H     H_    0.025102 0.378762 0.394259 0.144599
H7    H     H_    0.858231 0.299202 0.327322 0.158091
H8    H     H_    0.776623 0.584037 0.575687 0.216172
H9    H     H_    0.776711 0.493793 0.746325 0.166220
H10   H     H_    0.800219 0.564886 0.043648 0.159302
H11   H     H_    0.245840 0.587083 0.255464 0.154832
H12   H     H_    0.741959 0.798302 0.449562 0.171558
H13   H     H_    0.551612 0.508551 0.210275 0.164932
H14   H     H_    0.360611 0.594082 0.843441 0.141803
H15   H     H_    0.671930 0.585636 0.139154 0.151917
H16   H     H_    0.177247 0.630431 0.857940 0.049961
H17   H     H_    0.108851 0.651589 0.133724 0.051858
H18   H     H_    0.778712 0.136068 0.546726 0.150881
H19   H     H_    0.808485 0.975070 0.483301 0.141595
H20   H     H_    0.255305 0.207984 0.537501 0.159664
H21   H     H_    0.348672 0.903217 0.564303 0.145407
H22   H     H_    0.211587 0.021653 0.558886 0.144616
H23   H     H_    0.651982 0.241019 0.589509 0.183810
H24   H     H_    0.308999 0.647133 0.643339 0.153550
N1    N     N_R   0.239390 0.551900 0.544730 -0.102323
N2    N     N_R   0.759950 0.448600 0.455730 -0.152640
N3    N     N_1   0.470104 0.757789 0.701133 -0.226332
N4    N     N_1   0.584390 0.286137 0.320743 -0.202273
O1    O     O_R   0.374950 0.371210 0.521360 -0.613550
O2    O     O_2   0.172661 0.739435 0.038449 -0.572577
O3    O     O_R   0.542050 0.338030 0.492790 -0.615942
O4    O     O_R   0.368720 0.526070 0.390200 -0.614523
O5    O     O_R   0.535820 0.492890 0.361630 -0.614201
O6    O     O_R   0.457950 0.661970 0.507210 -0.602994
O7    O     O_R   0.625050 0.628790 0.478640 -0.636990
O8    O     O_R   0.464180 0.507110 0.638370 -0.615066
O9    O     O_R   0.631280 0.473930 0.609800 -0.649269
O10   O     O_2   0.126045 0.539590 0.957484 -0.590148
Zn1   Zn    Zn3+2 0.388420 0.522150 0.519080 0.946049
Zn2   Zn    Zn3+2 0.611580 0.477850 0.480920 0.926782

loop_
_geom_bond_atom_site_label_1
_geom_bond_atom_site_label_2
_ccdc_geom_bond_type
C27   C29   A    
C41   C42   A    
C19   C20   A    
C25   H4    S    
C48   H17   S    
C38   H24   S    
O3    Zn2   S    
C12   C23   A    
C34   C51   A    
C26   N2    A    
C6    H9    S    
C5    H1    S    
C9    C16   S    
C12   C43   A    
C3    C7    A    
O6    Zn1   S    
C30   C31   A    
C9    C22   A    
C28   C40   S    
C1    O1    A    
C18   C19   A    
C46   N3    T    
C35   C36   A    
C28   O8    A    
C16   O7    A    
C8    C22   A    
C7    C40   A    
O8    Zn1   S    
C28   O9    A    
O4    Zn1   S    
C13   C14   A    
C16   O6    A    
C14   C17   A    
C47   N4    T    
O5    Zn2   S    
C39   C42   A    
C15   C20   A    
C49   H14   S    
C35   H3    S    
C51   C52   A    
C23   C50   A    
C39   C43   A    
C4    O5    A    
C10   C24   A    
C37   N1    A    
C3    C45   A    
C8    C18   A    
C20   H23   S    
C29   C30   A    
C25   C38   A    
C4    O4    A    
C4    C39   S    
C45   C49   A    
C43   H13   S    
C17   C18   A    
C26   C27   A    
C34   C45   A    
C51   H15   S    
C32   C37   A    
O9    Zn2   S    
C2    C52   A    
C26   C47   S    
C15   C24   A    
C13   H21   S    
C6    C40   A    
C44   H16   S    
C2    C5    A    
C12   C34   A    
C44   O10   D    
C31   N2    A    
C21   C46   S    
C44   C50   S    
N1    Zn1   S    
C8    H19   S    
C14   C15   A    
C36   H8    S    
C11   H22   S    
C38   N1    A    
C1    O3    A    
C23   C41   A    
N2    Zn2   S    
C32   C33   A    
C2    C3    A    
C27   H7    S    
C30   C32   A    
C11   C13   A    
C9    C21   A    
C5    C6    A    
C33   C35   A    
C41   C48   S    
C48   O2    D    
C17   C21   A    
C10   C11   A    
C22   H12   S    
O1    Zn1   S    
C29   H6    S    
C1    C24   S    
C49   C50   A    
C31   C36   A    
C19   H18   S    
C52   H10   S    
C7    H2    S    
O7    Zn2   S    
C42   H11   S    
C37   H5    S    
C25   C33   A    
C10   H20   S    
