data_mof_unit_55869.cif
_audit_creation_date              2012-12-10T17:50:11-0500
_audit_creation_method            fapswitch 2.2
_symmetry_space_group_name_H-M    P1
_symmetry_Int_Tables_number       1
_space_group_crystal_system       triclinic
_cell_length_a                    10.635798
_cell_length_b                    14.697566
_cell_length_c                    14.713576
_cell_angle_alpha                 65.166674
_cell_angle_beta                  103.052387
_cell_angle_gamma                 102.602043
_cell_volume                      2013.54376627

loop_
_atom_site_label
_atom_site_type_symbol
_atom_type_description
_atom_site_fract_x
_atom_site_fract_y
_atom_site_fract_z
_atom_type_partial_charge
C1    C     C_R   0.476953 0.119701 0.312320 0.792848
C2    C     C_R   0.520786 0.880324 0.687674 0.791582
C3    C     C_R   0.473292 0.291818 0.178932 -0.257638
C4    C     C_R   0.505662 0.708162 0.821034 -0.252199
C5    C     C_R   0.453916 0.360164 0.077527 0.088616
C6    C     C_R   0.490976 0.639203 0.920133 0.089300
C7    C     C_R   0.425266 0.320703 0.001086 0.165074
C8    C     C_R   0.504815 0.678477 0.995478 0.163027
C9    C     C_R   0.466408 0.466541 0.050171 0.064203
C10   C     C_R   0.464759 0.532649 0.946447 0.063837
C11   C     C_R   0.434010 0.490068 0.872412 -0.223351
C12   C     C_R   0.478043 0.508849 0.122754 -0.222615
C13   C     C_R   0.413365 0.386098 0.899541 -0.229989
C14   C     C_R   0.495968 0.612804 0.095472 -0.230259
C15   C     C_R   0.718082 0.285098 0.667268 -0.320657
C16   C     C_R   0.283032 0.715482 0.331829 -0.323252
C17   C     C_R   0.683747 0.203213 0.638243 0.076462
C18   C     C_R   0.316753 0.797046 0.361364 0.076569
C19   C     C_R   0.518831 0.285257 0.509150 0.004760
C20   C     C_R   0.481286 0.714804 0.490707 0.003535
C21   C     C_R   0.549226 0.371528 0.534659 -0.021870
C22   C     C_R   0.451572 0.628888 0.464637 -0.021308
C23   C     C_R   0.259758 0.000893 0.499855 0.800014
C24   C     C_R   0.740248 0.999101 0.500157 0.800422
C25   C     C_R   0.650966 0.369195 0.616177 0.163616
C26   C     C_R   0.350253 0.631436 0.382802 0.164284
C27   C     C_R   0.482572 0.458820 0.483329 0.079461
C28   C     C_R   0.518501 0.541736 0.515738 0.076434
C29   C     C_R   0.619912 0.534623 0.598086 -0.237900
C30   C     C_R   0.381619 0.466159 0.400644 -0.241877
C31   C     C_R   0.684756 0.450310 0.646715 -0.194395
C32   C     C_R   0.317006 0.550594 0.351841 -0.202376
C33   C     C_3   0.016692 0.006525 0.409153 -0.213558
C34   C     C_3   0.983338 0.993467 0.590873 -0.214227
C35   C     C_3   0.959086 0.085333 0.426528 -0.206758
C36   C     C_3   0.040946 0.914657 0.573499 -0.207029
C37   C     C_3   0.876421 0.997781 0.499872 -0.026542
C38   C     C_3   0.123603 0.002209 0.500153 -0.025955
C39   C     C_3   0.932740 0.919887 0.482718 0.239769
C40   C     C_3   0.067290 0.080103 0.517308 0.240788
C41   C     C_R   0.458438 0.187378 0.204772 -0.052263
C42   C     C_R   0.523247 0.812689 0.794926 -0.053093
C43   C     C_R   0.409564 0.215890 0.027036 -0.201414
C44   C     C_R   0.526732 0.783433 0.969861 -0.201893
C45   C     C_R   0.425115 0.149506 0.128347 -0.200104
C46   C     C_R   0.534632 0.850241 0.869920 -0.199619
Cu1   Cu    Cu3+1 0.465750 0.918270 0.475680 0.930880
Cu2   Cu    Cu3+1 0.534250 0.081730 0.524320 0.930775
H1    H     H_    0.923434 0.155264 0.366844 0.141414
H2    H     H_    0.076624 0.844735 0.633185 0.141926
H3    H     H_    0.557922 0.720400 0.550623 0.120890
H4    H     H_    0.441748 0.279447 0.449571 0.120848
H5    H     H_    0.265785 0.862381 0.321555 0.123317
H6    H     H_    0.734733 0.137890 0.678056 0.123914
H7    H     H_    0.796196 0.282466 0.729682 0.137547
H8    H     H_    0.205323 0.718333 0.269109 0.137777
H9    H     H_    0.651991 0.593187 0.627310 0.128690
H10   H     H_    0.349956 0.407776 0.371144 0.126754
H11   H     H_    0.032607 0.011366 0.335132 0.136719
H12   H     H_    0.967444 0.988633 0.664896 0.135978
H13   H     H_    0.389814 0.356742 0.840399 0.147798
H14   H     H_    0.503918 0.641951 0.153417 0.151539
H15   H     H_    0.505359 0.682415 0.762504 0.146832
H16   H     H_    0.503899 0.318395 0.239433 0.151878
H17   H     H_    0.548212 0.930944 0.851257 0.153479
H18   H     H_    0.412696 0.068895 0.146732 0.152023
H19   H     H_    0.386119 0.185329 0.968844 0.132194
H20   H     H_    0.536268 0.813814 0.027034 0.133068
H21   H     H_    0.421076 0.534872 0.792164 0.146858
H22   H     H_    0.469529 0.463646 0.201265 0.142976
H23   H     H_    0.762182 0.448477 0.709419 0.142750
H24   H     H_    0.240100 0.552681 0.288755 0.144053
N1    N     N_R   0.585750 0.204560 0.560800 -0.176776
N2    N     N_R   0.414250 0.795440 0.439200 -0.176432
O1    O     O_R   0.454850 0.022100 0.338110 -0.590725
O2    O     O_R   0.545150 0.977900 0.661890 -0.590822
O3    O     O_R   0.512700 0.160150 0.379180 -0.590306
O4    O     O_R   0.487300 0.839850 0.620820 -0.589729
O5    O     O_R   0.287930 0.931000 0.479440 -0.583502
O6    O     O_R   0.712070 0.069000 0.520560 -0.583237
O7    O     O_R   0.345780 0.069050 0.520520 -0.581362
O8    O     O_R   0.654220 0.930950 0.479480 -0.580846
C47   C     C_3   0.857571 0.827444 0.463325 -0.843396
H25   H     H_    0.926263 0.786136 0.453897 0.229379
H26   H     H_    0.806432 0.776367 0.528487 0.224997
H27   H     H_    0.785241 0.851438 0.393357 0.239060
C48   C     C_3   0.142473 0.172546 0.536690 -0.844927
H28   H     H_    0.073787 0.213860 0.546101 0.229088
H29   H     H_    0.214798 0.148561 0.606656 0.238411
H30   H     H_    0.193620 0.223611 0.471532 0.225784

loop_
_geom_bond_atom_site_label_1
_geom_bond_atom_site_label_2
_ccdc_geom_bond_type
C25   C31   A    
C17   N1    A    
C48   H28   S    
C26   C32   A    
C34   C37   S    
C1    O3    A    
Cu2   O2    S    
Cu1   O5    S    
C36   H2    S    
C32   H24   S    
C3    H16   S    
C4    H15   S    
C33   C39   S    
C34   C40   S    
C40   C48   S    
C28   C29   A    
C35   C37   S    
C20   H3    S    
C15   C25   A    
C14   H14   S    
Cu2   O7    S    
C42   C46   A    
Cu1   O8    S    
C24   O8    A    
C12   H22   S    
C18   H5    S    
C33   H11   S    
C19   H4    S    
C24   O6    A    
C47   H25   S    
C35   H1    S    
C7    C43   A    
C9    C10   A    
C31   H23   S    
C21   C27   A    
C18   N2    A    
C38   C40   S    
C22   C28   A    
C27   C30   A    
C34   H12   S    
C44   C46   A    
C16   C26   A    
C37   C39   S    
C1    O1    A    
C19   N1    A    
C46   H17   S    
C4    C6    A    
C5    C7    A    
C6    C8    A    
C15   H7    S    
Cu2   O3    S    
C16   H8    S    
C43   H19   S    
C5    C9    A    
C2    O4    A    
Cu1   Cu2   S    
C24   C37   S    
C20   N2    A    
C43   C45   A    
C1    C41   S    
C47   H26   S    
C29   H9    S    
C48   H29   S    
C44   H20   S    
C45   H18   S    
C2    O2    A    
C15   C17   A    
C21   C25   A    
C3    C41   A    
C8    C14   A    
C23   O7    A    
C19   C21   A    
Cu2   N1    S    
C36   C39   S    
C8    C44   A    
Cu1   N2    S    
C20   C22   A    
C3    C5    A    
C6    C10   A    
C11   H21   S    
C23   C38   S    
C33   C38   S    
Cu2   O6    S    
C36   C38   S    
C35   C40   S    
C12   C14   A    
Cu1   O1    S    
C29   C31   A    
C30   C32   A    
C11   C13   A    
C4    C42   A    
C2    C42   S    
C30   H10   S    
C33   C35   S    
C34   C36   S    
C9    C12   A    
C10   C11   A    
C39   C47   S    
C7    C13   A    
C47   H27   S    
C13   H13   S    
C16   C18   A    
C22   C26   A    
C48   H30   S    
C27   C28   A    
C41   C45   A    
Cu1   O4    S    
C23   O5    A    
C17   H6    S    
