data_mof_unit_42086.cif
_audit_creation_date              2012-12-11T16:58:14-0500
_audit_creation_method            fapswitch 2.2
_symmetry_space_group_name_H-M    P1
_symmetry_Int_Tables_number       1
_space_group_crystal_system       triclinic
_cell_length_a                    16.934845
_cell_length_b                    7.264202
_cell_length_c                    16.825609
_cell_angle_alpha                 90.000947
_cell_angle_beta                  100.42717
_cell_angle_gamma                 89.998744
_cell_volume                      2035.67294827

loop_
_atom_site_label
_atom_site_type_symbol
_atom_type_description
_atom_site_fract_x
_atom_site_fract_y
_atom_site_fract_z
_atom_type_partial_charge
O1    O     O_R   0.413450 0.494370 0.415710 -0.535755
O2    O     O_R   0.586550 0.994370 0.584290 -0.535754
O3    O     O_R   0.578420 0.819350 0.429360 -0.539975
O4    O     O_R   0.421580 0.319350 0.570640 -0.539987
C1    C     C_R   0.604993 0.656709 0.414307 0.697751
C2    C     C_R   0.395005 0.156715 0.585692 0.697752
O5    O     O_R   0.413570 0.823780 0.406240 -0.541503
O6    O     O_R   0.586430 0.323780 0.593760 -0.541502
O7    O     O_R   0.420530 0.998740 0.561000 -0.535232
O8    O     O_R   0.579470 0.498740 0.439000 -0.535227
C3    C     C_R   0.386119 0.655386 0.383671 0.686893
C4    C     C_R   0.613881 0.155385 0.616329 0.686908
O9    O     O_3   0.502480 0.662320 0.550800 -0.377707
O10   O     O_3   0.497520 0.162320 0.449200 -0.377700
V1    V     V_3+5 0.499540 0.935370 0.490580 1.393511
V2    V     V_3+5 0.500460 0.435370 0.509420 1.393504
C5    C     C_R   0.695872 0.988993 0.735040 0.113128
C6    C     C_R   0.304129 0.488990 0.264960 0.113130
C7    C     C_R   0.680823 0.146986 0.686833 -0.108533
C8    C     C_R   0.319178 0.646987 0.313166 -0.108526
C9    C     C_R   0.730786 0.300411 0.709707 -0.187344
C10   C     C_R   0.269214 0.800414 0.290291 -0.187348
H1    H     H_    0.721374 0.426523 0.675288 0.143902
H2    H     H_    0.278627 0.926529 0.324709 0.143901
C11   C     C_R   0.796963 0.288768 0.773864 -0.163852
C12   C     C_R   0.203038 0.788771 0.226134 -0.163857
H3    H     H_    0.835691 0.407386 0.787139 0.139407
H4    H     H_    0.164311 0.907393 0.212857 0.139392
C13   C     C_R   0.815583 0.122896 0.817027 -0.098379
C14   C     C_R   0.184417 0.622895 0.182972 -0.098361
C15   C     C_R   0.761183 0.977345 0.798310 0.099794
C16   C     C_R   0.238818 0.477341 0.201690 0.099782
C17   C     C_3   0.775155 0.779843 0.781297 -0.425097
C18   C     C_3   0.224846 0.279842 0.218704 -0.425097
C19   C     C_3   0.703765 0.792592 0.712156 -0.403261
C20   C     C_3   0.296236 0.292592 0.287845 -0.403262
H5    H     H_    0.763955 0.688833 0.831194 0.168010
H6    H     H_    0.236047 0.188826 0.168807 0.168011
H7    H     H_    0.833191 0.756718 0.760734 0.179530
H8    H     H_    0.166811 0.256725 0.239268 0.179543
H9    H     H_    0.651550 0.708779 0.722252 0.173979
H10   H     H_    0.348452 0.208773 0.277749 0.173979
H11   H     H_    0.720513 0.776795 0.651576 0.171572
H12   H     H_    0.279488 0.276803 0.348425 0.171576
C21   C     C_R   0.330528 0.160062 0.634762 -0.059443
C22   C     C_R   0.669473 0.660034 0.365239 -0.059429
C23   C     C_R   0.164377 0.111996 0.859219 -0.130855
C24   C     C_R   0.835618 0.612020 0.140774 -0.130791
C25   C     C_R   0.275997 0.946620 0.818033 -0.152481
C26   C     C_R   0.723953 0.446738 0.181909 -0.152493
C27   C     C_R   0.221491 0.969158 0.870112 -0.131462
C28   C     C_R   0.778471 0.469260 0.129842 -0.131570
C29   C     C_R   0.163442 0.237402 0.794327 -0.076255
C30   C     C_R   0.836581 0.737358 0.205698 -0.076241
C31   C     C_R   0.218660 0.212540 0.740232 0.081395
C32   C     C_R   0.781356 0.712499 0.259785 0.081396
C33   C     C_R   0.274946 0.065432 0.752599 0.142987
C34   C     C_R   0.725032 0.565477 0.247375 0.143022
C35   C     C_R   0.329975 0.039384 0.699674 -0.220547
C36   C     C_R   0.669994 0.539436 0.300291 -0.220527
C37   C     C_R   0.273433 0.302255 0.621496 -0.164927
C38   C     C_R   0.726607 0.802131 0.378550 -0.164930
C39   C     C_R   0.218042 0.327397 0.672646 -0.153733
C40   C     C_R   0.782007 0.827264 0.327408 -0.153673
H13   H     H_    0.374213 0.930103 0.710801 0.115745
H14   H     H_    0.625726 0.430226 0.289132 0.115722
H15   H     H_    0.272298 0.396737 0.571450 0.123836
H16   H     H_    0.727767 0.896543 0.428625 0.123809
H17   H     H_    0.318625 0.834064 0.828557 0.119483
H18   H     H_    0.681297 0.334246 0.171355 0.119458
H19   H     H_    0.175321 0.438496 0.658638 0.151470
H20   H     H_    0.824763 0.938276 0.341454 0.151471
H21   H     H_    0.223589 0.872187 0.919394 0.130378
H22   H     H_    0.776354 0.372342 0.080536 0.130304
O11   O     O_R   0.920630 0.775410 0.061150 -0.529260
O12   O     O_R   0.079370 0.275410 0.938850 -0.529254
O13   O     O_R   0.086500 0.441450 0.093690 -0.541027
O14   O     O_R   0.913500 0.941450 0.906310 -0.541032
C41   C     C_R   0.113903 0.610227 0.116256 0.708959
C42   C     C_R   0.886097 0.110228 0.883743 0.708919
O15   O     O_R   0.921670 0.445960 0.070740 -0.532601
O16   O     O_R   0.078330 0.945960 0.929260 -0.532610
O17   O     O_R   0.913380 0.271130 0.915780 -0.538963
O18   O     O_R   0.086620 0.771130 0.084220 -0.538960
C43   C     C_R   0.896738 0.613375 0.087037 0.720928
C44   C     C_R   0.103261 0.113370 0.912962 0.720897
O19   O     O_3   0.997500 0.603030 0.949220 -0.375833
O20   O     O_3   0.002500 0.103030 0.050780 -0.375820
V3    V     V_3+5 0.000470 0.329940 0.009420 1.452071
V4    V     V_3+5 0.999530 0.829940 0.990580 1.452048
C45   C     C_2   0.103043 0.387485 0.781500 0.749506
O21   O     O_2   0.124896 0.548009 0.782034 -0.562647
O22   O     O_R   0.021257 0.344802 0.769906 -0.664486
H23   H     H_    0.986012 0.458588 0.762727 0.286991
C46   C     C_2   0.897009 0.887373 0.218558 0.749481
O23   O     O_2   0.875185 0.047915 0.218083 -0.562611
O24   O     O_R   0.978787 0.844615 0.230121 -0.664499
H24   H     H_    0.014050 0.958365 0.237344 0.286982

loop_
_geom_bond_atom_site_label_1
_geom_bond_atom_site_label_2
_ccdc_geom_bond_type
O22   H23   S    
C2    C21   S    
C29   C31   A    
C20   H10   S    
C46   O23   D    
O1    C3    A    
O2    C4    A    
C2    O7    A    
O24   H24   S    
O14   V4    S    
C24   C30   A    
O13   V3    S    
C17   H7    S    
C22   C38   A    
C18   H8    S    
C7    C9    A    
C28   H22   S    
C41   O18   A    
O14   C42   A    
C33   C35   A    
C34   C36   A    
C25   C33   A    
C37   C39   A    
C38   C40   A    
O11   V4    S    
C17   C19   S    
O11   C43   A    
C25   C27   A    
C31   C39   A    
C29   C45   S    
C26   C28   A    
C32   C40   A    
C19   H11   S    
C18   C20   S    
O12   V3    S    
C23   C29   A    
O15   V3    S    
O5    V1    S    
C36   H14   S    
O6    V2    S    
C25   H17   S    
O18   V4    S    
C42   O17   A    
O13   C41   A    
C11   C13   A    
O17   V3    S    
C30   C32   A    
C3    C8    S    
C26   C34   A    
C23   C44   S    
O4    C2    A    
C45   O21   D    
C23   C27   A    
O16   C44   A    
C17   H5    S    
C16   C18   S    
O4    V2    S    
O5    C3    A    
C45   O22   S    
C37   H15   S    
O6    C4    A    
C15   C17   S    
O1    V2    S    
O2    V1    S    
C30   C46   S    
C14   C41   S    
C39   H19   S    
C12   C14   A    
C31   C33   A    
C5    C15   A    
C10   H2    S    
C20   H12   S    
C6    C16   A    
O12   C44   A    
O3    V1    S    
C9    C11   A    
C21   C35   A    
C22   C36   A    
C18   H6    S    
C24   C43   S    
C27   H21   S    
C8    C10   A    
O3    C1    A    
C46   O24   S    
O9    V2    S    
C11   H3    S    
C1    C22   S    
C12   H4    S    
O16   V4    S    
C38   H16   S    
C9    H1    S    
C26   H18   S    
C1    O8    A    
C13   C15   A    
O8    V2    S    
C35   H13   S    
C14   C16   A    
C13   C42   S    
C4    C7    S    
C21   C37   A    
C5    C7    A    
C32   C34   A    
C6    C8    A    
C40   H20   S    
O7    V1    S    
C19   H9    S    
C24   C28   A    
O20   V3    S    
C10   C12   A    
O19   V4    S    
O10   V1    S    
C5    C19   S    
C6    C20   S    
O15   C43   A    
