data_mof_unit_57172.cif
_audit_creation_date              2012-12-11T14:44:04-0500
_audit_creation_method            fapswitch 2.2
_symmetry_space_group_name_H-M    P1
_symmetry_Int_Tables_number       1
_space_group_crystal_system       triclinic
_cell_length_a                    19.046514
_cell_length_b                    10.895864
_cell_length_c                    18.837002
_cell_angle_alpha                 89.649848
_cell_angle_beta                  90.265515
_cell_angle_gamma                 89.965884
_cell_volume                      3909.09387712

loop_
_atom_site_label
_atom_site_type_symbol
_atom_type_description
_atom_site_fract_x
_atom_site_fract_y
_atom_site_fract_z
_atom_type_partial_charge
C1    C     C_R   0.728218 0.373671 0.144433 0.546502
C2    C     C_R   0.270257 0.376279 0.854263 0.545671
C3    C     C_R   0.229710 0.877207 0.145860 0.548299
C4    C     C_R   0.771813 0.873144 0.855632 0.543918
C5    C     C_R   0.504580 0.390011 0.929495 -0.145279
C6    C     C_R   0.484578 0.390501 0.075373 -0.129429
C7    C     C_R   0.016347 0.889404 0.922268 -0.132328
C8    C     C_R   0.996604 0.891580 0.068171 -0.148725
C9    C     C_R   0.008205 0.001956 0.956605 0.239011
C10   C     C_R   0.995625 0.002698 0.030468 0.240563
C11   C     C_R   0.505581 0.501698 0.965672 0.243684
C12   C     C_R   0.492801 0.502341 0.039509 0.249315
C13   C     C_R   0.686405 0.922724 0.031339 -0.080521
C14   C     C_R   0.302926 0.868360 0.963086 -0.130008
C15   C     C_R   0.202687 0.357820 0.039273 -0.124418
C16   C     C_R   0.813677 0.421560 0.968593 -0.080072
C17   C     C_R   0.693732 0.908499 0.958466 -0.098376
C18   C     C_R   0.299950 0.856665 0.036537 -0.126713
C19   C     C_R   0.205486 0.342990 0.966108 -0.111084
C20   C     C_R   0.806289 0.408213 0.041557 -0.100187
C21   C     C_R   0.760785 0.896212 0.930175 0.034857
C22   C     C_R   0.246478 0.915450 0.074263 0.019433
C23   C     C_R   0.252302 0.413692 0.925525 0.020109
C24   C     C_R   0.739169 0.396957 0.069887 0.034472
C25   C     C_R   0.819933 0.893118 0.974960 -0.098776
C26   C     C_R   0.197665 0.989324 0.038551 -0.134775
C27   C     C_R   0.294494 0.501776 0.958151 -0.133063
C28   C     C_R   0.680069 0.393238 0.025154 -0.098530
C29   C     C_R   0.812694 0.907906 0.047141 -0.112499
C30   C     C_R   0.198450 0.995913 0.966035 -0.134042
C31   C     C_R   0.293697 0.513098 0.030642 -0.123692
C32   C     C_R   0.687416 0.406757 0.952862 -0.112402
C33   C     C_R   0.746381 0.925459 0.075447 0.029468
C34   C     C_R   0.251367 0.936860 0.927449 0.017790
C35   C     C_R   0.247868 0.441462 0.071922 0.018760
C36   C     C_R   0.753719 0.424081 0.924498 0.029568
C37   C     C_R   0.506439 0.045802 0.468374 0.243956
C38   C     C_R   0.517124 0.052283 0.541764 0.243289
C39   C     C_R   0.006499 0.545799 0.468409 0.244046
C40   C     C_R   0.017176 0.552277 0.541801 0.243377
C41   C     C_R   0.500954 0.163522 0.576433 -0.024462
C42   C     C_R   0.507303 0.157331 0.428083 -0.030803
C43   C     C_R   0.001001 0.663520 0.576462 -0.024507
C44   C     C_R   0.007358 0.657327 0.428113 -0.030749
C45   C     C_R   0.529747 0.155805 0.147728 0.526346
C46   C     C_R   0.467339 0.155219 0.854326 0.537442
C47   C     C_R   0.032442 0.655737 0.145762 0.535805
C48   C     C_R   0.970160 0.655381 0.852283 0.528761
C49   C     C_R   0.494732 0.272306 0.536686 -0.193522
C50   C     C_R   0.502189 0.269900 0.463317 -0.195444
C51   C     C_R   0.994801 0.772307 0.536716 -0.193400
C52   C     C_R   0.002260 0.769898 0.463348 -0.195519
C53   C     C_R   0.727686 0.035570 0.476911 -0.094270
C54   C     C_R   0.207410 0.017712 0.528120 -0.132356
C55   C     C_R   0.227648 0.535545 0.476912 -0.094155
C56   C     C_R   0.707383 0.517665 0.528129 -0.132638
C57   C     C_R   0.735077 0.015763 0.549362 -0.080438
C58   C     C_R   0.207102 0.005948 0.455569 -0.136523
C59   C     C_R   0.235040 0.515740 0.549364 -0.080709
C60   C     C_R   0.707077 0.505912 0.455578 -0.136436
C61   C     C_R   0.758108 0.901455 0.573288 0.089010
C62   C     C_R   0.247555 0.914691 0.424004 0.028696
C63   C     C_R   0.258110 0.401454 0.573288 0.089198
C64   C     C_R   0.747551 0.414691 0.424006 0.028498
C65   C     C_R   0.775867 0.808490 0.525243 -0.099739
C66   C     C_R   0.291940 0.840296 0.465699 -0.086099
C67   C     C_R   0.275908 0.308513 0.525242 -0.099409
C68   C     C_R   0.791956 0.340324 0.465696 -0.086570
C69   C     C_R   0.769589 0.828998 0.452716 -0.121441
C70   C     C_R   0.294377 0.855394 0.538826 -0.113670
C71   C     C_R   0.269631 0.329022 0.452715 -0.121715
C72   C     C_R   0.794392 0.355416 0.538823 -0.113426
C73   C     C_R   0.745815 0.942806 0.428902 0.066267
C74   C     C_R   0.251157 0.942941 0.570315 0.005818
C75   C     C_R   0.245814 0.442804 0.428902 0.065765
C76   C     C_R   0.751153 0.442926 0.570318 0.006324
C77   C     C_R   0.740393 0.970488 0.147130 0.544980
C78   C     C_R   0.259192 0.971524 0.853527 0.544662
C79   C     C_R   0.240598 0.473038 0.146162 0.543290
C80   C     C_R   0.759566 0.469767 0.852760 0.546932
C81   C     C_R   0.729757 0.378079 0.352488 0.548150
C82   C     C_R   0.270596 0.378096 0.647401 0.552053
C83   C     C_R   0.229758 0.878080 0.352488 0.547529
C84   C     C_R   0.770597 0.878094 0.647400 0.552690
C85   C     C_R   0.532405 0.155663 0.354354 0.566596
C86   C     C_R   0.469601 0.157153 0.647267 0.576251
C87   C     C_R   0.032422 0.655661 0.354367 0.567375
C88   C     C_R   0.969613 0.657153 0.647278 0.575361
C89   C     C_R   0.741293 0.971503 0.354519 0.532821
C90   C     C_R   0.259103 0.974675 0.644379 0.537865
C91   C     C_R   0.241293 0.471503 0.354519 0.533003
C92   C     C_R   0.759102 0.474671 0.644381 0.537662
C93   C     C_R   0.490316 0.163337 0.928612 0.002983
C94   C     C_R   0.496695 0.164551 0.077303 0.000794
C95   C     C_R   0.002554 0.663620 0.922922 0.001931
C96   C     C_R   0.008820 0.664437 0.071620 0.002155
C97   C     C_R   0.494714 0.277167 0.965134 -0.042383
C98   C     C_R   0.491199 0.277506 0.039998 -0.046762
C99   C     C_R   0.009046 0.777023 0.958983 -0.044715
C100  C     C_R   0.005584 0.777929 0.033860 -0.042665
C101  C     C_R   0.490840 0.054306 0.040247 -0.138160
C102  C     C_R   0.488775 0.053484 0.967527 -0.137627
C103  C     C_R   0.008245 0.553979 0.033946 -0.136169
C104  C     C_R   0.006367 0.553715 0.961271 -0.135952
Cr1   Cr    Cr6+3 0.772000 0.169640 0.250110 1.048609
Cr2   Cr    Cr6+3 0.228000 0.169640 0.749890 1.066878
Cr3   Cr    Cr6+3 0.272000 0.669640 0.250110 1.048105
Cr4   Cr    Cr6+3 0.728000 0.669640 0.749890 1.066442
Cr5   Cr    Cr6+3 0.614960 0.323350 0.249260 1.069580
Cr6   Cr    Cr6+3 0.385040 0.323350 0.750740 1.065427
Cr7   Cr    Cr6+3 0.114960 0.823350 0.249260 1.060563
Cr8   Cr    Cr6+3 0.885040 0.823350 0.750740 1.073317
Cr9   Cr    Cr6+3 0.616670 0.010620 0.250840 1.116697
Cr10  Cr    Cr6+3 0.383330 0.010620 0.749160 1.104597
Cr11  Cr    Cr6+3 0.116670 0.510620 0.250840 1.114906
Cr12  Cr    Cr6+3 0.883330 0.510620 0.749160 1.108413
H1    H     H_    0.492554 0.966631 0.067364 0.207919
H2    H     H_    0.484454 0.964987 0.941968 0.207071
H3    H     H_    0.010889 0.465595 0.060482 0.208034
H4    H     H_    0.003187 0.465626 0.935304 0.210759
H5    H     H_    0.708533 0.123561 0.457965 0.101881
H6    H     H_    0.174883 0.088994 0.550721 0.190177
H7    H     H_    0.208468 0.623519 0.457966 0.101929
H8    H     H_    0.674838 0.588920 0.550733 0.190165
H9    H     H_    0.722601 0.088262 0.586338 0.133589
H10   H     H_    0.172333 0.064245 0.424542 0.169976
H11   H     H_    0.222534 0.588221 0.586341 0.132966
H12   H     H_    0.672292 0.564189 0.424556 0.170964
H13   H     H_    0.796461 0.721471 0.544140 0.112717
H14   H     H_    0.321903 0.766515 0.442314 0.177204
H15   H     H_    0.296529 0.221513 0.544139 0.112739
H16   H     H_    0.821936 0.266568 0.442307 0.177053
H17   H     H_    0.784227 0.757925 0.415626 0.117058
H18   H     H_    0.329121 0.798441 0.570642 0.172608
H19   H     H_    0.284299 0.257968 0.415625 0.116511
H20   H     H_    0.829153 0.298487 0.570635 0.173491
H21   H     H_    0.517435 0.391911 0.873845 0.193426
H22   H     H_    0.473689 0.392389 0.131599 0.193728
H23   H     H_    0.027601 0.890208 0.866109 0.195011
H24   H     H_    0.984368 0.894629 0.123934 0.193382
H25   H     H_    0.634440 0.938365 0.052549 0.167840
H26   H     H_    0.345062 0.824754 0.934411 0.187278
H27   H     H_    0.166470 0.303333 0.070269 0.180612
H28   H     H_    0.865642 0.436747 0.947234 0.167180
H29   H     H_    0.647882 0.910189 0.924255 0.157012
H30   H     H_    0.337262 0.798327 0.063655 0.185404
H31   H     H_    0.174058 0.272231 0.941806 0.183979
H32   H     H_    0.852151 0.409498 0.075761 0.154374
H33   H     H_    0.871914 0.878545 0.953999 0.147312
H34   H     H_    0.155794 0.036370 0.066084 0.173921
H35   H     H_    0.331282 0.557241 0.928173 0.170623
H36   H     H_    0.628104 0.378869 0.046232 0.146565
H37   H     H_    0.858581 0.909482 0.080926 0.152390
H38   H     H_    0.158473 0.051599 0.940656 0.182650
H39   H     H_    0.328419 0.580387 0.053976 0.179422
H40   H     H_    0.641653 0.407905 0.918955 0.151459
H41   H     H_    0.483229 0.358806 0.562184 0.175335
H42   H     H_    0.502596 0.355729 0.433996 0.171560
H43   H     H_    0.983301 0.858810 0.562213 0.175660
H44   H     H_    0.002669 0.855727 0.434027 0.171240
O1    O     O_R   0.787540 0.042690 0.170470 -0.476482
O2    O     O_R   0.212460 0.042690 0.829530 -0.493459
O3    O     O_R   0.287540 0.542690 0.170470 -0.492783
O4    O     O_R   0.712460 0.542690 0.829530 -0.473276
O5    O     O_R   0.556540 0.252920 0.323970 -0.512657
O6    O     O_R   0.443460 0.252920 0.676030 -0.513132
O7    O     O_R   0.056540 0.752920 0.323970 -0.512895
O8    O     O_R   0.943460 0.752920 0.676030 -0.512799
O9    O     O_R   0.545870 0.051100 0.330840 -0.426056
O10   O     O_R   0.454130 0.051100 0.669160 -0.438882
O11   O     O_R   0.045870 0.551100 0.330840 -0.425792
O12   O     O_R   0.954130 0.551100 0.669160 -0.439220
O13   O     O_R   0.681340 0.959300 0.325510 -0.469914
O14   O     O_R   0.318660 0.959300 0.674490 -0.492522
O15   O     O_R   0.181340 0.459300 0.325510 -0.472011
O16   O     O_R   0.818660 0.459300 0.674490 -0.490749
O17   O     O_3   0.667880 0.167870 0.250070 -0.281909
O18   O     O_3   0.332120 0.167870 0.749930 -0.279151
O19   O     O_3   0.167880 0.667870 0.250070 -0.276528
O20   O     O_3   0.832120 0.667870 0.749930 -0.284645
O21   O     O_R   0.765660 0.292160 0.175050 -0.496431
O22   O     O_R   0.234340 0.292160 0.824950 -0.507685
O23   O     O_R   0.265660 0.792160 0.175050 -0.504409
O24   O     O_R   0.734340 0.792160 0.824950 -0.500744
O25   O     O_R   0.670190 0.408980 0.168550 -0.488547
O26   O     O_R   0.329810 0.408980 0.831450 -0.504387
O27   O     O_R   0.170190 0.908980 0.168550 -0.507014
O28   O     O_R   0.829810 0.908980 0.831450 -0.488858
O29   O     O_R   0.556580 0.251450 0.175160 -0.512750
O30   O     O_R   0.443420 0.251450 0.824840 -0.505694
O31   O     O_R   0.056580 0.751450 0.175160 -0.507055
O32   O     O_R   0.943420 0.751450 0.824840 -0.511768
O33   O     O_R   0.545920 0.049510 0.170320 -0.509390
O34   O     O_R   0.454080 0.049510 0.829680 -0.503297
O35   O     O_R   0.045920 0.549510 0.170320 -0.503369
O36   O     O_R   0.954080 0.549510 0.829680 -0.507490
O37   O     O_R   0.681390 0.957840 0.176710 -0.497856
O38   O     O_R   0.318610 0.957840 0.823290 -0.497105
O39   O     O_R   0.181390 0.457840 0.176710 -0.496581
O40   O     O_R   0.818610 0.457840 0.823290 -0.496310
O41   O     O_R   0.787500 0.044280 0.330990 -0.520703
O42   O     O_R   0.212500 0.044280 0.669010 -0.507195
O43   O     O_R   0.287500 0.544280 0.330990 -0.516251
O44   O     O_R   0.712500 0.544280 0.669010 -0.511845
O45   O     O_R   0.765610 0.293630 0.323860 -0.513950
O46   O     O_R   0.234390 0.293630 0.676140 -0.489719
O47   O     O_R   0.265610 0.793630 0.323860 -0.511154
O48   O     O_R   0.734390 0.793630 0.676140 -0.492926
O49   O     O_R   0.670140 0.410570 0.329080 -0.509461
O50   O     O_R   0.329860 0.410570 0.670920 -0.515118
O51   O     O_R   0.170140 0.910570 0.329080 -0.512883
O52   O     O_R   0.829860 0.910570 0.670920 -0.511340
S1    S     S_3+6 0.008099 0.136421 0.903201 0.019085
O53   O     O_2   0.933426 0.171530 0.886760 -0.241458
O54   O     O_2   0.043527 0.240083 0.941192 -0.299071
O55   O     O_3   0.050441 0.110342 0.826566 -0.545820
H45   H     H_    0.051330 0.190837 0.801840 0.364546
S2    S     S_3+6 0.975805 0.137941 0.078110 0.017915
O56   O     O_2   0.041675 0.211522 0.088257 -0.302816
O57   O     O_2   0.922928 0.212884 0.037442 -0.253473
O58   O     O_3   0.942623 0.103057 0.158339 -0.543534
H46   H     H_    0.929284 0.182992 0.179142 0.364629
S3    S     S_3+6 0.526094 0.635592 0.916170 0.022336
O59   O     O_2   0.460570 0.710011 0.904895 -0.300956
O60   O     O_2   0.579314 0.710311 0.955914 -0.252802
O61   O     O_3   0.559155 0.598689 0.836437 -0.539199
H47   H     H_    0.572231 0.678115 0.814298 0.366676
S4    S     S_3+6 0.493532 0.637451 0.091199 0.016817
O62   O     O_2   0.568225 0.668318 0.109927 -0.245283
O63   O     O_2   0.461556 0.742432 0.050664 -0.305166
O64   O     O_3   0.447964 0.615013 0.166456 -0.548631
H48   H     H_    0.447347 0.696039 0.190020 0.359455
S5    S     S_3+6 0.483898 0.900774 0.429969 0.061139
O65   O     O_2   0.548943 0.838668 0.402900 -0.230631
O66   O     O_2   0.449844 0.818172 0.483686 -0.262932
O67   O     O_3   0.427268 0.922925 0.362231 -0.541356
H49   H     H_    0.420465 0.840627 0.341235 0.356697
S6    S     S_3+6 0.555861 0.926126 0.589166 0.059526
O68   O     O_2   0.499852 0.841146 0.616589 -0.233735
O69   O     O_2   0.603811 0.854720 0.541711 -0.247503
O70   O     O_3   0.602362 0.980622 0.658292 -0.562664
H50   H     H_    0.605442 0.911476 0.692541 0.363439
S7    S     S_3+6 0.983932 0.400785 0.430011 0.061104
O71   O     O_2   0.048961 0.338658 0.402921 -0.231603
O72   O     O_2   0.949881 0.318191 0.483735 -0.262880
O73   O     O_3   0.927283 0.422970 0.362294 -0.541041
H51   H     H_    0.920286 0.340611 0.341442 0.357040
S8    S     S_3+6 0.055868 0.426088 0.589224 0.059183
O74   O     O_2   0.999835 0.341145 0.616636 -0.234282
O75   O     O_2   0.103815 0.354640 0.541786 -0.247341
O76   O     O_3   0.102362 0.480549 0.658366 -0.562511
H52   H     H_    0.105332 0.411453 0.692660 0.363793

loop_
_geom_bond_atom_site_label_1
_geom_bond_atom_site_label_2
_ccdc_geom_bond_type
C52   H44   S    
C81   O49   A    
C62   C83   S    
C14   H26   S    
C58   C62   A    
C101  C102  A    
C56   C76   A    
C48   C95   S    
C55   C59   A    
C37   S5    S    
Cr6   O6    S    
C14   C18   A    
C89   O41   A    
S3    O59   D    
C86   O6    A    
C89   O13   A    
C72   C76   A    
C43   C51   A    
S4    O63   D    
C97   C98   A    
S3    O61   S    
O76   H52   S    
S1    O53   D    
C50   H42   S    
C15   C19   A    
C41   C86   S    
Cr4   O4    S    
S6    O70   S    
Cr4   O20   S    
O58   H46   S    
C7    C99   A    
C88   O12   A    
C43   C88   S    
Cr8   O52   S    
C81   O45   A    
C16   H28   S    
C5    C11   A    
C71   H19   S    
Cr12  O40   S    
C95   C99   A    
C12   S4    S    
Cr8   O32   S    
C77   O37   A    
Cr6   O18   S    
C59   H11   S    
S7    O71   D    
C80   O40   A    
S6    O69   D    
C29   C33   A    
O67   H49   S    
Cr12  O12   S    
C25   H33   S    
O70   H50   S    
C2    O22   A    
C15   C35   A    
C37   C42   A    
C68   H16   S    
C53   C73   A    
Cr2   O22   S    
Cr11  O15   S    
Cr1   O21   S    
C54   C74   A    
S2    O57   D    
Cr3   O19   S    
C40   C43   A    
C80   O4    A    
C20   C24   A    
C94   C101  A    
Cr5   O29   S    
Cr10  O18   S    
C70   C74   A    
C83   O47   A    
C47   C96   S    
C20   H32   S    
C69   C73   A    
C13   H25   S    
C44   C87   S    
C66   H14   S    
C9    C10   A    
C34   C78   S    
Cr3   O47   S    
C92   O44   A    
S8    O76   S    
C75   C91   S    
Cr8   O8    S    
Cr8   O20   S    
C55   C75   A    
C44   C52   A    
Cr9   O17   S    
C54   H6    S    
C32   H40   S    
C48   O36   A    
Cr7   O19   S    
Cr4   O48   S    
C49   H41   S    
Cr2   O46   S    
Cr6   O50   S    
C46   O30   A    
Cr5   O49   S    
C45   C94   S    
C32   C36   A    
C6    C12   A    
C41   C49   A    
S4    O62   D    
C40   S8    S    
C83   O51   A    
S8    O75   D    
C60   C64   A    
C46   O34   A    
Cr10  O14   S    
C39   S7    S    
S1    O54   D    
C25   C29   A    
C55   H7    S    
C71   C75   A    
C79   O39   A    
C30   C34   A    
C63   C82   S    
C27   C31   A    
C51   C52   A    
C6    C98   A    
Cr9   O37   S    
Cr7   O31   S    
C28   C32   A    
C62   C66   A    
O55   H45   S    
C38   C41   A    
Cr11  O11   S    
C36   C80   S    
C11   S3    S    
C39   C40   A    
C1    O21   A    
C82   O50   A    
Cr9   O9    S    
C9    S1    S    
Cr11  O39   S    
Cr6   O30   S    
C85   O9    A    
C56   C60   A    
Cr3   O23   S    
C68   C72   A    
C45   O33   A    
C6    H22   S    
S6    O68   D    
C19   C23   A    
C2    O26   A    
C63   C67   A    
Cr3   O43   S    
C37   C38   A    
Cr5   O17   S    
C65   H13   S    
C38   S6    S    
C84   O48   A    
C93   C97   A    
Cr1   O41   S    
C99   C100  A    
C60   H12   S    
C16   C20   A    
C26   H34   S    
C87   O11   A    
C7    C9    A    
C54   C58   A    
C91   O15   A    
O61   H47   S    
C42   C85   S    
C4    O24   A    
Cr1   O45   S    
S5    O66   D    
C69   H17   S    
Cr5   O5    S    
C42   C50   A    
C15   H27   S    
C26   C30   A    
Cr12  O16   S    
C45   O29   A    
O64   H48   S    
C76   C92   S    
C58   H10   S    
C23   C27   A    
Cr12  O20   S    
Cr11  O35   S    
C17   H29   S    
C49   C50   A    
Cr1   O1    S    
C59   C63   A    
C79   O3    A    
Cr7   O7    S    
Cr3   O3    S    
Cr11  O19   S    
C64   C68   A    
C103  C104  A    
C95   C104  A    
C10   S2    S    
S2    O58   S    
Cr9   O13   S    
Cr8   O28   S    
S5    O65   D    
S1    O55   S    
C47   O35   A    
Cr10  O10   S    
C21   C25   A    
O73   H51   S    
Cr6   O26   S    
S7    O73   S    
C53   C57   A    
Cr10  O34   S    
C27   H35   S    
C18   C22   A    
Cr9   O33   S    
Cr10  O38   S    
C92   O16   A    
C103  H3    S    
C24   C28   A    
Cr1   O17   S    
C18   H30   S    
C61   C84   S    
C102  H2    S    
C93   C102  A    
C14   C34   A    
C31   H39   S    
C11   C12   A    
C84   O52   A    
C57   C61   A    
C39   C44   A    
Cr4   O24   S    
C1    O25   A    
C87   O7    A    
C78   O38   A    
C90   O14   A    
Cr7   O27   S    
C82   O46   A    
C13   C17   A    
C8    H24   S    
Cr5   O25   S    
C101  H1    S    
C74   C90   S    
C28   H36   S    
C19   H31   S    
C8    C100  A    
C29   H37   S    
C85   O5    A    
C5    H21   S    
Cr4   O44   S    
C53   H5    S    
S8    O74   D    
C16   C36   A    
C57   H9    S    
C7    H23   S    
C4    C21   S    
S3    O60   D    
C33   C77   S    
S2    O56   D    
C66   C70   A    
C46   C93   S    
C3    O23   A    
C86   O10   A    
C65   C69   A    
C88   O8    A    
C96   C100  A    
C31   C35   A    
C51   H43   S    
C77   O1    A    
C5    C97   A    
C67   C71   A    
Cr2   O2    S    
C47   O31   A    
C67   H15   S    
S5    O67   S    
Cr7   O51   S    
C64   C81   S    
C48   O32   A    
C72   H20   S    
C73   C89   S    
Cr12  O36   S    
C61   C65   A    
C30   H38   S    
Cr2   O42   S    
C1    C24   S    
C8    C10   A    
C13   C33   A    
C22   C26   A    
C96   C103  A    
C2    C23   S    
C70   H18   S    
C94   C98   A    
C56   H8    S    
C3    C22   S    
C35   C79   S    
S7    O72   D    
C104  H4    S    
C3    O27   A    
Cr2   O18   S    
S4    O64   S    
C91   O43   A    
C4    O28   A    
C90   O42   A    
C78   O2    A    
C17   C21   A    
