data_mof_unit_13642.cif
_audit_creation_date              2013-03-05T15:41:55-0500
_audit_creation_method            fapswitch 2.2
_symmetry_space_group_name_H-M    P1
_symmetry_Int_Tables_number       1
_space_group_crystal_system       triclinic
_cell_length_a                    19.437896
_cell_length_b                    7.238566
_cell_length_c                    17.756458
_cell_angle_alpha                 90.000795
_cell_angle_beta                  107.613299
_cell_angle_gamma                 90.000024
_cell_volume                      2381.25509838

loop_
_atom_site_label
_atom_site_type_symbol
_atom_site_description
_atom_site_fract_x
_atom_site_fract_y
_atom_site_fract_z
_atom_type_partial_charge
O1    O     O_R   0.414820 0.494320 0.416790 -0.521746
O2    O     O_R   0.585180 0.994320 0.583210 -0.521695
O3    O     O_R   0.560270 0.819500 0.430140 -0.529901
O4    O     O_R   0.439730 0.319500 0.569860 -0.530041
C1    C     C_R   0.581709 0.655615 0.415553 0.917262
C2    C     C_R   0.418314 0.155611 0.584473 0.917257
O5    O     O_R   0.413840 0.823740 0.407440 -0.534006
O6    O     O_R   0.586160 0.323740 0.592560 -0.534063
O7    O     O_R   0.437710 0.998590 0.560350 -0.534022
O8    O     O_R   0.562290 0.498590 0.439650 -0.534069
C3    C     C_R   0.389038 0.654835 0.383646 0.889682
C4    C     C_R   0.610961 0.154836 0.616355 0.889832
O9    O     O_3   0.508000 0.662290 0.550200 -0.251873
O10   O     O_3   0.492000 0.162290 0.449800 -0.251782
V1    V     V_3+5 0.498520 0.935380 0.490690 1.376568
V2    V     V_3+5 0.501480 0.435380 0.509310 1.376524
C5    C     C_2   0.769707 0.240223 0.807799 0.272480
C6    C     C_2   0.230289 0.740236 0.192208 0.272450
C7    C     C_2   0.825273 0.121386 0.813082 0.176126
C8    C     C_2   0.174726 0.621388 0.186919 0.176177
C9    C     C_2   0.710464 0.277589 0.733351 0.336990
C10   C     C_2   0.289530 0.777593 0.266659 0.337021
C11   C     C_2   0.672948 0.136971 0.689367 -0.178832
C12   C     C_2   0.327052 0.636970 0.310633 -0.179049
H1    H     H_    0.687665 0.996525 0.709446 0.152557
H2    H     H_    0.312340 0.496527 0.290545 0.152555
C13   C     C_R   0.306808 0.267690 0.613210 0.383157
C14   C     C_R   0.693264 0.767807 0.386902 0.382224
C15   C     C_R   0.367508 0.149666 0.632352 -0.199263
C16   C     C_R   0.632584 0.649667 0.367749 -0.199005
C17   C     C_R   0.379126 0.025707 0.696094 0.308644
C18   C     C_R   0.621058 0.525497 0.304096 0.307991
C19   C     C_R   0.330347 0.020603 0.741107 -0.016377
C20   C     C_R   0.669816 0.520474 0.259072 -0.016072
C21   C     C_R   0.271829 0.146949 0.725113 -0.050452
C22   C     C_R   0.728334 0.646824 0.275066 -0.049650
C23   C     C_R   0.261612 0.277239 0.663038 -0.073224
C24   C     C_R   0.738612 0.777027 0.337207 -0.073679
C25   C     C_R   0.339941 0.892873 0.802992 -0.007259
C26   C     C_R   0.660199 0.392751 0.197177 -0.007425
C27   C     C_R   0.292433 0.885068 0.847814 0.387000
C28   C     C_R   0.707664 0.384988 0.152311 0.387202
C29   C     C_R   0.234059 0.009272 0.832812 0.055384
C30   C     C_R   0.766024 0.509210 0.167284 0.055344
C31   C     C_R   0.223528 0.141768 0.771411 -0.034578
C32   C     C_R   0.776594 0.641658 0.228713 -0.034542
C33   C     C_R   0.164663 0.267439 0.756222 -0.065529
C34   C     C_R   0.835452 0.767320 0.243857 -0.065714
C35   C     C_R   0.159393 0.408990 0.699397 0.295524
C36   C     C_R   0.840816 0.908704 0.300753 0.295817
C37   C     C_R   0.207212 0.413971 0.653547 0.304987
C38   C     C_R   0.793200 0.913344 0.346832 0.304794
C39   C     C_R   0.186520 0.004327 0.878486 -0.027114
C40   C     C_R   0.813514 0.504327 0.121553 -0.027242
C41   C     C_R   0.127186 0.122513 0.862807 -0.152245
C42   C     C_R   0.872846 0.622505 0.137210 -0.152236
C43   C     C_R   0.113933 0.248560 0.799508 0.407382
C44   C     C_R   0.886145 0.748475 0.200533 0.407402
H3    H     H_    0.384542 0.796442 0.817216 0.173666
H4    H     H_    0.615602 0.296308 0.182967 0.173566
H5    H     H_    0.194932 0.907616 0.926895 0.185088
H6    H     H_    0.805071 0.407657 0.073124 0.185115
O11   O     O_R   0.937810 0.773680 0.060480 -0.535781
O12   O     O_R   0.062190 0.273680 0.939520 -0.535772
O13   O     O_R   0.086190 0.439740 0.092580 -0.528209
O14   O     O_R   0.913810 0.939740 0.907420 -0.528204
C45   C     C_R   0.112184 0.608763 0.114664 0.875785
C46   C     C_R   0.887815 0.108761 0.885336 0.875787
O15   O     O_R   0.939760 0.444210 0.069890 -0.539695
O16   O     O_R   0.060240 0.944210 0.930110 -0.539689
O17   O     O_R   0.914790 0.269640 0.916760 -0.532290
O18   O     O_R   0.085210 0.769640 0.083240 -0.532278
C47   C     C_R   0.920353 0.612776 0.085966 0.883417
C48   C     C_R   0.079651 0.112777 0.914033 0.883384
O19   O     O_3   0.992050 0.601530 0.949880 -0.258248
O20   O     O_3   0.007950 0.101530 0.050120 -0.258244
V3    V     V_3+5 0.001480 0.328340 0.009300 1.336253
V4    V     V_3+5 0.998520 0.828340 0.990700 1.336261
Cl1   Cl    Cl    0.764437 0.365670 0.891476 -0.558407
Cl2   Cl    Cl    0.235558 0.865709 0.108539 -0.558482
Cl3   Cl    Cl    0.027887 0.356542 0.769042 -0.461340
Cl4   Cl    Cl    0.972235 0.856248 0.231044 -0.461487
N1    N     N_R   0.112401 0.564013 0.694823 0.142801
O21   O     O_R   0.125108 0.680723 0.753119 -0.323592
O22   O     O_R   0.057962 0.591371 0.631870 -0.172304
N2    N     N_R   0.887728 0.063881 0.305235 0.142886
O23   O     O_R   0.875058 0.180127 0.246778 -0.323243
O24   O     O_R   0.941885 0.092238 0.368364 -0.172764
N3    N     N_R   0.205990 0.574303 0.605693 0.141135
O25   O     O_R   0.259144 0.691553 0.625379 -0.324957
O26   O     O_R   0.151336 0.605427 0.543367 -0.172998
N4    N     N_R   0.794992 0.072861 0.395279 0.142266
O27   O     O_R   0.743130 0.193814 0.374920 -0.324799
O28   O     O_R   0.849351 0.100665 0.458292 -0.171842
Cl5   Cl    Cl    0.833162 0.997281 0.730387 -0.468345
Cl6   Cl    Cl    0.166839 0.497258 0.269607 -0.468383
N5    N     N_R   0.689663 0.466652 0.715311 0.121123
O29   O     O_R   0.738078 0.585779 0.710036 -0.245191
O30   O     O_R   0.629737 0.526718 0.724841 -0.262118
N6    N     N_R   0.310321 0.966657 0.284714 0.121144
O31   O     O_R   0.261903 0.085748 0.290013 -0.245085
O32   O     O_R   0.370237 0.026770 0.275176 -0.262194
Cl7   Cl    Cl    0.282496 0.376806 0.519103 -0.469209
Cl8   Cl    Cl    0.717163 0.877935 0.480788 -0.470129
N7    N     N_R   0.440531 0.904639 0.714812 0.089648
O33   O     O_R   0.505502 0.972805 0.737431 -0.329385
O34   O     O_R   0.431559 0.728225 0.701311 -0.293845
N8    N     N_R   0.559753 0.404102 0.285469 0.089524
O35   O     O_R   0.568877 0.227771 0.299113 -0.294700
O36   O     O_R   0.494722 0.471886 0.262715 -0.329126
Cl9   Cl    Cl    0.308401 0.713986 0.921988 -0.560129
Cl10  Cl    Cl    0.691655 0.213942 0.078116 -0.560036

loop_
_geom_bond_atom_site_label_1
_geom_bond_atom_site_label_2
_geom_bond_distance
_ccdc_geom_bond_type
O14   C46   1.336438 A    
C26   H4    1.081721 S    
C13   C15   1.412380 A    
C17   N7    1.436330 S    
O12   V3    1.992289 S    
C8    C45   1.479317 S    
O15   V3    2.020237 S    
O1    C3    1.330054 A    
O2    C4    1.330047 A    
C2    O7    1.309661 A    
N5    O29   1.300504 A    
C7    Cl5   1.767166 S    
C25   C27   1.390751 A    
O5    C3    1.335088 A    
N7    O34   1.301255 A    
C4    C11   1.484561 S    
C19   C25   1.404681 A    
C20   C26   1.404712 A    
C21   C23   1.418224 A    
C12   H2    1.086627 S    
C44   Cl4   1.775864 S    
C23   C37   1.420667 A    
N2    O24   1.301031 A    
O16   V4    2.020247 S    
C3    C12   1.484559 S    
C5    Cl1   1.770520 S    
N8    O35   1.301269 A    
C45   O18   1.328659 A    
C31   C33   1.422228 A    
C13   Cl7   1.778087 S    
C28   Cl10  1.765595 S    
N4    O27   1.301133 A    
O18   V4    2.011069 S    
C5    C7    1.361618 D    
C41   C48   1.481451 S    
C39   H5    1.081957 S    
C29   C39   1.402304 A    
C42   C44   1.409469 A    
O13   C45   1.336436 A    
O16   C48   1.333380 A    
C36   C38   1.409093 A    
C17   C19   1.413441 A    
O15   C47   1.333327 A    
N3    O26   1.301005 A    
C20   C22   1.419676 A    
C34   C36   1.419546 A    
C8    Cl6   1.767164 S    
O6    V2    2.018674 S    
C27   C29   1.408475 A    
C28   C30   1.408376 A    
N6    O32   1.301467 A    
N5    O30   1.301467 A    
C30   C32   1.419685 A    
C32   C34   1.422114 A    
C39   C41   1.394708 A    
O14   V4    2.018584 S    
C40   C42   1.394660 A    
O13   V3    2.018568 S    
C10   N6    1.435486 S    
O20   V3    1.783672 S    
C33   C35   1.419835 A    
N2    O23   1.300556 A    
O11   C47   1.330199 A    
C35   C37   1.409258 A    
O19   V4    1.783653 S    
C5    C9    1.491825 S    
C18   C20   1.413243 A    
O4    V2    2.020210 S    
C41   C43   1.409577 A    
C33   C43   1.428450 A    
C9    N5    1.435488 S    
C14   Cl8   1.778126 S    
N1    O21   1.300557 A    
C14   C24   1.425072 A    
O6    C4    1.335091 A    
C25   H3    1.081711 S    
N4    O28   1.301304 A    
C7    C46   1.479321 S    
O1    V2    2.010893 S    
C22   C32   1.423406 A    
O2    V1    2.010883 S    
C29   C31   1.419642 A    
O4    C2    1.308948 A    
N1    O22   1.301020 A    
C9    C11   1.353924 D    
C27   Cl9   1.765580 S    
C10   C12   1.353927 D    
C38   N4    1.433996 S    
C22   C24   1.418525 A    
C21   C31   1.423311 A    
O17   V3    2.011060 S    
O3    V1    2.020199 S    
C1    C16   1.486032 S    
C42   C47   1.481277 S    
C6    C10   1.491815 S    
C26   C28   1.390640 A    
O3    C1    1.308950 A    
C34   C44   1.428329 A    
C40   H6    1.081960 S    
N7    O33   1.301057 A    
C35   N1    1.433616 S    
C14   C16   1.412581 A    
O7    V1    2.005313 S    
C1    O8    1.309683 A    
C15   C17   1.408009 A    
O8    V2    2.005320 S    
C37   N3    1.434348 S    
C16   C18   1.407918 A    
C13   C23   1.424708 A    
C46   O17   1.328654 A    
O5    V1    2.018657 S    
N6    O31   1.300503 A    
C19   C21   1.419665 A    
N8    O36   1.301065 A    
C6    C8    1.361611 D    
C11   H1    1.086625 S    
C43   Cl3   1.775810 S    
C36   N2    1.433740 S    
C30   C40   1.402283 A    
C2    C15   1.485942 S    
C24   C38   1.420910 A    
C6    Cl2   1.770518 S    
C18   N8    1.436324 S    
O9    V2    1.784747 S    
O12   C48   1.330226 A    
O10   V1    1.784766 S    
N3    O25   1.300560 A    
O11   V4    1.992296 S    
