data_mof_unit_60660.cif
_audit_creation_date              2012-12-10T19:02:13-0500
_audit_creation_method            fapswitch 2.2
_symmetry_space_group_name_H-M    P1
_symmetry_Int_Tables_number       1
_space_group_crystal_system       triclinic
_cell_length_a                    13.366195
_cell_length_b                    14.260376
_cell_length_c                    16.807822
_cell_angle_alpha                 90.009749
_cell_angle_beta                  85.678249
_cell_angle_gamma                 90.008963
_cell_volume                      3194.57851011

loop_
_atom_site_label
_atom_site_type_symbol
_atom_type_description
_atom_site_fract_x
_atom_site_fract_y
_atom_site_fract_z
_atom_type_partial_charge
C1    C     C_R   0.500008 0.673458 0.499959 0.935621
C2    C     C_R   0.499994 0.326537 0.499988 0.928533
C3    C     C_1   0.500017 0.774098 0.499906 -0.223735
C4    C     C_1   0.499984 0.225888 0.499968 -0.225665
C5    C     C_1   0.500012 0.858658 0.499880 -0.000824
C6    C     C_1   0.499984 0.141325 0.499940 -0.002119
C7    C     C_1   0.500000 0.957712 0.499881 0.013823
C8    C     C_1   0.499991 0.042269 0.499902 0.013332
C9    C     C_1   0.830585 0.500005 0.500016 0.069801
C10   C     C_1   0.169415 0.500007 0.499985 0.068293
C11   C     C_1   0.950475 0.500009 0.500005 -0.045337
C12   C     C_1   0.049525 0.500011 0.499995 -0.045121
C13   C     C_R   0.487193 0.498304 0.655604 0.902124
C14   C     C_R   0.512729 0.502091 0.344250 0.891879
C15   C     C_R   0.479667 0.507691 0.741679 -0.072949
C16   C     C_R   0.519706 0.537103 0.262921 -0.063033
C17   C     C_R   0.565585 0.496009 0.783246 -0.245294
C18   C     C_R   0.438562 0.587534 0.236258 -0.242899
C19   C     C_R   0.561811 0.513266 0.864733 0.051699
C20   C     C_R   0.444883 0.626457 0.160376 0.036285
C21   C     C_R   0.471074 0.544892 0.904370 0.133638
C22   C     C_R   0.532326 0.612103 0.109768 0.130960
C23   C     C_R   0.384290 0.551961 0.863269 -0.169609
C24   C     C_R   0.616022 0.568191 0.138633 -0.156187
C25   C     C_R   0.388461 0.533589 0.782073 -0.198539
C26   C     C_R   0.609864 0.530885 0.215236 -0.202914
C27   C     C_2   0.462370 0.565593 0.989363 -0.214897
C28   C     C_2   0.529535 0.618779 0.023523 -0.214309
H1    H     H_    0.635574 0.473616 0.752108 0.159684
H2    H     H_    0.370381 0.596997 0.274666 0.162351
H3    H     H_    0.674153 0.494925 0.236363 0.154418
H4    H     H_    0.321302 0.542231 0.750541 0.159589
H5    H     H_    0.313786 0.573660 0.893837 0.148432
H6    H     H_    0.683507 0.556819 0.099974 0.157390
N1    N     N_1   0.738130 0.500000 0.500020 -0.064263
N2    N     N_1   0.261870 0.500000 0.499980 -0.065184
O1    O     O_R   0.423530 0.626280 0.499990 -0.595525
O2    O     O_R   0.576470 0.373720 0.500010 -0.595063
O3    O     O_R   0.576470 0.626280 0.500010 -0.590720
O4    O     O_R   0.423530 0.373720 0.499990 -0.592206
O5    O     O_R   0.414510 0.500000 0.615790 -0.611839
O6    O     O_R   0.585490 0.500000 0.384210 -0.606152
O7    O     O_R   0.567420 0.500000 0.615810 -0.609482
O8    O     O_R   0.432580 0.500000 0.384190 -0.609985
Zn1   Zn    Zn3+2 0.397910 0.500000 0.499990 0.968895
Zn2   Zn    Zn3+2 0.602090 0.500000 0.500010 0.972615
H7    H     H_    0.592161 0.650496 0.988333 0.163860
H8    H     H_    0.401241 0.532173 0.025198 0.163490
C29   C     C_1   0.359905 0.677673 0.134413 0.147879
N3    N     N_1   0.291868 0.718658 0.113594 -0.196352
C30   C     C_1   0.650470 0.494174 0.906192 0.138633
N4    N     N_1   0.721564 0.478720 0.939223 -0.213020

loop_
_geom_bond_atom_site_label_1
_geom_bond_atom_site_label_2
_ccdc_geom_bond_type
C27   H8    S    
C1    C3    S    
C2    C4    S    
C11   C12   T    
C28   H7    S    
C15   C17   A    
C20   C29   S    
C18   H2    S    
C19   C30   S    
C17   H1    S    
C2    O2    A    
C13   O7    A    
C14   O6    A    
C25   H4    S    
C13   O5    A    
C21   C27   S    
C7    C8    T    
C16   C18   A    
C22   C28   S    
C9    C11   S    
C10   N2    T    
C10   C12   S    
O3    Zn2   S    
N2    Zn1   S    
C22   C24   A    
C4    C6    T    
C19   C21   A    
C24   C26   A    
C18   C20   A    
C13   C15   S    
C21   C23   A    
C16   C26   A    
O4    Zn1   S    
O7    Zn2   S    
C14   C16   S    
O2    Zn2   S    
C15   C25   A    
C1    O3    A    
O1    Zn1   S    
C30   N4    T    
C2    O4    A    
C26   H3    S    
C23   C25   A    
O8    Zn1   S    
C14   O8    A    
C29   N3    T    
O6    Zn2   S    
C27   C28   D    
C5    C7    S    
O5    Zn1   S    
C17   C19   A    
C9    N1    T    
C6    C8    S    
C23   H5    S    
N1    Zn2   S    
C24   H6    S    
C20   C22   A    
C1    O1    A    
C3    C5    T    
