data_mof_unit_35477.cif
_audit_creation_date              2012-12-10T17:57:24-0500
_audit_creation_method            fapswitch 2.2
_symmetry_space_group_name_H-M    P1
_symmetry_Int_Tables_number       1
_space_group_crystal_system       triclinic
_cell_length_a                    9.517213
_cell_length_b                    10.806409
_cell_length_c                    13.452708
_cell_angle_alpha                 90.137044
_cell_angle_beta                  72.523884
_cell_angle_gamma                 89.902061
_cell_volume                      1319.69872628

loop_
_atom_site_label
_atom_site_type_symbol
_atom_type_description
_atom_site_fract_x
_atom_site_fract_y
_atom_site_fract_z
_atom_type_partial_charge
C1    C     C_R   0.499764 0.737734 0.500431 0.791385
C2    C     C_R   0.432887 0.512648 0.979778 0.084377
C3    C     C_R   0.468206 0.544314 0.872845 0.087978
C4    C     C_R   0.541019 0.530908 0.032080 0.076651
C5    C     C_R   0.676405 0.589559 0.979610 0.166074
C6    C     C_R   0.700609 0.633528 0.878697 -0.237239
C7    C     C_R   0.596728 0.613576 0.826953 -0.197290
C8    C     C_R   0.519189 0.492233 0.134976 -0.241988
C9    C     C_R   0.757682 0.571527 0.133349 -0.201881
C10   C     C_R   0.372604 0.507499 0.815101 -0.107413
C11   C     C_R   0.585387 0.933037 0.555024 -0.156366
C12   C     C_R   0.421156 0.505398 0.700232 0.772638
C13   C     C_R   0.582807 0.061893 0.561426 -0.002260
C14   C     C_R   0.496318 0.128070 0.510004 -0.110904
C15   C     C_R   0.408209 0.064759 0.459870 -0.164393
C16   C     C_R   0.408230 0.936918 0.457500 -0.171134
C17   C     C_R   0.498485 0.871251 0.503563 -0.066127
C18   C     C_R   0.900563 0.583163 0.559063 -0.002137
C19   C     C_R   0.049092 0.582638 0.559573 -0.017833
C20   C     C_R   0.099922 0.417569 0.440090 -0.010177
C21   C     C_R   0.950993 0.417440 0.440285 -0.017126
C22   C     C_R   0.498306 0.262235 0.504531 0.772602
C23   C     C_R   0.578660 0.501516 0.299982 0.803881
C24   C     C_R   0.784629 0.606881 0.029844 -0.194571
C25   C     C_R   0.622889 0.517346 0.186906 -0.052297
C26   C     C_R   0.232870 0.460246 0.867641 -0.188007
C27   C     C_R   0.191148 0.442462 0.974591 -0.153086
C28   C     C_R   0.290360 0.465396 0.030089 -0.182634
Cu1   Cu    Cu3+1 0.359340 0.499980 0.500000 0.947926
Cu2   Cu    Cu3+1 0.640660 0.500020 0.500000 0.942361
H1    H     H_    0.839210 0.591425 0.172601 0.157259
H2    H     H_    0.341077 0.114339 0.420731 0.148443
H3    H     H_    0.340354 0.889411 0.417740 0.152614
H4    H     H_    0.825084 0.650648 0.605570 0.112496
H5    H     H_    0.084801 0.648825 0.607356 0.124161
H6    H     H_    0.176469 0.351610 0.392005 0.113604
H7    H     H_    0.915299 0.351388 0.392397 0.123346
H8    H     H_    0.800104 0.684061 0.839598 0.144827
H9    H     H_    0.888300 0.651164 0.989994 0.142559
H10   H     H_    0.420991 0.443773 0.177728 0.140119
H11   H     H_    0.156615 0.433906 0.825624 0.164046
H12   H     H_    0.250475 0.447682 0.112546 0.123464
H13   H     H_    0.082597 0.406761 0.014381 0.149159
H14   H     H_    0.616631 0.656250 0.751605 0.156483
H15   H     H_    0.650660 0.880133 0.593620 0.169640
N1    N     N_R   0.147940 0.499970 0.499970 -0.160355
N2    N     N_R   0.852060 0.500060 0.499990 -0.161716
O1    O     O_R   0.381250 0.680340 0.500010 -0.583062
O2    O     O_R   0.618820 0.680370 0.500010 -0.590466
O3    O     O_R   0.323240 0.499950 0.650980 -0.578428
O4    O     O_R   0.560810 0.499980 0.650980 -0.586410
O5    O     O_R   0.381180 0.319630 0.499990 -0.574257
O6    O     O_R   0.618750 0.319660 0.499990 -0.593983
O7    O     O_R   0.439190 0.500020 0.349020 -0.584089
O8    O     O_R   0.676760 0.500050 0.349020 -0.581618
C29   C     C_2   0.663251 0.123656 0.626957 0.354535
H16   H     H_    0.635044 0.216978 0.655861 0.100648
O9    O     O_2   0.760800 0.069726 0.651388 -0.554027

loop_
_geom_bond_atom_site_label_1
_geom_bond_atom_site_label_2
_ccdc_geom_bond_type
C12   O3    A    
Cu2   O4    S    
C6    H8    S    
C9    C24   A    
C23   O8    A    
C6    C7    A    
C16   H3    S    
C11   C13   A    
Cu2   O8    S    
C1    C17   S    
Cu1   N1    S    
C4    C8    A    
C13   C29   S    
C18   N2    A    
C14   C22   S    
C2    C3    A    
C19   N1    A    
C9    C25   A    
C15   H2    S    
C1    O1    A    
C3    C10   A    
C19   H5    S    
C13   C14   A    
C29   H16   S    
C8    C25   A    
C18   H4    S    
C10   C26   A    
C26   C27   A    
Cu1   Cu2   S    
C5    C24   A    
C10   C12   S    
C2    C4    A    
C28   H12   S    
Cu2   O2    S    
C29   O9    D    
C22   O6    A    
C3    C7    A    
Cu1   O3    S    
C23   C25   S    
C5    C6    A    
Cu2   O6    S    
C11   H15   S    
Cu1   O7    S    
C9    H1    S    
Cu1   O1    S    
C15   C16   A    
C20   H6    S    
C27   H13   S    
Cu2   N2    S    
C4    C5    A    
C12   O4    A    
C21   H7    S    
C20   C21   A    
C23   O7    A    
C22   O5    A    
C18   C19   A    
C27   C28   A    
C14   C15   A    
C11   C17   A    
C2    C28   A    
C8    H10   S    
C7    H14   S    
C1    O2    A    
C24   H9    S    
C20   N1    A    
C26   H11   S    
C16   C17   A    
C21   N2    A    
Cu1   O5    S    
