data_mof_unit_31263.cif
_audit_creation_date              2012-12-11T15:10:40-0500
_audit_creation_method            fapswitch 2.2
_symmetry_space_group_name_H-M    P1
_symmetry_Int_Tables_number       1
_space_group_crystal_system       triclinic
_cell_length_a                    21.191217
_cell_length_b                    7.231166
_cell_length_c                    18.360996
_cell_angle_alpha                 89.725388
_cell_angle_beta                  92.942932
_cell_angle_gamma                 90.007125
_cell_volume                      2809.84481448

loop_
_atom_site_label
_atom_site_type_symbol
_atom_type_description
_atom_site_fract_x
_atom_site_fract_y
_atom_site_fract_z
_atom_type_partial_charge
O1    O     O_R   0.448880 0.506250 0.415280 -0.532050
O2    O     O_R   0.551120 0.006250 0.584720 -0.527641
O3    O     O_R   0.434830 0.174000 0.557310 -0.507416
O4    O     O_R   0.565170 0.674000 0.442690 -0.525940
C1    C     C_R   0.417148 0.344382 0.579904 0.707193
C2    C     C_R   0.582804 0.844656 0.420064 0.705994
O5    O     O_R   0.441680 0.176440 0.414130 -0.527618
O6    O     O_R   0.558320 0.676440 0.585870 -0.533747
O7    O     O_R   0.558020 0.007570 0.440520 -0.505443
O8    O     O_R   0.441980 0.507570 0.559480 -0.524897
C3    C     C_R   0.426013 0.345696 0.390061 0.676532
C4    C     C_R   0.574495 0.845427 0.609446 0.672778
O9    O     O_3   0.538160 0.339670 0.508820 -0.353181
O10   O     O_3   0.461840 0.839670 0.491180 -0.358570
V1    V     V_3+5 0.492920 0.064260 0.498360 1.496079
V2    V     V_3+5 0.507080 0.564260 0.501640 1.457587
C5    C     C_R   0.878914 0.019605 0.692223 -0.153830
C6    C     C_R   0.116619 0.359243 0.308170 -0.152632
H1    H     H_    0.965103 0.043506 0.757227 0.108856
H2    H     H_    0.030172 0.391826 0.244038 0.107169
H3    H     H_    0.800795 0.071697 0.580309 0.129318
H4    H     H_    0.190109 0.253472 0.418863 0.129611
H5    H     H_    0.900818 0.070043 0.643885 0.115475
H6    H     H_    0.091892 0.325851 0.356774 0.115245
C7    C     C_R   0.888886 0.944497 0.820328 -0.034678
C8    C     C_R   0.111286 0.434554 0.179785 -0.033462
C9    C     C_R   0.589093 0.777155 0.739112 -0.147729
C10   C     C_R   0.416942 0.411141 0.259661 -0.149651
C11   C     C_R   0.624558 0.750856 0.803798 -0.123948
C12   C     C_R   0.383944 0.455554 0.194817 -0.122875
C13   C     C_R   0.688500 0.793342 0.808533 -0.148792
C14   C     C_R   0.318326 0.453380 0.190175 -0.148392
C15   C     C_R   0.719037 0.868953 0.748560 0.075535
C16   C     C_R   0.283268 0.400395 0.250294 0.075088
C17   C     C_R   0.681959 0.902941 0.681575 0.022459
C18   C     C_R   0.317383 0.345934 0.317078 0.023385
C19   C     C_R   0.785453 0.911451 0.753502 0.073054
C20   C     C_R   0.215281 0.400761 0.245835 0.073739
C21   C     C_R   0.814238 0.977506 0.690498 0.127317
C22   C     C_R   0.182868 0.356475 0.309219 0.126573
C23   C     C_R   0.778153 0.011770 0.626706 -0.226952
C24   C     C_R   0.216137 0.298594 0.372497 -0.224073
C25   C     C_R   0.713046 0.985449 0.622642 -0.087826
C26   C     C_R   0.281702 0.282770 0.375789 -0.085370
C27   C     C_R   0.824519 0.895271 0.818916 -0.214550
C28   C     C_R   0.177825 0.439119 0.180570 -0.213040
C29   C     C_R   0.915692 0.004550 0.756656 -0.162979
C30   C     C_R   0.081282 0.397202 0.244051 -0.162618
C31   C     C_R   0.616155 0.850323 0.677265 -0.088342
C32   C     C_R   0.385366 0.358669 0.321578 -0.086343
H7    H     H_    0.806193 0.852958 0.870051 0.095342
H8    H     H_    0.198532 0.464868 0.129107 0.093416
H9    H     H_    0.539802 0.736248 0.736861 0.105870
H10   H     H_    0.468035 0.422186 0.262075 0.104465
H11   H     H_    0.712940 0.762784 0.860023 0.107818
H12   H     H_    0.296387 0.496670 0.138715 0.107704
H13   H     H_    0.602458 0.692575 0.850580 0.118568
H14   H     H_    0.409585 0.497334 0.147951 0.118324
C33   C     C_1   0.864577 0.938368 0.132129 -0.208383
C34   C     C_1   0.135457 0.439524 0.867829 -0.208151
C35   C     C_1   0.821721 0.924376 0.175894 -0.002344
C36   C     C_1   0.178294 0.425371 0.824058 -0.001723
C37   C     C_1   0.771136 0.905503 0.227992 -0.001724
C38   C     C_1   0.228845 0.405923 0.771953 -0.001021
C39   C     C_1   0.728525 0.889104 0.271954 -0.001433
C40   C     C_1   0.271420 0.388975 0.727995 -0.000432
C41   C     C_1   0.677919 0.870214 0.324016 0.003830
C42   C     C_1   0.321999 0.369548 0.675931 0.004100
C43   C     C_1   0.635035 0.856224 0.367735 -0.179440
C44   C     C_1   0.364876 0.355426 0.632220 -0.178429
O11   O     O_R   0.058070 0.289240 0.940580 -0.520076
O12   O     O_R   0.941930 0.789240 0.059420 -0.520229
O13   O     O_R   0.058330 0.616740 0.085880 -0.533778
O14   O     O_R   0.941670 0.116740 0.914120 -0.533946
C45   C     C_R   0.072122 0.447931 0.111223 0.683798
C46   C     C_R   0.928040 0.948932 0.888776 0.684754
O15   O     O_R   0.065180 0.619040 0.942700 -0.522986
O16   O     O_R   0.934820 0.119040 0.057300 -0.522991
O17   O     O_R   0.948870 0.787780 0.915270 -0.531433
O18   O     O_R   0.051130 0.287780 0.084730 -0.530250
C47   C     C_R   0.083202 0.450547 0.920178 0.705180
C48   C     C_R   0.916812 0.950104 0.079804 0.705835
O19   O     O_3   0.961870 0.453310 0.991210 -0.366437
O20   O     O_3   0.038130 0.953310 0.008790 -0.365905
V3    V     V_3+5 0.007070 0.728770 0.001630 1.416988
V4    V     V_3+5 0.992930 0.228770 0.998370 1.417202
C49   C     C_1   0.681584 0.073139 0.560538 0.277484
N1    N     N_1   0.659353 0.150921 0.510478 -0.320939
C50   C     C_1   0.307483 0.172920 0.435743 0.277140
N2    N     N_1   0.325658 0.079571 0.483617 -0.330169

loop_
_geom_bond_atom_site_label_1
_geom_bond_atom_site_label_2
_ccdc_geom_bond_type
C2    C43   S    
C40   C42   S    
C49   N1    T    
C37   C39   T    
C9    C11   A    
C23   C25   A    
O1    C3    A    
C46   O17   A    
O2    C4    A    
C2    O7    A    
O12   V3    S    
O3    V1    S    
C21   C23   A    
O5    C3    A    
C5    H5    S    
O14   C46   A    
C6    H6    S    
H1    C29   S    
C27   H7    S    
C28   H8    S    
C34   C36   T    
C5    C21   A    
C35   C37   S    
C6    C22   A    
C36   C38   S    
C10   C32   A    
C39   C41   S    
C17   C31   A    
O18   V4    S    
C33   C48   S    
C12   C14   A    
C17   C25   A    
C45   O18   A    
C7    C29   A    
C8    C30   A    
O16   V4    S    
O5    V1    S    
O15   V3    S    
O6    V2    S    
O13   C45   A    
C24   C26   A    
C4    C31   S    
C33   C35   T    
O20   V3    S    
O4    C2    A    
C10   H10   S    
C15   C19   A    
C41   C43   T    
C14   C16   A    
O4    V2    S    
C1    C44   S    
O11   V4    S    
C34   C47   S    
O16   C48   A    
O15   C47   A    
O6    C4    A    
C13   C15   A    
C8    C45   S    
O1    V2    S    
O14   V4    S    
O2    V1    S    
O13   V3    S    
H2    C30   S    
H3    C23   S    
C42   C44   T    
C11   H13   S    
C18   C26   A    
C19   C27   A    
C7    C27   A    
O17   V3    S    
C18   C32   A    
C16   C20   A    
C5    C29   A    
O3    C1    A    
C6    C30   A    
C9    H9    S    
C7    C46   S    
C25   C49   S    
C10   C12   A    
O7    V1    S    
C1    O8    A    
C19   C21   A    
C3    C32   S    
O8    V2    S    
C20   C22   A    
H4    C24   S    
C12   H14   S    
C22   C24   A    
C15   C17   A    
C16   C18   A    
C20   C28   A    
C8    C28   A    
O19   V4    S    
C11   C13   A    
O9    V2    S    
O10   V1    S    
C13   H11   S    
C50   N2    T    
C14   H12   S    
O12   C48   A    
C26   C50   S    
C9    C31   A    
C38   C40   T    
O11   C47   A    
