data_mof_unit_29682.cif
_audit_creation_date              2012-12-10T17:18:12-0500
_audit_creation_method            fapswitch 2.2
_symmetry_space_group_name_H-M    P1
_symmetry_Int_Tables_number       1
_space_group_crystal_system       triclinic
_cell_length_a                    10.312484
_cell_length_b                    10.768434
_cell_length_c                    14.798559
_cell_angle_alpha                 92.999063
_cell_angle_beta                  81.422012
_cell_angle_gamma                 95.448167
_cell_volume                      1616.42977137

loop_
_atom_site_label
_atom_site_type_symbol
_atom_type_description
_atom_site_fract_x
_atom_site_fract_y
_atom_site_fract_z
_atom_type_partial_charge
C1    C     C_R   0.555250 0.732009 0.491594 0.918744
C2    C     C_2   0.071410 0.481515 0.495471 -0.054250
C3    C     C_R   0.500153 0.502315 0.672396 0.875718
C4    C     C_R   0.499732 0.497303 0.327604 0.881536
C5    C     C_R   0.510249 0.386136 0.181449 -0.258536
C6    C     C_R   0.482664 0.611976 0.819337 -0.267914
C7    C     C_R   0.501503 0.497585 0.232220 -0.039533
C8    C     C_R   0.498387 0.501748 0.767756 -0.029236
C9    C     C_R   0.498891 0.610660 0.192626 -0.263636
C10   C     C_R   0.514545 0.390680 0.805973 -0.244505
C11   C     C_R   0.498834 0.614062 0.098920 0.073377
C12   C     C_R   0.444656 0.267643 0.502995 0.936719
C13   C     C_R   0.511625 0.386547 0.899887 0.066202
C14   C     C_R   0.502190 0.499817 0.046672 0.034437
C15   C     C_R   0.499799 0.499528 0.953073 0.031858
C16   C     C_R   0.511265 0.386123 0.087992 0.107799
C17   C     C_R   0.488628 0.612979 0.912026 0.112884
C18   C     C_R   0.498804 0.728215 0.055962 -0.016388
C19   C     C_R   0.524356 0.273923 0.941376 -0.017716
C20   C     C_R   0.526571 0.849737 0.103969 0.139488
C21   C     C_R   0.432579 0.897769 0.172132 -0.188899
C22   C     C_R   0.468499 0.000929 0.227446 -0.143799
C23   C     C_R   0.489816 0.726109 0.962933 -0.289432
C24   C     C_R   0.597247 0.057580 0.214056 -0.124571
C25   C     C_R   0.689347 0.013595 0.143645 -0.162358
C26   C     C_R   0.654254 0.910078 0.088673 -0.138734
C27   C     C_R   0.545439 0.156169 0.887141 0.137907
C28   C     C_R   0.444317 0.094493 0.843302 -0.180656
C29   C     C_R   0.469892 0.992415 0.782996 -0.149684
C30   C     C_R   0.595955 0.950887 0.766755 -0.122120
C31   C     C_R   0.695768 0.009280 0.812553 -0.158132
C32   C     C_R   0.670671 0.111492 0.872763 -0.149716
C33   C     C_R   0.115748 0.376929 0.432228 0.206862
C34   C     C_R   0.522515 0.274730 0.035651 -0.286172
C35   C     C_R   0.090437 0.252984 0.459857 -0.144970
C36   C     C_R   0.116732 0.153827 0.396747 -0.176933
C37   C     C_R   0.166375 0.177195 0.305642 -0.145045
C38   C     C_R   0.190140 0.299695 0.277238 -0.156792
C39   C     C_R   0.163888 0.398905 0.339895 -0.087683
C40   C     C_R   0.875384 0.511115 0.617717 0.206694
C41   C     C_R   0.884219 0.420180 0.680747 -0.158934
C42   C     C_R   0.853937 0.446376 0.774642 -0.147514
C43   C     C_R   0.816102 0.563854 0.806391 -0.095973
C44   C     C_R   0.805625 0.654405 0.744255 -0.158766
C45   C     C_2   0.585772 0.863410 0.477529 -0.371078
C46   C     C_R   0.834241 0.628264 0.650186 -0.083945
C47   C     C_R   0.128314 0.665429 0.584777 0.266131
C48   C     C_R   0.146863 0.682369 0.676788 -0.106079
C49   C     C_R   0.127159 0.796815 0.723434 -0.190062
C50   C     C_R   0.089883 0.895421 0.678255 -0.124407
C51   C     C_R   0.073610 0.880008 0.586160 -0.178998
C52   C     C_R   0.094831 0.766057 0.538852 -0.216117
C53   C     C_R   0.882865 0.456119 0.367135 0.273302
C54   C     C_R   0.861055 0.350096 0.310290 -0.113174
C55   C     C_R   0.884846 0.358724 0.215199 -0.159492
C56   C     C_2   0.413708 0.134641 0.496053 -0.367678
C57   C     C_R   0.928042 0.473646 0.176363 -0.101574
C58   C     C_R   0.946305 0.580401 0.232554 -0.170344
C59   C     C_R   0.922207 0.572200 0.327665 -0.167726
C60   C     C_2   0.487469 0.931262 0.468420 -0.136641
C61   C     C_2   0.511188 0.063808 0.465598 -0.172228
C62   C     C_2   0.925009 0.488187 0.519703 -0.056969
H1    H     H_    0.313566 0.094495 0.516902 0.156756
H2    H     H_    0.788772 0.057848 0.132915 0.120601
H3    H     H_    0.727937 0.873916 0.036553 0.123442
H4    H     H_    0.347272 0.128080 0.853569 0.127585
H5    H     H_    0.392614 0.946672 0.747806 0.145822
H6    H     H_    0.616216 0.873597 0.718593 0.117350
H7    H     H_    0.793248 0.976835 0.800198 0.121977
H8    H     H_    0.749704 0.158252 0.905878 0.117346
H9    H     H_    0.488630 0.813279 0.929741 0.178004
H10   H     H_    0.531023 0.188464 0.067914 0.180373
H11   H     H_    0.611783 0.103169 0.444951 0.185077
H12   H     H_    0.686433 0.904883 0.475869 0.144952
H13   H     H_    0.386412 0.890571 0.470283 0.194003
H14   H     H_    0.049479 0.233089 0.529764 0.108095
H15   H     H_    0.097120 0.058560 0.417763 0.121569
H16   H     H_    0.184424 0.100293 0.256727 0.126726
H17   H     H_    0.225808 0.317803 0.206201 0.147543
H18   H     H_    0.177379 0.493121 0.315747 0.139095
H19   H     H_    0.916561 0.329809 0.657308 0.112353
H20   H     H_    0.861113 0.376023 0.822848 0.127992
H21   H     H_    0.793822 0.584409 0.879131 0.131035
H22   H     H_    0.776101 0.745026 0.769156 0.127284
H23   H     H_    0.513999 0.300109 0.215260 0.135376
H24   H     H_    0.827282 0.699853 0.602915 0.131763
H25   H     H_    0.173918 0.606175 0.712861 0.147378
H26   H     H_    0.140177 0.808824 0.794694 0.131161
H27   H     H_    0.073737 0.983787 0.714545 0.120408
H28   H     H_    0.044276 0.956461 0.551802 0.124910
H29   H     H_    0.084969 0.755943 0.467033 0.114328
H30   H     H_    0.825079 0.261258 0.339889 0.111479
H31   H     H_    0.868852 0.276626 0.171607 0.122109
H32   H     H_    0.945925 0.480227 0.102749 0.124736
H33   H     H_    0.977550 0.669743 0.202428 0.131788
H34   H     H_    0.471322 0.697072 0.786406 0.131239
H35   H     H_    0.932214 0.655996 0.370572 0.117481
H36   H     H_    0.496839 0.694590 0.236152 0.153789
H37   H     H_    0.528646 0.308571 0.761390 0.156218
H38   H     H_    0.333943 0.851756 0.185189 0.124497
H39   H     H_    0.397666 0.035068 0.282206 0.145162
H40   H     H_    0.625813 0.135396 0.258282 0.123854
N1    N     N_2   0.842700 0.448880 0.462930 -0.169075
N2    N     N_2   0.157300 0.551120 0.537070 -0.162668
O1    O     O_R   0.431060 0.692470 0.507460 -0.609882
O2    O     O_R   0.568940 0.307530 0.492540 -0.620301
O3    O     O_R   0.651120 0.659650 0.483670 -0.629852
O4    O     O_R   0.348880 0.340350 0.516330 -0.607331
O5    O     O_R   0.389960 0.516440 0.644050 -0.631974
O6    O     O_R   0.610040 0.483560 0.355950 -0.604241
O7    O     O_R   0.610030 0.483620 0.620260 -0.602337
O8    O     O_R   0.389970 0.516380 0.379740 -0.629182
Zn1   Zn    Zn3+2 0.353060 0.521920 0.515880 0.933910
Zn2   Zn    Zn3+2 0.646940 0.478080 0.484120 0.935722

loop_
_geom_bond_atom_site_label_1
_geom_bond_atom_site_label_2
_ccdc_geom_bond_type
C11   C18   A    
C9    H36   S    
C43   H21   S    
C41   C42   A    
C35   C36   A    
C42   H20   S    
C55   H31   S    
C53   C59   A    
C45   C60   D    
C53   C54   A    
C40   C46   A    
C28   C29   A    
C33   C39   A    
C22   H39   S    
O2    Zn2   S    
C22   C24   A    
O1    Zn1   S    
C36   C37   A    
C37   C38   A    
C3    O5    A    
C36   H15   S    
C51   H28   S    
C30   C31   A    
C11   C14   A    
C38   H17   S    
C40   C62   S    
C15   C17   A    
C5    C16   A    
C16   C34   A    
C29   H5    S    
C31   C32   A    
C3    O7    A    
C19   C27   S    
O6    Zn2   S    
C24   H40   S    
O5    Zn1   S    
C5    H23   S    
C4    O8    A    
C21   C22   A    
C49   H26   S    
C4    C7    S    
O8    Zn1   S    
C44   C46   A    
C35   H14   S    
C48   H25   S    
C13   C19   A    
C18   C23   A    
C23   H9    S    
N1    Zn2   S    
C24   C25   A    
C3    C8    S    
C12   O4    A    
C21   H38   S    
C6    C8    A    
C61   H11   S    
C58   C59   A    
C10   C13   A    
C51   C52   A    
C60   C61   S    
C25   H2    S    
O4    Zn1   S    
C28   H4    S    
C58   H33   S    
O3    Zn2   S    
C54   H30   S    
C29   C30   A    
C50   H27   S    
C47   C48   A    
C2    N2    D    
C41   H19   S    
C50   C51   A    
C56   H1    S    
C17   C23   A    
C9    C11   A    
C12   C56   S    
C1    O3    A    
C2    C33   S    
C48   C49   A    
C6    H34   S    
C57   H32   S    
C55   C57   A    
C43   C44   A    
C59   H35   S    
C14   C16   A    
C42   C43   A    
C34   H10   S    
C5    C7    A    
C62   N1    D    
C7    C9    A    
C6    C17   A    
C4    O6    A    
C54   C55   A    
C40   C41   A    
C47   N2    S    
C27   C32   A    
C56   C61   D    
C26   H3    S    
C44   H22   S    
C19   C34   A    
C32   H8    S    
C47   C52   A    
C37   H16   S    
C60   H13   S    
C39   H18   S    
C13   C15   A    
C25   C26   A    
C12   O2    A    
C1    C45   S    
C57   C58   A    
C38   C39   A    
C20   C26   A    
C53   N1    S    
C33   C35   A    
O7    Zn2   S    
C18   C20   S    
C10   H37   S    
N2    Zn1   S    
C31   H7    S    
C20   C21   A    
C8    C10   A    
C49   C50   A    
C27   C28   A    
C14   C15   A    
C45   H12   S    
C52   H29   S    
C30   H6    S    
C2    C62   S    
C1    O1    A    
C46   H24   S    
