data_mof_unit_50538.cif
_audit_creation_date              2013-03-05T15:43:51-0500
_audit_creation_method            fapswitch 2.2
_symmetry_space_group_name_H-M    P1
_symmetry_Int_Tables_number       1
_space_group_crystal_system       triclinic
_cell_length_a                    13.750905
_cell_length_b                    13.833132
_cell_length_c                    27.252082
_cell_angle_alpha                 90.891446
_cell_angle_beta                  90.089006
_cell_angle_gamma                 59.937336
_cell_volume                      4485.83900675

loop_
_atom_site_label
_atom_site_type_symbol
_atom_site_description
_atom_site_fract_x
_atom_site_fract_y
_atom_site_fract_z
_atom_type_partial_charge
O1    O     O_R   0.301710 0.195650 0.554160 -0.477339
O2    O     O_R   0.522390 0.158990 0.550460 -0.477957
C1    C     C_R   0.621260 0.100789 0.569876 0.558584
O3    O     O_R   0.694390 0.003530 0.554040 -0.480419
O4    O     O_R   0.657700 0.819660 0.549320 -0.480864
C2    C     C_R   0.598606 0.780241 0.568341 0.559380
O5    O     O_R   0.501930 0.803280 0.552920 -0.479577
O6    O     O_R   0.318170 0.023580 0.549580 -0.485718
C3    C     C_R   0.278048 0.122244 0.569060 0.555285
O7    O     O_R   0.303010 0.193990 0.446760 -0.506278
O8    O     O_R   0.523600 0.157450 0.450900 -0.485775
C4    C     C_R   0.622467 0.097036 0.431252 0.536834
O9    O     O_R   0.695690 0.001860 0.446640 -0.502934
O10   O     O_R   0.658900 0.818120 0.449760 -0.492106
C5    C     C_R   0.602993 0.773524 0.431195 0.544786
O11   O     O_R   0.503220 0.801620 0.445520 -0.446157
O12   O     O_R   0.319370 0.022040 0.450020 -0.479410
C6    C     C_R   0.277646 0.121858 0.431375 0.535871
Cr1   Cr    Cr6+3 0.417550 0.169090 0.500530 1.117832
Cr2   Cr    Cr6+3 0.669180 0.913420 0.499920 1.119652
Cr3   Cr    Cr6+3 0.413260 0.917540 0.499520 1.143450
O13   O     O_3   0.499990 0.000010 0.499990 -0.304516
C7    C     C_3   0.743797 0.577801 0.734722 0.190354
C8    C     C_3   0.771974 0.650884 0.768514 0.197606
C9    C     C_1   0.697944 0.613003 0.901583 0.109439
C10   C     C_1   0.625959 0.732579 0.615924 0.105074
C11   C     C_3   0.652256 0.593080 0.772837 0.198819
C12   C     C_3   0.683538 0.663104 0.806765 -0.056646
C13   C     C_3   0.561881 0.699801 0.748212 -0.103187
C14   C     C_3   0.652613 0.685911 0.711101 -0.037273
C15   C     C_3   0.593728 0.770274 0.782318 -0.092713
C16   C     C_3   0.683382 0.757572 0.743937 0.213594
C17   C     C_1   0.692068 0.642033 0.859685 0.111888
C18   C     C_1   0.638216 0.705718 0.658196 0.115690
H1    H     H_    0.536665 0.842136 0.806172 0.229685
H2    H     H_    0.475953 0.717985 0.738597 0.242289
C19   C     C_3   0.081392 0.147091 0.736336 0.168368
C20   C     C_3   0.169542 0.063870 0.772152 0.172632
C21   C     C_1   0.099774 0.197667 0.902960 0.101561
C22   C     C_1   0.226942 0.141736 0.616316 0.105494
C23   C     C_3   0.063567 0.242831 0.772061 0.196932
C24   C     C_3   0.150916 0.159287 0.807923 -0.081421
C25   C     C_3   0.154454 0.256739 0.746178 0.166981
C26   C     C_3   0.173945 0.160200 0.710908 -0.035021
C27   C     C_3   0.243918 0.172021 0.781982 -0.117699
C28   C     C_3   0.260580 0.076367 0.746277 0.170659
C29   C     C_1   0.129075 0.173936 0.860816 0.097964
C30   C     C_1   0.197021 0.153456 0.658371 0.123529
H3    H     H_    0.311686 0.178967 0.800956 0.221858
C31   C     C_3   0.661416 0.253487 0.743035 0.189272
C32   C     C_3   0.563183 0.265804 0.775044 0.151687
C33   C     C_1   0.681213 0.205110 0.906377 0.104734
C34   C     C_1   0.643308 0.131409 0.617749 0.107958
C35   C     C_3   0.748586 0.170065 0.779836 0.159297
C36   C     C_3   0.649561 0.181543 0.811573 -0.075033
C37   C     C_3   0.751643 0.070542 0.751432 0.166428
C38   C     C_3   0.665979 0.154981 0.714274 -0.067707
C39   C     C_3   0.652997 0.083472 0.783409 0.179989
C40   C     C_3   0.568489 0.166151 0.746474 0.155893
C41   C     C_1   0.657826 0.193727 0.864847 0.112992
C42   C     C_1   0.659291 0.144876 0.660394 0.133370
C43   C     C_R   0.747426 0.671865 0.363166 0.131830
C44   C     C_R   0.759634 0.649518 0.311821 -0.026496
C45   C     C_R   0.772446 0.639884 0.208005 -0.009531
C46   C     C_R   0.871540 0.585585 0.236351 0.255948
C47   C     C_R   0.865355 0.594303 0.288013 0.250152
C48   C     C_R   0.774111 0.645309 0.155952 0.223927
C49   C     C_R   0.683931 0.648217 0.130020 0.010459
C50   C     C_R   0.561035 0.695282 0.358127 0.217679
C51   C     C_R   0.560688 0.705988 0.307055 -0.034808
C52   C     C_R   0.662238 0.680305 0.283537 -0.089205
C53   C     C_R   0.461788 0.742709 0.279380 0.239386
C54   C     C_R   0.465870 0.748881 0.228116 0.179798
C55   C     C_R   0.569676 0.710327 0.204155 0.006912
C56   C     C_R   0.667922 0.678291 0.231928 -0.040438
C57   C     C_R   0.579654 0.691509 0.153316 -0.080658
C58   C     C_R   0.642369 0.705003 0.385454 -0.015683
H4    H     H_    0.509507 0.699198 0.132233 0.210964
C59   C     C_R   0.178912 0.087514 0.361341 -0.068797
C60   C     C_R   0.157701 0.097462 0.310750 0.011333
C61   C     C_R   0.127393 0.106425 0.208147 0.002084
C62   C     C_R   0.094828 0.043895 0.238068 0.252822
C63   C     C_R   0.113849 0.037227 0.288359 -0.039138
C64   C     C_R   0.114383 0.111473 0.156760 0.184807
H5    H     H_    0.167284 0.028675 0.382796 0.176435
H6    H     H_    0.088807 0.988688 0.310463 0.192722
C65   C     C_R   0.123170 0.194417 0.130903 0.005824
C66   C     C_R   0.223949 0.234178 0.356576 -0.031472
C67   C     C_R   0.220065 0.233512 0.305441 -0.000657
C68   C     C_R   0.184139 0.165904 0.282139 0.009568
C69   C     C_R   0.257644 0.293518 0.277457 0.221793
C70   C     C_R   0.263049 0.281746 0.226085 0.255339
C71   C     C_R   0.210650 0.228249 0.201896 0.002523
C72   C     C_R   0.173001 0.167869 0.230673 -0.069896
C73   C     C_R   0.186264 0.239862 0.150845 0.198747
C74   C     C_R   0.220105 0.150454 0.383655 -0.009884
H7    H     H_    0.239832 0.293900 0.375395 0.225970
C75   C     C_R   0.600852 0.231415 0.367201 -0.058424
C76   C     C_R   0.606910 0.251117 0.317616 0.024470
C77   C     C_R   0.615293 0.289922 0.218278 0.067161
C78   C     C_R   0.553451 0.379675 0.250948 0.215374
C79   C     C_R   0.551069 0.360305 0.300567 -0.019991
C80   C     C_R   0.646149 0.305646 0.172013 0.167245
H8    H     H_    0.554985 0.300383 0.392918 0.172839
H9    H     H_    0.501023 0.429919 0.325293 0.216550
C81   C     C_R   0.678263 0.221096 0.136083 0.054719
C82   C     C_R   0.707195 0.032080 0.349828 -0.083908
C83   C     C_R   0.717585 0.049855 0.300451 -0.024157
C84   C     C_R   0.660850 0.160001 0.283911 0.016489
C85   C     C_R   0.781139 0.959984 0.267305 0.182466
C86   C     C_R   0.766660 0.979304 0.216163 0.196761
C87   C     C_R   0.703152 0.090186 0.199176 0.027688
C88   C     C_R   0.659001 0.179726 0.233802 -0.017276
C89   C     C_R   0.692596 0.116987 0.148867 0.188157
C90   C     C_R   0.646277 0.122169 0.382728 0.004361
H10   H     H_    0.739070 0.947356 0.362036 0.183093
O14   O     O_R   0.818720 0.150820 0.967160 -0.466273
O15   O     O_R   0.006410 0.181720 0.970200 -0.484627
C91   C     C_R   0.048937 0.236299 0.950278 0.548891
O16   O     O_R   0.027890 0.334070 0.964920 -0.476418
O17   O     O_R   0.809600 0.521790 0.967960 -0.478399
C92   C     C_R   0.711788 0.563018 0.948689 0.556099
O18   O     O_R   0.635520 0.542770 0.964420 -0.482910
O19   O     O_R   0.665950 0.325030 0.970100 -0.489958
C93   C     C_R   0.720665 0.225035 0.952082 0.558821
O20   O     O_R   0.816620 0.158530 0.074540 -0.432850
O21   O     O_R   0.004460 0.188870 0.069750 -0.459153
C94   C     C_R   0.051491 0.242685 0.087011 0.578635
O22   O     O_R   0.025800 0.341780 0.072300 -0.434289
O23   O     O_R   0.807650 0.528950 0.067500 -0.440494
C95   C     C_R   0.706815 0.577900 0.085189 0.585687
O24   O     O_R   0.633420 0.550490 0.071810 -0.481240
O25   O     O_R   0.664000 0.332180 0.069640 -0.467778
C96   C     C_R   0.718699 0.235168 0.088996 0.591574
Cr4   Cr    Cr6+3 0.909170 0.177380 0.020380 1.196246
Cr5   Cr    Cr6+3 0.912710 0.429210 0.018220 1.196691
Cr6   Cr    Cr6+3 0.657170 0.432570 0.019030 1.149098
O26   O     O_3   0.826350 0.346390 0.019210 -0.322318
N1    N     N_R   0.883125 0.633176 0.780039 0.161890
O27   O     O_R   0.941684 0.645805 0.745968 -0.175490
O28   O     O_R   0.915115 0.625097 0.825447 -0.211706
Br1   Br    Br    0.129577 0.401212 0.726526 -0.159972
N2    N     N_R   0.956502 0.335120 0.788274 0.127505
O29   O     O_R   0.864799 0.343989 0.770994 -0.209269
O30   O     O_R   0.951790 0.403518 0.822656 -0.284618
Br2   Br    Br    0.424743 0.394989 0.798000 -0.169542
N3    N     N_R   0.661566 0.343548 0.716236 0.141972
O31   O     O_R   0.566123 0.432959 0.707539 -0.243743
O32   O     O_R   0.745937 0.319736 0.687459 -0.229572
N4    N     N_R   0.472132 0.167682 0.723270 0.123798
O33   O     O_R   0.374838 0.257156 0.727713 -0.269997
O34   O     O_R   0.488064 0.100881 0.686205 -0.284079
N5    N     N_R   0.643529 0.997776 0.809750 0.124331
O35   O     O_R   0.734369 0.907699 0.822730 -0.240526
O36   O     O_R   0.549289 0.024525 0.831740 -0.319508
Br3   Br    Br    0.895233 0.936834 0.737090 -0.131115
Br4   Br    Br    0.881157 0.148983 0.814857 -0.296028
N6    N     N_R   0.856994 0.660355 0.129482 0.121427
O37   O     O_R   0.940496 0.660156 0.151885 -0.169465
O38   O     O_R   0.834068 0.701509 0.085572 -0.266178
Br5   Br    Br    0.848482 0.470572 0.686480 -0.266111
N7    N     N_R   0.840074 0.662767 0.391259 -0.117839
O39   O     O_R   0.861198 0.620430 0.434918 -0.000006
O40   O     O_R   0.861196 0.620433 0.434919 -0.000006
N8    N     N_R   0.975727 0.505843 0.213690 0.105818
O41   O     O_R   0.977270 0.436581 0.180496 -0.338190
O42   O     O_R   0.067170 0.508203 0.223154 -0.176992
N9    N     N_R   0.965874 0.532274 0.315864 0.108259
O43   O     O_R   0.033334 0.571459 0.322850 -0.160658
O44   O     O_R   0.981975 0.444609 0.339563 -0.334861
Br6   Br    Br    0.328367 0.810143 0.191383 -0.286704
N10   N     N_R   0.355535 0.784268 0.303565 0.107043
O45   O     O_R   0.325963 0.860047 0.337878 -0.355201
O46   O     O_R   0.290333 0.743908 0.293107 -0.164918
N11   N     N_R   0.506307 0.640803 0.379848 0.115395
O47   O     O_R   0.564761 0.533731 0.386749 -0.349103
O48   O     O_R   0.408677 0.697718 0.401235 -0.205306
N12   N     N_R   0.114611 0.021539 0.129342 0.122297
O49   O     O_R   0.199138 0.961089 0.100125 -0.271843
O50   O     O_R   0.021767 0.020229 0.122373 -0.198377
N13   N     N_R   0.026526 0.001143 0.220034 0.118383
O51   O     O_R   0.922907 0.072653 0.209452 -0.342606
O52   O     O_R   0.053937 0.898715 0.229520 -0.168151
Br7   Br    Br    0.706321 0.864916 0.708996 -0.291560
Br8   Br    Br    0.232230 0.318464 0.106485 -0.221673
N14   N     N_R   0.333435 0.312523 0.200025 0.110260
O53   O     O_R   0.428592 0.235004 0.181704 -0.340961
O54   O     O_R   0.301710 0.417003 0.193126 -0.143567
N15   N     N_R   0.299747 0.358886 0.300887 0.087035
O55   O     O_R   0.374758 0.316074 0.335038 -0.398413
O56   O     O_R   0.260889 0.462604 0.289241 -0.142783
Br9   Br    Br    0.698580 0.410563 0.168162 -0.449437
Br10  Br    Br    0.449156 0.524085 0.227437 -0.241618
Br11  Br    Br    0.687233 0.021696 0.097557 -0.311729
N16   N     N_R   0.830406 0.888314 0.182622 -0.020739
O57   O     O_R   0.909296 0.886058 0.155475 -0.000000
O58   O     O_R   0.909296 0.886058 0.155475 -0.000000
N17   N     N_R   0.870973 0.855260 0.285454 0.090143
O59   O     O_R   0.915023 0.765485 0.258095 -0.232184
O60   O     O_R   0.925479 0.854742 0.324647 -0.259343
N18   N     N_R   0.620941 0.516122 0.793961 0.134984
O61   O     O_R   0.514527 0.549109 0.796953 -0.238577
O62   O     O_R   0.688588 0.439293 0.823757 -0.273072
N19   N     N_R   0.181380 0.957112 0.785810 0.136835
O63   O     O_R   0.197589 0.882877 0.752094 -0.193388
O64   O     O_R   0.175569 0.935539 0.831630 -0.250860
Br12  Br    Br    0.981445 0.122058 0.695000 -0.258596
N20   N     N_R   0.367042 0.983871 0.730077 0.104495
O65   O     O_R   0.458464 0.978475 0.745500 -0.276971
O66   O     O_R   0.371182 0.915367 0.695836 -0.315689

loop_
_geom_bond_atom_site_label_1
_geom_bond_atom_site_label_2
_geom_bond_distance
_ccdc_geom_bond_type
C31   N3    1.454776 S    
Cr4   O26   2.024488 S    
C52   C56   1.407809 A    
C66   C74   1.405984 A    
C23   C24   1.540831 S    
O25   Cr6   1.941164 S    
N8    O41   1.299785 A    
C11   C13   1.537619 S    
C6    C74   1.474107 S    
N18   O61   1.298574 A    
C43   C58   1.413005 A    
C50   C58   1.403032 A    
N3    O31   1.300090 A    
C64   C65   1.411357 A    
C37   Br3   1.947654 S    
C94   O22   1.302331 A    
C87   C89   1.414033 A    
C61   C62   1.422933 A    
C80   C81   1.403560 A    
N11   O48   1.300401 A    
O4    Cr2   1.944128 S    
C5    C58   1.482098 S    
C27   C28   1.551464 S    
C37   C38   1.559462 S    
C28   N20   1.443237 S    
C69   N15   1.437337 S    
C62   N13   1.421074 S    
O8    Cr1   1.935439 S    
C78   C79   1.386193 A    
C55   C57   1.399913 A    
C81   C89   1.401873 A    
C53   N10   1.431536 S    
N3    O32   1.296711 A    
C19   C20   1.542865 S    
O21   Cr4   1.936218 S    
C23   N2    1.447041 S    
O4    C2    1.296308 A    
C21   C91   1.429764 S    
C38   C40   1.543677 S    
C85   N17   1.447988 S    
N2    O29   1.293015 A    
C76   C84   1.418428 A    
C46   N8    1.431399 S    
C83   C84   1.400953 A    
C79   H9    1.082724 S    
N2    O30   1.299441 A    
C54   C55   1.406296 A    
N15   O56   1.300110 A    
O15   C91   1.289506 A    
C87   C88   1.416064 A    
C33   C41   1.205476 T    
C85   C86   1.418088 A    
C34   C42   1.211256 T    
C10   C18   1.201469 T    
C15   C16   1.557575 S    
C78   Br10  1.903817 S    
N20   O65   1.291498 A    
C65   C73   1.406288 A    
C7    C8    1.543574 S    
N17   O59   1.297695 A    
C7    C11   1.561665 S    
C54   Br6   1.926270 S    
C9    C92   1.434337 S    
C23   C25   1.531131 S    
C66   H7    1.077262 S    
C84   C88   1.394434 A    
C4    C90   1.451365 S    
C66   C67   1.394550 A    
N9    O44   1.300650 A    
C44   C47   1.411652 A    
N8    O42   1.299440 A    
C20   N19   1.456727 S    
C36   C41   1.469749 S    
C1    C34   1.443483 S    
N6    O38   1.302169 A    
N18   O62   1.299297 A    
C50   C51   1.401706 A    
C60   C63   1.384449 A    
C65   C94   1.486580 S    
N10   O46   1.300982 A    
C68   C72   1.409850 A    
C77   C78   1.402656 A    
N7    O40   1.301220 A    
N13   O52   1.300974 A    
C8    N1    1.456211 S    
C35   C37   1.550893 S    
O1    Cr1   2.052455 S    
C51   C53   1.411736 A    
C55   C56   1.414835 A    
C14   C18   1.466294 S    
C57   H4    1.081316 S    
C48   C49   1.409598 A    
C45   C48   1.422530 A    
N12   O49   1.300993 A    
O19   Cr6   1.940230 S    
Cr1   O13   2.024432 S    
O1    C3    1.283009 A    
Cr5   O26   2.021789 S    
C70   N14   1.430660 S    
C67   C68   1.401929 A    
C69   C70   1.404664 A    
O6    C3    1.293416 A    
C26   C28   1.529758 S    
C32   Br2   1.941498 S    
C31   C32   1.543695 S    
C39   C40   1.540217 S    
N13   O51   1.298977 A    
C62   C63   1.390676 A    
C3    C22   1.423814 S    
O12   Cr3   1.939503 S    
N16   O57   1.301133 A    
O16   Cr5   2.051762 S    
C24   C27   1.548764 S    
N6    O37   1.298413 A    
C49   C95   1.481680 S    
C25   C26   1.543151 S    
C8    C16   1.528938 S    
C13   C14   1.540810 S    
C7    C14   1.540075 S    
C39   N5    1.455640 S    
O10   Cr2   1.938173 S    
O22   Cr5   2.053556 S    
N11   O47   1.300247 A    
C13   H2    1.109689 S    
C27   H3    1.109799 S    
O7    Cr1   2.052216 S    
N1    O27   1.299755 A    
C76   C79   1.394837 A    
C43   C44   1.420205 A    
O12   C6    1.311929 A    
C2    C10   1.426289 S    
C71   C72   1.426735 A    
C31   C35   1.555864 S    
C4    O9    1.269160 A    
C91   O16   1.289797 A    
C64   N12   1.439847 S    
C25   C27   1.557655 S    
C82   C90   1.407231 A    
O17   C92   1.284011 A    
C51   C52   1.409121 A    
N14   O53   1.300354 A    
N20   O66   1.300209 A    
N9    O43   1.300222 A    
C44   C52   1.415888 A    
C12   C17   1.468658 S    
C46   C47   1.410255 A    
O25   C96   1.286233 A    
N4    O34   1.300386 A    
N5    O36   1.300192 A    
Cr2   O13   2.013795 S    
C82   C83   1.392010 A    
N14   O54   1.300396 A    
O21   C94   1.290044 A    
O14   Cr4   2.054538 S    
C59   H5    1.084161 S    
C61   C64   1.409892 A    
N10   O45   1.297018 A    
C73   Br8   1.942952 S    
C21   C29   1.202644 T    
N7    O39   1.301219 A    
C40   N4    1.457964 S    
C19   Br12  1.933303 S    
C22   C30   1.199133 T    
C35   C36   1.552492 S    
C89   Br11  1.933391 S    
O9    Cr2   2.059521 S    
O2    Cr1   1.935814 S    
C11   N18   1.459190 S    
C31   C38   1.535034 S    
C16   Br7   1.930107 S    
C12   C15   1.536441 S    
O23   Cr5   1.935367 S    
C77   C88   1.401865 A    
C8    C12   1.544838 S    
N19   O64   1.300165 A    
C53   C54   1.403910 A    
O6    Cr3   1.934994 S    
O20   Cr4   2.053390 S    
N12   O50   1.299482 A    
C33   C93   1.434831 S    
C83   C85   1.415694 A    
O11   Cr3   2.052334 S    
C38   C42   1.479901 S    
C2    O5    1.274124 A    
C49   C57   1.395858 A    
Cr6   O26   2.013649 S    
O18   Cr6   2.059573 S    
N4    O33   1.293558 A    
C47   N9    1.432338 S    
C45   C46   1.416700 A    
C19   C26   1.539720 S    
O2    C1    1.300353 A    
O24   Cr6   2.056960 S    
C59   C74   1.387535 A    
C13   C15   1.550573 S    
O5    Cr3   2.058615 S    
C95   O24   1.293541 A    
C35   Br4   1.946728 S    
C14   C16   1.534235 S    
C61   C72   1.417473 A    
N1    O28   1.300264 A    
C75   C90   1.387917 A    
C43   N7    1.436771 S    
C86   C87   1.417198 A    
O7    C6    1.276031 A    
C75   H8    1.084843 S    
C5    O11   1.283922 A    
C15   H1    1.107468 S    
C67   C69   1.410067 A    
C70   C71   1.420894 A    
C45   C56   1.414285 A    
C37   C39   1.545047 S    
O23   C95   1.290234 A    
C48   N6    1.451719 S    
C32   C36   1.551058 S    
C24   C29   1.462986 S    
C77   C80   1.385527 A    
O17   Cr5   1.937985 S    
C19   C23   1.548326 S    
N15   O55   1.297306 A    
C82   H10   1.083232 S    
C20   C28   1.522372 S    
C59   C60   1.403296 A    
O3    Cr2   2.055081 S    
C20   C24   1.542759 S    
C26   C30   1.458389 S    
C81   C96   1.453337 S    
C63   H6    1.084962 S    
C32   C40   1.542014 S    
N19   O63   1.300177 A    
O20   C96   1.284775 A    
C71   C73   1.423144 A    
C75   C76   1.393480 A    
C36   C39   1.528162 S    
C9    C17   1.205394 T    
C11   C12   1.538379 S    
C92   O18   1.289008 A    
O10   C5    1.300693 A    
C25   Br1   1.935380 S    
N17   O60   1.301905 A    
C80   Br9   1.921059 S    
C50   N11   1.438111 S    
N16   O58   1.301134 A    
N5    O35   1.300402 A    
Cr3   O13   2.021532 S    
O14   C93   1.290499 A    
C60   C68   1.416051 A    
O15   Cr4   1.936565 S    
C1    O3    1.278808 A    
O8    C4    1.297469 A    
C86   N16   1.431588 S    
O19   C93   1.287576 A    
C7    Br5   1.951090 S    
