data_mof_unit_39411.cif
_audit_creation_date              2012-12-10T20:05:28-0500
_audit_creation_method            fapswitch 2.2
_symmetry_space_group_name_H-M    P1
_symmetry_Int_Tables_number       1
_space_group_crystal_system       triclinic
_cell_length_a                    15.885815
_cell_length_b                    15.889297
_cell_length_c                    34.37475
_cell_angle_alpha                 89.93077
_cell_angle_beta                  89.970277
_cell_angle_gamma                 90.148487
_cell_volume                      8676.64636461

loop_
_atom_site_label
_atom_site_type_symbol
_atom_type_description
_atom_site_fract_x
_atom_site_fract_y
_atom_site_fract_z
_atom_type_partial_charge
C1    C     C_R   0.500005 0.999955 0.355966 0.501316
C2    C     C_R   0.660059 0.839911 0.750022 0.503567
C3    C     C_R   0.872038 0.404462 0.020992 0.006814
C4    C     C_R   0.608764 0.110817 0.978263 -0.000994
C5    C     C_R   0.382423 0.902310 0.020887 0.009616
C6    C     C_R   0.862123 0.418192 0.980232 0.012908
C7    C     C_R   0.161394 0.471712 0.019795 0.011844
C8    C     C_3   0.848409 0.558628 0.403118 -0.236499
C9    C     C_3   0.798951 0.475949 0.398185 -0.272407
C10   C     C_3   0.717849 0.490065 0.375360 -0.436116
C11   C     C_3   0.039454 0.344368 0.602846 -0.264945
C12   C     C_3   0.953477 0.308802 0.615320 -0.300477
C13   C     C_R   0.839949 0.339963 0.250018 0.503866
C14   C     C_3   0.963709 0.225309 0.636831 -0.460282
C15   C     C_3   0.340728 0.978527 0.399660 -0.259014
C16   C     C_3   0.336567 0.882722 0.393850 -0.292668
C17   C     C_3   0.257963 0.857196 0.371189 -0.446754
C18   C     C_3   0.653941 0.041790 0.600072 -0.260627
C19   C     C_3   0.645535 0.137995 0.601978 -0.289930
C20   C     C_3   0.721808 0.177895 0.621715 -0.451977
C21   C     C_3   0.151565 0.441464 0.403134 -0.236456
C22   C     C_3   0.200959 0.524188 0.398107 -0.272365
C23   C     C_3   0.282109 0.510155 0.375285 -0.436061
C24   C     C_R   0.160031 0.660054 0.749976 0.502199
C25   C     C_3   0.960555 0.655633 0.602707 -0.264918
C26   C     C_3   0.046475 0.691231 0.615166 -0.300412
C27   C     C_3   0.036111 0.774619 0.636663 -0.460058
C28   C     C_3   0.659269 0.021178 0.399581 -0.258967
C29   C     C_3   0.663503 0.116986 0.393685 -0.292585
C30   C     C_3   0.742090 0.142469 0.370934 -0.446746
C31   C     C_3   0.346082 0.958286 0.600202 -0.260562
C32   C     C_3   0.354541 0.862073 0.602080 -0.289872
C33   C     C_3   0.278297 0.822005 0.621848 -0.451819
C34   C     C_3   0.541383 0.156675 0.897351 -0.258500
C35   C     C_R   0.660074 0.839896 0.249991 0.505716
C36   C     C_3   0.455960 0.189985 0.882988 -0.300771
C37   C     C_3   0.462848 0.281016 0.869038 -0.464781
C38   C     C_3   0.336042 0.002815 0.094454 -0.222554
C39   C     C_3   0.324350 0.097131 0.103472 -0.270017
C40   C     C_3   0.323514 0.150984 0.066526 -0.451624
C41   C     C_3   0.845749 0.522616 0.901593 -0.260993
C42   C     C_3   0.849140 0.619286 0.899234 -0.295042
C43   C     C_3   0.775678 0.653802 0.875513 -0.446995
C44   C     C_3   0.139982 0.576301 0.097827 -0.247039
C45   C     C_3   0.106825 0.667196 0.096259 -0.277881
C46   C     C_R   0.339944 0.160118 0.750018 0.504658
C47   C     C_3   0.106377 0.702566 0.054841 -0.444960
C48   C     C_3   0.452922 0.848240 0.900812 -0.258136
C49   C     C_3   0.539810 0.809911 0.892070 -0.294338
C50   C     C_3   0.592766 0.798645 0.928864 -0.430994
C51   C     C_3   0.658604 0.034060 0.094534 -0.229473
C52   C     C_3   0.688978 0.943178 0.100941 -0.278130
C53   C     C_3   0.773326 0.941598 0.122137 -0.435336
C54   C     C_3   0.155775 0.541639 0.899554 -0.254495
C55   C     C_3   0.145527 0.637788 0.899976 -0.289037
C56   C     C_3   0.219832 0.681748 0.880332 -0.449632
C57   C     C_R   0.160035 0.660066 0.250000 0.505378
C58   C     C_3   0.843220 0.476216 0.101135 -0.261439
C59   C     C_3   0.817616 0.568467 0.107222 -0.299368
C60   C     C_3   0.733650 0.574799 0.128609 -0.453826
C61   C     C_3   0.106606 0.292414 0.461552 -0.262364
C62   C     C_3   0.046893 0.225027 0.478027 -0.294041
C63   C     C_3   0.047117 0.145619 0.453007 -0.464594
C64   C     C_3   0.816909 0.646715 0.539429 -0.262384
C65   C     C_3   0.739781 0.603158 0.521384 -0.295704
C66   C     C_3   0.659960 0.620739 0.544740 -0.456995
C67   C     C_3   0.675862 0.858598 0.457982 -0.255272
C68   C     C_R   0.840018 0.339883 0.749964 0.503581
C69   C     C_3   0.613844 0.784055 0.458340 -0.290780
C70   C     C_3   0.636307 0.718318 0.427738 -0.459954
C71   C     C_3   0.289107 0.106153 0.542579 -0.254332
C72   C     C_3   0.201103 0.067475 0.535973 -0.305531
C73   C     C_3   0.140118 0.091140 0.568483 -0.467104
C74   C     C_3   0.893290 0.707574 0.461394 -0.262338
C75   C     C_3   0.952850 0.775044 0.477812 -0.294114
C76   C     C_3   0.952404 0.854543 0.452767 -0.464648
C77   C     C_3   0.183079 0.353197 0.539471 -0.262368
C78   C     C_3   0.260251 0.396598 0.521300 -0.295772
C79   C     C_R   0.339913 0.839998 0.749989 0.500805
C80   C     C_3   0.340083 0.378893 0.544608 -0.457091
C81   C     C_3   0.323959 0.141130 0.457830 -0.255293
C82   C     C_3   0.385771 0.215839 0.458186 -0.290859
C83   C     C_3   0.363248 0.281618 0.427551 -0.460013
C84   C     C_3   0.710708 0.893753 0.542672 -0.254310
C85   C     C_3   0.798775 0.932247 0.535937 -0.305619
C86   C     C_3   0.859756 0.908519 0.568434 -0.467147
C87   C     C_3   0.300750 0.870023 0.958775 -0.260852
C88   C     C_3   0.219670 0.912153 0.973473 -0.295949
C89   C     C_3   0.142317 0.876972 0.952722 -0.458244
C90   C     C_R   0.660098 0.159985 0.250023 0.502799
C91   C     C_3   0.628094 0.199093 0.038928 -0.262493
C92   C     C_3   0.552855 0.241615 0.058980 -0.291530
C93   C     C_3   0.577870 0.325972 0.076819 -0.465464
C94   C     C_3   0.215485 0.392615 0.959711 -0.256819
C95   C     C_3   0.189455 0.302575 0.971202 -0.292661
C96   C     C_3   0.253107 0.238018 0.956649 -0.459884
C97   C     C_3   0.843918 0.321300 0.039320 -0.259600
C98   C     C_3   0.902267 0.249475 0.026287 -0.292484
C99   C     C_3   0.880004 0.166466 0.046234 -0.465024
C100  C     C_3   0.692924 0.134079 0.959352 -0.262500
C101  C     C_R   0.839908 0.660048 0.750010 0.500048
C102  C     C_3   0.738229 0.055544 0.944043 -0.291323
C103  C     C_3   0.825994 0.077320 0.928923 -0.452939
C104  C     C_3   0.341285 0.830563 0.043972 -0.252136
C105  C     C_3   0.407461 0.775751 0.064551 -0.292734
C106  C     C_3   0.367205 0.720869 0.095958 -0.459865
C107  C     C_3   0.788046 0.376255 0.959671 -0.252868
C108  C     C_3   0.704317 0.417183 0.971982 -0.301316
C109  C     C_3   0.630341 0.382681 0.948676 -0.467574
C110  C     C_3   0.243876 0.453885 0.041031 -0.251010
C111  C     C_3   0.312236 0.519304 0.030763 -0.299781
C112  C     C_R   0.500004 0.000046 0.643995 0.498728
C113  C     C_R   0.160075 0.339931 0.250010 0.505177
C114  C     C_3   0.389406 0.509276 0.056740 -0.465340
C115  C     C_R   0.660072 0.160024 0.749968 0.500973
C116  C     C_R   0.339927 0.839976 0.250032 0.502994
C117  C     C_R   0.160071 0.339895 0.749992 0.502571
C118  C     C_R   0.839876 0.660051 0.249973 0.505531
C119  C     C_1   0.276642 0.776703 0.250050 -0.038268
C120  C     C_1   0.723396 0.223259 0.749920 -0.036471
C121  C     C_1   0.223362 0.276657 0.250014 -0.035300
C122  C     C_1   0.776610 0.723302 0.750034 -0.035787
C123  C     C_1   0.723399 0.223251 0.250042 -0.037576
C124  C     C_R   0.999983 0.500004 0.356277 0.495060
C125  C     C_1   0.276599 0.776738 0.749976 -0.037541
C126  C     C_1   0.776596 0.723302 0.249958 -0.037678
C127  C     C_1   0.223359 0.276647 0.750006 -0.032466
C128  C     C_1   0.276672 0.223379 0.750014 -0.031584
C129  C     C_1   0.723312 0.776598 0.249967 -0.037236
C130  C     C_1   0.223293 0.723360 0.749955 -0.037242
C131  C     C_1   0.776691 0.276645 0.250056 -0.036230
C132  C     C_1   0.723328 0.776614 0.750046 -0.032821
C133  C     C_1   0.276641 0.223341 0.249999 -0.035396
C134  C     C_1   0.776771 0.276564 0.749931 -0.033463
C135  C     C_R   0.000019 0.499994 0.644333 0.499348
C136  C     C_1   0.223289 0.723378 0.250025 -0.036987
C137  C     C_R   0.935523 0.542165 0.420354 -0.035070
C138  C     C_R   0.031484 0.429512 0.582256 -0.027179
C139  C     C_R   0.423208 0.004128 0.419037 -0.028501
C140  C     C_R   0.576899 0.002653 0.580866 -0.033743
C141  C     C_R   0.064414 0.457845 0.420371 -0.035037
C142  C     C_R   0.968605 0.570509 0.582197 -0.027143
C143  C     C_R   0.576767 0.995613 0.419017 -0.028464
C144  C     C_R   0.423052 0.997558 0.580913 -0.033784
C145  C     C_R   0.532959 0.071551 0.917627 -0.026214
C146  C     C_R   0.000374 0.499937 0.856203 0.498395
C147  C     C_R   0.424482 0.982980 0.079629 -0.005979
C148  C     C_R   0.925561 0.487008 0.919998 -0.028428
C149  C     C_R   0.077742 0.513996 0.079982 -0.016216
C150  C     C_R   0.459666 0.935858 0.918920 -0.006852
C151  C     C_R   0.568913 0.035551 0.078837 -0.032608
C152  C     C_R   0.080110 0.499174 0.918871 -0.031012
C153  C     C_R   0.928896 0.470088 0.080990 -0.024553
C154  C     C_R   0.999964 0.499998 0.399279 0.016137
C155  C     C_R   0.000056 0.500012 0.602326 0.043922
C156  C     C_R   0.499994 0.999864 0.398492 0.034322
C157  C     C_R   0.001138 0.499984 0.143769 0.494498
C158  C     C_R   0.499981 0.000139 0.601368 0.035850
C159  C     C_R   0.498497 0.001847 0.897993 0.040560
C160  C     C_R   0.498399 0.005869 0.100549 0.004985
C161  C     C_R   0.001927 0.498171 0.899218 0.032539
C162  C     C_R   0.001841 0.498011 0.100697 0.031417
C163  C     C_R   0.050793 0.442761 0.460315 0.008031
C164  C     C_R   0.953626 0.561779 0.541972 0.008105
C165  C     C_R   0.573498 0.978427 0.459319 0.009727
C166  C     C_R   0.424438 0.017482 0.540693 0.007610
C167  C     C_R   0.949145 0.557233 0.460280 0.008020
C168  C     C_R   0.499808 0.999495 0.855798 0.495622
C169  C     C_R   0.046423 0.438235 0.542010 0.008104
C170  C     C_R   0.426441 0.021400 0.459313 0.009697
C171  C     C_R   0.575496 0.982587 0.540685 0.007599
C172  C     C_R   0.441807 0.949258 0.958736 0.009349
C173  C     C_R   0.555598 0.055194 0.039275 0.012740
C174  C     C_R   0.082338 0.478062 0.958863 0.011666
C175  C     C_R   0.934490 0.450510 0.040962 0.011321
C176  C     C_R   0.546908 0.063360 0.957906 0.010340
C177  C     C_R   0.434169 0.962043 0.040107 0.008653
C178  C     C_R   0.928767 0.460341 0.959656 0.007838
C179  C     C_R   0.499823 0.001445 0.143647 0.491536
C180  C     C_R   0.084224 0.487844 0.040296 0.008137
C181  C     C_R   0.999980 0.499998 0.480793 -0.001105
C182  C     C_R   0.000011 0.500006 0.521579 -0.004531
C183  C     C_R   0.499968 0.999949 0.479734 -0.009666
C184  C     C_R   0.499967 0.000011 0.520365 -0.003577
C185  C     C_R   0.494059 0.007144 0.978646 -0.008955
C186  C     C_R   0.494803 0.007751 0.019172 -0.007190
C187  C     C_R   0.006634 0.468514 0.979449 -0.005627
C188  C     C_R   0.008585 0.468687 0.020412 -0.009202
C189  C     C_R   0.091098 0.377192 0.480791 0.008781
C190  C     C_R   0.339922 0.160064 0.249996 0.504164
C191  C     C_R   0.898195 0.614856 0.521129 0.009004
C192  C     C_R   0.637377 0.933917 0.479152 0.008214
C193  C     C_R   0.357387 0.058684 0.520431 0.009457
C194  C     C_R   0.908858 0.622800 0.480714 0.008793
C195  C     C_R   0.101809 0.385132 0.521188 0.009018
C196  C     C_R   0.362513 0.065897 0.479101 0.008191
C197  C     C_R   0.642505 0.941248 0.520467 0.009397
C198  C     C_R   0.378885 0.903721 0.979640 0.004896
C199  C     C_R   0.602483 0.116969 0.019039 -0.000428
C200  C     C_R   0.157325 0.457249 0.978801 0.007356
H1    H     H_    0.677287 0.536508 0.390508 0.138437
H2    H     H_    0.901346 0.202465 0.646908 0.142454
H3    H     H_    0.224711 0.661905 0.849434 0.165651
H4    H     H_    0.210565 0.750963 0.881288 0.143577
H5    H     H_    0.086777 0.656607 0.884902 0.189514
H6    H     H_    0.141341 0.659767 0.930616 0.149787
H7    H     H_    0.215417 0.528466 0.914995 0.133245
H8    H     H_    0.163764 0.518333 0.869316 0.141584
H9    H     H_    0.683126 0.543065 0.111723 0.145346
H10   H     H_    0.738456 0.545214 0.157823 0.155073
H11   H     H_    0.716595 0.642045 0.132336 0.142773
H12   H     H_    0.865835 0.602862 0.124282 0.186978
H13   H     H_    0.919957 0.352891 0.634782 0.190744
H14   H     H_    0.811787 0.599992 0.078451 0.156360
H15   H     H_    0.792146 0.447489 0.083643 0.135625
H16   H     H_    0.844720 0.442018 0.129337 0.152376
H17   H     H_    0.010279 0.095301 0.467708 0.137338
H18   H     H_    0.017855 0.158823 0.424306 0.149605
H19   H     H_    0.112329 0.122954 0.448216 0.138918
H20   H     H_    0.065967 0.208547 0.508140 0.158586
H21   H     H_    0.981518 0.249845 0.479059 0.165572
H22   H     H_    0.095028 0.295664 0.429760 0.143727
H23   H     H_    0.172667 0.272869 0.465865 0.126920
H24   H     H_    0.913644 0.298587 0.589145 0.157081
H25   H     H_    0.604663 0.593848 0.529355 0.139058
H26   H     H_    0.664354 0.591201 0.573969 0.159422
H27   H     H_    0.650464 0.689434 0.548312 0.143218
H28   H     H_    0.730515 0.625283 0.491101 0.157937
H29   H     H_    0.749907 0.533936 0.520607 0.166464
H30   H     H_    0.814686 0.632412 0.570975 0.151671
H31   H     H_    0.812028 0.715847 0.535857 0.128085
H32   H     H_    0.594907 0.662388 0.431157 0.137932
H33   H     H_    0.627234 0.744659 0.398089 0.164124
H34   H     H_    0.702608 0.698395 0.430902 0.133246
H35   H     H_    0.066495 0.295948 0.583468 0.133489
H36   H     H_    0.613771 0.754368 0.487544 0.155974
H37   H     H_    0.548781 0.806101 0.452211 0.170611
H38   H     H_    0.690882 0.873181 0.427347 0.140690
H39   H     H_    0.736321 0.838900 0.470672 0.125152
H40   H     H_    0.076330 0.066564 0.561618 0.137079
H41   H     H_    0.160994 0.063479 0.596540 0.148266
H42   H     H_    0.136567 0.160506 0.571537 0.140562
H43   H     H_    0.174814 0.089808 0.508089 0.156393
H44   H     H_    0.204337 0.997792 0.533949 0.157164
H45   H     H_    0.303594 0.109435 0.574088 0.145953
H46   H     H_    0.081944 0.350435 0.628358 0.158340
H47   H     H_    0.288775 0.173150 0.533753 0.127725
H48   H     H_    0.989177 0.904881 0.467415 0.137343
H49   H     H_    0.981622 0.841508 0.424040 0.149660
H50   H     H_    0.887133 0.877095 0.448038 0.138936
H51   H     H_    0.933766 0.791372 0.507933 0.158573
H52   H     H_    0.018285 0.750376 0.478807 0.165564
H53   H     H_    0.904980 0.704370 0.429608 0.143774
H54   H     H_    0.827185 0.727003 0.465678 0.126870
H55   H     H_    0.395395 0.405699 0.529147 0.139048
H56   H     H_    0.335784 0.408439 0.573809 0.159396
H57   H     H_    0.200366 0.877461 0.386906 0.143192
H58   H     H_    0.349479 0.310182 0.548248 0.143217
H59   H     H_    0.269427 0.374426 0.491037 0.157935
H60   H     H_    0.250245 0.465837 0.520439 0.166476
H61   H     H_    0.185362 0.367564 0.570994 0.151667
H62   H     H_    0.187846 0.284052 0.536004 0.128038
H63   H     H_    0.404469 0.337657 0.430970 0.137909
H64   H     H_    0.372523 0.255413 0.397915 0.164215
H65   H     H_    0.296873 0.301328 0.430683 0.133271
H66   H     H_    0.385646 0.245432 0.487376 0.155986
H67   H     H_    0.450914 0.193979 0.452090 0.170636
H68   H     H_    0.258811 0.886166 0.341757 0.158697
H69   H     H_    0.309218 0.126558 0.427187 0.140822
H70   H     H_    0.263342 0.160611 0.470440 0.125091
H71   H     H_    0.923584 0.932953 0.561483 0.137036
H72   H     H_    0.838970 0.936272 0.596465 0.148361
H73   H     H_    0.863165 0.839150 0.571585 0.140674
H74   H     H_    0.824982 0.909814 0.508066 0.156412
H75   H     H_    0.795677 0.001933 0.533811 0.157131
H76   H     H_    0.696240 0.890634 0.574196 0.146068
H77   H     H_    0.710902 0.826713 0.533985 0.127691
H78   H     H_    0.084972 0.909221 0.963527 0.139129
H79   H     H_    0.256216 0.787686 0.367900 0.144818
H80   H     H_    0.147326 0.887413 0.920845 0.156898
H81   H     H_    0.135960 0.808506 0.958617 0.145764
H82   H     H_    0.211221 0.902157 0.005173 0.153901
H83   H     H_    0.223491 0.981104 0.968128 0.161619
H84   H     H_    0.303408 0.883945 0.927182 0.149667
H85   H     H_    0.296667 0.800543 0.961746 0.123451
H86   H     H_    0.630897 0.317692 0.097522 0.150444
H87   H     H_    0.596673 0.371055 0.053724 0.141669
H88   H     H_    0.523427 0.352695 0.092818 0.139320
H89   H     H_    0.501818 0.252254 0.037410 0.156798
H90   H     H_    0.392564 0.859477 0.377992 0.197985
H91   H     H_    0.527892 0.200866 0.082592 0.167995
H92   H     H_    0.679222 0.189891 0.060274 0.127104
H93   H     H_    0.651729 0.244461 0.016954 0.136999
H94   H     H_    0.258589 0.241318 0.924466 0.156261
H95   H     H_    0.315806 0.249793 0.969914 0.147127
H96   H     H_    0.232067 0.173731 0.964918 0.138577
H97   H     H_    0.183560 0.296062 0.003241 0.155881
H98   H     H_    0.126813 0.288094 0.958380 0.166403
H99   H     H_    0.211912 0.394938 0.927542 0.139514
H100  H     H_    0.282278 0.404264 0.967066 0.131693
H101  H     H_    0.335412 0.851237 0.422761 0.151553
H102  H     H_    0.884074 0.173051 0.078343 0.156488
H103  H     H_    0.815584 0.146218 0.038182 0.140455
H104  H     H_    0.924795 0.116966 0.036828 0.139671
H105  H     H_    0.898732 0.240606 0.994305 0.153463
H106  H     H_    0.968477 0.265798 0.033698 0.169178
H107  H     H_    0.847424 0.323340 0.071494 0.145145
H108  H     H_    0.777714 0.306800 0.032296 0.125489
H109  H     H_    0.821803 0.124113 0.904967 0.160815
H110  H     H_    0.865410 0.103458 0.952727 0.146278
H111  H     H_    0.856697 0.019593 0.917632 0.146291
H112  H     H_    0.732517 0.513413 0.345634 0.187887
H113  H     H_    0.285641 0.994467 0.418055 0.134220
H114  H     H_    0.744183 0.008422 0.967831 0.158004
H115  H     H_    0.701571 0.026700 0.919969 0.178626
H116  H     H_    0.687113 0.180672 0.935712 0.127227
H117  H     H_    0.735434 0.163587 0.980971 0.135557
H118  H     H_    0.415209 0.678050 0.108502 0.140238
H119  H     H_    0.341603 0.760884 0.119637 0.156196
H120  H     H_    0.315363 0.682674 0.083546 0.149129
H121  H     H_    0.438907 0.734890 0.042729 0.150369
H122  H     H_    0.456727 0.814881 0.078641 0.167278
H123  H     H_    0.295501 0.854545 0.065409 0.128402
H124  H     H_    0.333465 0.012186 0.371501 0.141884
H125  H     H_    0.304320 0.787936 0.025100 0.132514
H126  H     H_    0.640519 0.392912 0.917049 0.148764
H127  H     H_    0.622565 0.314563 0.954520 0.143806
H128  H     H_    0.571638 0.415288 0.957516 0.138706
H129  H     H_    0.692455 0.405205 0.003270 0.151105
H130  H     H_    0.706781 0.486552 0.968392 0.154559
H131  H     H_    0.795611 0.376022 0.927658 0.138005
H132  H     H_    0.785552 0.308312 0.966685 0.130813
H133  H     H_    0.437645 0.556871 0.048632 0.140209
H134  H     H_    0.372007 0.518617 0.087733 0.147596
H135  H     H_    0.728168 0.154025 0.651962 0.161599
H136  H     H_    0.416835 0.445547 0.053040 0.150444
H137  H     H_    0.332491 0.512281 0.000087 0.149894
H138  H     H_    0.287644 0.584253 0.033457 0.152236
H139  H     H_    0.234505 0.449204 0.072899 0.134700
H140  H     H_    0.267833 0.390551 0.033539 0.137089
H141  H     H_    0.779942 0.163239 0.605109 0.141925
H142  H     H_    0.714065 0.247292 0.622699 0.150343
H143  H     H_    0.640257 0.163612 0.571954 0.154521
H144  H     H_    0.588094 0.156457 0.618127 0.200402
H145  H     H_    0.663606 0.014782 0.629564 0.139960
H146  H     H_    0.711638 0.029827 0.583514 0.153818
H147  H     H_    0.322692 0.463749 0.390477 0.138390
H148  H     H_    0.682844 0.429736 0.372844 0.138368
H149  H     H_    0.267509 0.486798 0.345587 0.187924
H150  H     H_    0.317059 0.570519 0.372699 0.138411
H151  H     H_    0.163023 0.572809 0.383015 0.188761
H152  H     H_    0.217074 0.549578 0.427318 0.143014
H153  H     H_    0.190895 0.402882 0.422711 0.118555
H154  H     H_    0.146925 0.404732 0.375790 0.168044
H155  H     H_    0.008222 0.822735 0.617098 0.146953
H156  H     H_    0.994930 0.766151 0.662514 0.156319
H157  H     H_    0.098423 0.797472 0.646746 0.142529
H158  H     H_    0.080010 0.647098 0.634634 0.190876
H159  H     H_    0.836868 0.427301 0.383137 0.188695
H160  H     H_    0.086346 0.701598 0.588986 0.156988
H161  H     H_    0.933559 0.704054 0.583276 0.133420
H162  H     H_    0.917988 0.649525 0.628216 0.158593
H163  H     H_    0.799696 0.122134 0.386620 0.143133
H164  H     H_    0.741166 0.113532 0.341529 0.158633
H165  H     H_    0.743893 0.211980 0.367583 0.144877
H166  H     H_    0.607501 0.140306 0.377856 0.198134
H167  H     H_    0.664737 0.148436 0.422567 0.151535
H168  H     H_    0.714343 0.005192 0.417966 0.134166
H169  H     H_    0.666517 0.987538 0.371451 0.141871
H170  H     H_    0.782768 0.450563 0.427425 0.143026
H171  H     H_    0.271904 0.845708 0.652099 0.161898
H172  H     H_    0.220162 0.836703 0.605263 0.141831
H173  H     H_    0.286097 0.752609 0.622827 0.150461
H174  H     H_    0.359820 0.836649 0.572046 0.154547
H175  H     H_    0.412002 0.843549 0.618193 0.200462
H176  H     H_    0.336501 0.985099 0.629713 0.139963
H177  H     H_    0.288319 0.970344 0.583729 0.153810
H178  H     H_    0.482241 0.322761 0.893352 0.146754
H179  H     H_    0.509521 0.286048 0.845065 0.155448
H180  H     H_    0.400697 0.302442 0.858120 0.144976
H181  H     H_    0.809080 0.597240 0.422659 0.118550
H182  H     H_    0.431972 0.151800 0.858471 0.189432
H183  H     H_    0.409284 0.186866 0.907058 0.161714
H184  H     H_    0.563499 0.204794 0.918074 0.140818
H185  H     H_    0.587091 0.152655 0.872956 0.158048
H186  H     H_    0.384094 0.145332 0.050698 0.161716
H187  H     H_    0.271415 0.131148 0.047015 0.147326
H188  H     H_    0.314129 0.218081 0.074370 0.130610
H189  H     H_    0.263225 0.105462 0.118711 0.152274
H190  H     H_    0.374386 0.120938 0.123115 0.179052
H191  H     H_    0.287710 0.988013 0.072193 0.121490
H192  H     H_    0.853128 0.595354 0.375732 0.168164
H193  H     H_    0.320024 0.963271 0.120013 0.160150
H194  H     H_    0.779075 0.630555 0.845084 0.165182
H195  H     H_    0.714792 0.634054 0.888602 0.140417
H196  H     H_    0.778597 0.723628 0.875055 0.146283
H197  H     H_    0.846197 0.645727 0.929145 0.149846
H198  H     H_    0.908607 0.641609 0.885852 0.191247
H199  H     H_    0.836239 0.494616 0.872301 0.142525
H200  H     H_    0.788960 0.509093 0.918492 0.148544
H201  H     H_    0.170211 0.698981 0.041774 0.139215
H202  H     H_    0.061291 0.667186 0.036344 0.165749
H203  H     H_    0.991611 0.177256 0.617277 0.147034
H204  H     H_    0.086771 0.769571 0.055486 0.130815
H205  H     H_    0.042265 0.671179 0.108454 0.187971
H206  H     H_    0.148358 0.707567 0.114426 0.148248
H207  H     H_    0.153530 0.558533 0.128438 0.127979
H208  H     H_    0.201245 0.577626 0.083394 0.141889
H209  H     H_    0.608939 0.860716 0.941709 0.162133
H210  H     H_    0.558048 0.760357 0.950692 0.147313
H211  H     H_    0.652268 0.765924 0.921496 0.130270
H212  H     H_    0.530329 0.747168 0.878468 0.138140
H213  H     H_    0.575195 0.849077 0.870905 0.179124
H214  H     H_    0.004826 0.233627 0.662685 0.155925
H215  H     H_    0.421008 0.802730 0.920296 0.132978
H216  H     H_    0.415225 0.851239 0.873649 0.138039
H217  H     H_    0.821642 0.976702 0.105231 0.139218
H218  H     H_    0.766914 0.970348 0.151432 0.185248
H219  H     H_    0.794492 0.875473 0.125658 0.140228
H220  H     H_    0.642821 0.905438 0.117813 0.184445
H221  H     H_    0.696375 0.911922 0.072209 0.142257
H222  H     H_    0.703658 0.060598 0.073228 0.124769
H223  H     H_    0.664148 0.073425 0.121053 0.172736
H224  H     H_    0.279412 0.666488 0.895677 0.136300
O1    O     O_3   0.500000 0.000000 0.250000 -0.426538
O2    O     O_R   0.500000 0.930770 0.662510 -0.551876
O3    O     O_R   0.930770 0.500000 0.337490 -0.554583
O4    O     O_R   0.069230 0.500000 0.662510 -0.555291
O5    O     O_R   0.000000 0.430770 0.837490 -0.538726
O6    O     O_R   0.000000 0.569230 0.162510 -0.562550
O7    O     O_R   0.569230 0.000000 0.837490 -0.553480
O8    O     O_R   0.430770 0.000000 0.162510 -0.555611
O9    O     O_R   0.000000 0.569230 0.837490 -0.559447
O10   O     O_R   0.000000 0.430770 0.162510 -0.540470
O11   O     O_R   0.430770 0.000000 0.837490 -0.555710
O12   O     O_3   0.500000 0.000000 0.750000 -0.431345
O13   O     O_R   0.569230 0.000000 0.162510 -0.553181
O14   O     O_R   0.402530 0.166640 0.272980 -0.538015
O15   O     O_R   0.597470 0.833360 0.727020 -0.536059
O16   O     O_R   0.833360 0.402530 0.272980 -0.543001
O17   O     O_R   0.166640 0.597470 0.727020 -0.537785
O18   O     O_R   0.597470 0.833360 0.272980 -0.537500
O19   O     O_R   0.402530 0.166640 0.727020 -0.536244
O20   O     O_R   0.166640 0.597470 0.272980 -0.541820
O21   O     O_R   0.833360 0.402530 0.727020 -0.539035
O22   O     O_R   0.402530 0.833360 0.727020 -0.538036
O23   O     O_3   0.000000 0.500000 0.250000 -0.426128
O24   O     O_R   0.597470 0.166640 0.272980 -0.537983
O25   O     O_R   0.833360 0.597470 0.727020 -0.537403
O26   O     O_R   0.166640 0.402530 0.272980 -0.548135
O27   O     O_R   0.597470 0.166640 0.727020 -0.538475
O28   O     O_R   0.402530 0.833360 0.272980 -0.538392
O29   O     O_R   0.166640 0.402530 0.727020 -0.538763
O30   O     O_R   0.833360 0.597470 0.272980 -0.547263
O31   O     O_R   0.902530 0.666640 0.772980 -0.538484
O32   O     O_R   0.097470 0.333360 0.227020 -0.533822
O33   O     O_R   0.333360 0.902530 0.772980 -0.538438
O34   O     O_3   0.000000 0.500000 0.750000 -0.431448
O35   O     O_R   0.666640 0.097470 0.227020 -0.544150
O36   O     O_R   0.097470 0.333360 0.772980 -0.535876
O37   O     O_R   0.902530 0.666640 0.227020 -0.536956
O38   O     O_R   0.666640 0.097470 0.772980 -0.537112
O39   O     O_R   0.333360 0.902530 0.227020 -0.540386
O40   O     O_R   0.902530 0.333360 0.227020 -0.537555
O41   O     O_R   0.097470 0.666640 0.772980 -0.538372
O42   O     O_R   0.333360 0.097470 0.227020 -0.541838
O43   O     O_R   0.666640 0.902530 0.772980 -0.539226
O44   O     O_R   0.097470 0.666640 0.227020 -0.539091
O45   O     O_R   0.500000 0.930770 0.337490 -0.553869
O46   O     O_R   0.902530 0.333360 0.772980 -0.536583
O47   O     O_R   0.666640 0.902530 0.227020 -0.543152
O48   O     O_R   0.333360 0.097470 0.772980 -0.538616
O49   O     O_R   0.500000 0.069230 0.662510 -0.552254
O50   O     O_R   0.069230 0.500000 0.337490 -0.554571
O51   O     O_R   0.930770 0.500000 0.662510 -0.555122
O52   O     O_R   0.500000 0.069230 0.337490 -0.553490
Zn1   Zn    Zn3+2 0.401050 0.000000 0.217300 0.917532
Zn2   Zn    Zn3+2 0.098950 0.500000 0.282700 0.911977
Zn3   Zn    Zn3+2 0.500000 0.901050 0.717300 0.924933
Zn4   Zn    Zn3+2 0.500000 0.098950 0.282700 0.923513
Zn5   Zn    Zn3+2 0.098950 0.500000 0.717300 0.923597
Zn6   Zn    Zn3+2 0.901050 0.500000 0.282700 0.911227
Zn7   Zn    Zn3+2 0.500000 0.098950 0.717300 0.925161
Zn8   Zn    Zn3+2 0.500000 0.901050 0.282700 0.924449
Zn9   Zn    Zn3+2 0.598950 0.000000 0.782700 0.922887
Zn10  Zn    Zn3+2 0.000000 0.401050 0.217300 0.933508
Zn11  Zn    Zn3+2 0.000000 0.598950 0.782700 0.919327
Zn12  Zn    Zn3+2 0.598950 0.000000 0.217300 0.913345
Zn13  Zn    Zn3+2 0.401050 0.000000 0.782700 0.922400
Zn14  Zn    Zn3+2 1.000000 0.598950 0.217300 0.919715
Zn15  Zn    Zn3+2 0.000000 0.401050 0.782700 0.933596
Zn16  Zn    Zn3+2 0.901050 0.500000 0.717300 0.923451

loop_
_geom_bond_atom_site_label_1
_geom_bond_atom_site_label_2
_ccdc_geom_bond_type
C74   C194  S    
C19   C20   S    
C166  C193  A    
C71   H47   S    
C87   C88   S    
C76   H50   S    
C13   O40   A    
C77   H61   S    
C52   H220  S    
O37   Zn14  S    
C40   H187  S    
O36   Zn15  S    
C1    O45   A    
C93   H86   S    
C141  C154  A    
O13   Zn12  S    
C108  C109  S    
C62   H21   S    
C63   H19   S    
C110  C111  S    
C175  C188  A    
C38   H193  S    
C4    C199  A    
O1    Zn1   S    
C66   H27   S    
C78   H59   S    
C111  H137  S    
C82   H67   S    
C164  C191  A    
C106  H120  S    
C16   H90   S    
C59   C60   S    
O42   Zn1   S    
C21   C22   S    
C61   C189  S    
C95   H97   S    
C72   H43   S    
C76   H48   S    
C104  C105  S    
O50   Zn2   S    
C15   C139  S    
C45   C47   S    
C11   H35   S    
C31   H176  S    
C146  C161  S    
C150  C159  A    
C51   C52   S    
C165  C183  A    
C8    H181  S    
C83   H65   S    
C166  C184  A    
C28   H169  S    
C115  O38   A    
C54   C152  S    
C126  C129  T    
C181  C182  A    
C89   H80   S    
C177  C186  A    
C20   H142  S    
C75   C76   S    
C47   H201  S    
O9    Zn11  S    
C58   C153  S    
C69   H36   S    
C93   H88   S    
C109  H126  S    
C74   H54   S    
C112  C158  S    
O49   Zn7   S    
O12   Zn13  S    
O23   Zn6   S    
C84   H76   S    
C105  H122  S    
C84   C197  S    
C71   H45   S    
C75   H52   S    
O52   Zn4   S    
C55   H6    S    
C97   H108  S    
C80   H56   S    
C174  C200  A    
O51   Zn16  S    
C104  H123  S    
C112  O2    A    
C87   H85   S    
C72   C73   S    
C88   H82   S    
C42   H198  S    
C64   H31   S    
C43   H195  S    
C46   O19   A    
C10   H112  S    
C153  C175  A    
C67   H38   S    
C101  C122  S    
C63   H17   S    
C77   C195  S    
C191  C194  A    
O22   Zn3   S    
C64   C65   S    
C102  H114  S    
C173  C186  A    
C103  H111  S    
C66   H25   S    
C81   H70   S    
C69   C70   S    
C169  C182  A    
C44   H207  S    
C106  H118  S    
O34   Zn16  S    
C29   H166  S    
C88   C89   S    
C41   H200  S    
C98   C99   S    
C22   C23   S    
C108  H130  S    
C149  C162  A    
C32   H175  S    
C87   C198  S    
C94   H100  S    
C157  C162  S    
C27   H157  S    
O5    Zn15  S    
O20   Zn2   S    
O28   Zn8   S    
O7    Zn9   S    
C163  C181  A    
C90   C123  S    
C83   H63   S    
C25   C142  S    
C114  H133  S    
O16   Zn6   S    
O11   Zn13  S    
C3    C6    A    
C96   H96   S    
C97   C98   S    
C169  C195  A    
C85   C86   S    
C85   H74   S    
C36   C37   S    
C11   C138  S    
C86   H71   S    
C46   O48   A    
C38   C39   S    
C145  C159  A    
C78   C80   S    
C36   H183  S    
C165  C192  A    
C117  O29   A    
O12   Zn3   S    
C90   O35   A    
C39   H189  S    
C115  O27   A    
C61   H22   S    
C109  H128  S    
C20   H135  S    
C30   H164  S    
C143  C165  A    
C73   H42   S    
C32   H174  S    
C107  C108  S    
C172  C198  A    
C168  O11   A    
C9    C10   S    
C100  H117  S    
O26   Zn2   S    
C79   C125  S    
C138  C169  A    
C21   H154  S    
C53   H217  S    
C124  O3    A    
C50   H210  S    
C147  C160  A    
C100  C102  S    
C10   H1    S    
C113  O32   A    
O34   Zn5   S    
C45   H205  S    
C150  C172  A    
C109  H127  S    
C37   H178  S    
C86   H73   S    
C91   C92   S    
C67   C192  S    
C51   H222  S    
C90   O24   A    
C25   C26   S    
C103  H109  S    
C70   H33   S    
C1    C156  S    
C29   C30   S    
C174  C187  A    
C22   H151  S    
C147  C177  A    
C49   H212  S    
C31   C32   S    
C172  C185  A    
C24   O41   A    
C193  C196  A    
C25   H161  S    
C107  H132  S    
C18   C140  S    
O23   Zn2   S    
C27   H155  S    
C9    H170  S    
C140  C171  A    
C19   H143  S    
C17   H57   S    
C146  O5    A    
C52   C53   S    
C104  H125  S    
C54   C55   S    
C57   O20   A    
C148  C178  A    
C26   H160  S    
C79   O22   A    
O44   Zn14  S    
C112  O49   A    
C115  C120  S    
C141  C163  A    
C54   H8    S    
C7    C110  S    
C65   H29   S    
C4    C100  S    
C40   H188  S    
C57   O44   A    
C71   C72   S    
C64   H30   S    
C15   H113  S    
C41   C148  S    
O23   Zn10  S    
C14   H2    S    
C67   H39   S    
C7    C180  A    
C120  C134  T    
C61   C62   S    
C48   H215  S    
C124  O50   A    
C39   C40   S    
C24   C130  S    
C113  C121  S    
C49   C50   S    
C78   H60   S    
C53   H219  S    
C26   H158  S    
C99   H104  S    
C146  O9    A    
O40   Zn10  S    
O34   Zn11  S    
C138  C155  A    
C55   C56   S    
C48   C150  S    
C173  C199  A    
C37   H180  S    
C41   C42   S    
C72   H44   S    
O46   Zn15  S    
C9    H159  S    
C135  O51   A    
C56   H224  S    
C176  C185  A    
C56   H3    S    
C77   C78   S    
C26   C27   S    
C12   H13   S    
C28   C29   S    
C114  H136  S    
O10   Zn10  S    
C17   H68   S    
C142  C164  A    
O35   Zn12  S    
C170  C183  A    
C23   H147  S    
C71   C193  S    
C15   H124  S    
C18   C19   S    
O41   Zn11  S    
C7    C200  A    
O21   Zn16  S    
O31   Zn11  S    
C47   H204  S    
C12   H24   S    
C33   H172  S    
C180  C188  A    
C18   H145  S    
C36   H182  S    
C16   C17   S    
C96   H94   S    
C16   H101  S    
C2    C132  S    
C6    C107  S    
C60   H9    S    
O25   Zn16  S    
C110  H139  S    
C23   H150  S    
C58   H15   S    
C190  O42   A    
C51   C151  S    
C6    C178  A    
C105  H121  S    
O48   Zn13  S    
O32   Zn10  S    
C68   O21   A    
C75   H51   S    
C76   H49   S    
O6    Zn14  S    
C100  H116  S    
C133  C190  S    
C2    O15   A    
C55   H5    S    
C91   H92   S    
C97   H107  S    
C116  O39   A    
C77   H62   S    
C171  C184  A    
C84   C85   S    
C73   H40   S    
O8    Zn1   S    
C93   H87   S    
C58   C59   S    
C38   H191  S    
C149  C180  A    
C85   H75   S    
C144  C166  A    
C8    C137  S    
C179  O13   A    
C116  O28   A    
C168  O7    A    
C62   C63   S    
O19   Zn7   S    
O4    Zn5   S    
C3    C97   S    
C51   H223  S    
C102  H115  S    
C145  C176  A    
O17   Zn5   S    
C66   H26   S    
C81   H69   S    
C13   C131  S    
C111  H138  S    
C163  C189  A    
C28   C143  S    
C192  C197  A    
C117  C127  S    
C2    O43   A    
C44   H208  S    
C99   H102  S    
C106  H119  S    
C14   H214  S    
C178  C187  A    
C3    C175  A    
C48   C49   S    
C41   H199  S    
C179  O8    A    
C95   H98   S    
C80   H58   S    
C42   C43   S    
C127  C128  T    
C117  O36   A    
C137  C167  A    
C64   C191  S    
C44   C45   S    
C123  C131  T    
C11   H46   S    
C114  H134  S    
C79   O33   A    
C116  C119  S    
O27   Zn7   S    
C105  C106  S    
O12   Zn7   S    
C89   H81   S    
C44   C149  S    
C153  C162  A    
C32   C33   S    
C68   C134  S    
C47   H202  S    
C86   H72   S    
C187  C188  A    
O45   Zn8   S    
C185  C186  A    
C92   C93   S    
C137  C154  A    
C111  C114  S    
C94   C200  S    
C65   C66   S    
C94   C95   S    
C60   H11   S    
C70   H32   S    
C38   C147  S    
C96   H95   S    
C74   H53   S    
C164  C182  A    
C30   H165  S    
C10   H148  S    
C73   H41   S    
C31   H177  S    
C82   C83   S    
C4    C176  A    
O30   Zn6   S    
C62   H20   S    
C81   C196  S    
C170  C196  A    
C151  C173  A    
C80   H55   S    
C124  C154  S    
C52   H221  S    
C98   H106  S    
C21   H153  S    
C95   C96   S    
C50   H211  S    
C183  C184  A    
C13   O16   A    
C20   H141  S    
C42   H197  S    
C81   C82   S    
C59   H14   S    
C43   H196  S    
C135  O4    A    
O23   Zn14  S    
C33   H173  S    
C148  C161  A    
C63   H18   S    
C46   C128  S    
C34   C145  S    
O1    Zn4   S    
C15   C16   S    
C118  O30   A    
C135  C155  S    
C159  C168  S    
C139  C170  A    
C70   H34   S    
C31   C144  S    
C189  C195  A    
C40   H186  S    
O34   Zn15  S    
C87   H84   S    
C22   H152  S    
C125  C130  T    
C29   H167  S    
C8    C9    S    
C92   H89   S    
O3    Zn6   S    
C57   C136  S    
C107  H131  S    
C108  H129  S    
C94   H99   S    
C190  O14   A    
C35   C129  S    
C34   C36   S    
C152  C174  A    
C5    C104  S    
O38   Zn9   S    
C83   H64   S    
C102  C103  S    
C35   O18   A    
C122  C132  T    
C1    O52   A    
C157  O10   A    
O12   Zn9   S    
O1    Zn8   S    
C74   C75   S    
O47   Zn12  S    
C140  C158  A    
O24   Zn4   S    
C34   H184  S    
C35   O47   A    
C91   H93   S    
O29   Zn5   S    
C65   H28   S    
C67   C69   S    
C39   H190  S    
C61   H23   S    
C160  C179  S    
C30   H163  S    
C8    H192  S    
C113  O26   A    
O33   Zn13  S    
C84   H77   S    
C101  O31   A    
C17   H79   S    
C28   H168  S    
C48   H216  S    
C5    C177  A    
O15   Zn3   S    
C12   C14   S    
O39   Zn1   S    
C19   H144  S    
C82   H66   S    
C142  C155  A    
C167  C194  A    
C53   H218  S    
C50   H209  S    
C144  C158  A    
C88   H83   S    
C99   H103  S    
C59   H12   S    
C43   H194  S    
C45   H206  S    
O43   Zn9   S    
C37   H179  S    
C152  C161  A    
C34   H185  S    
C157  O6    A    
C11   C12   S    
C5    C198  A    
C56   H4    S    
C103  H110  S    
C68   O46   A    
O14   Zn4   S    
O1    Zn12  S    
C151  C160  A    
C91   C199  S    
C171  C197  A    
C119  C136  T    
C49   H213  S    
C143  C156  A    
C167  C181  A    
C69   H37   S    
C139  C156  A    
C92   H91   S    
C89   H78   S    
C101  O25   A    
C25   H162  S    
C27   H156  S    
C33   H171  S    
O2    Zn3   S    
C18   H146  S    
C118  O37   A    
O18   Zn8   S    
C21   C141  S    
C54   H7    S    
C24   O17   A    
C118  C126  S    
C121  C133  T    
C60   H10   S    
C14   H203  S    
C110  H140  S    
C23   H149  S    
C98   H105  S    
C58   H16   S    
