data_mof_unit_49635.cif
_audit_creation_date              2012-12-11T21:15:16-0500
_audit_creation_method            fapswitch 2.2
_symmetry_space_group_name_H-M    P1
_symmetry_Int_Tables_number       1
_space_group_crystal_system       triclinic
_cell_length_a                    8.271195
_cell_length_b                    18.938285
_cell_length_c                    26.841803
_cell_angle_alpha                 100.329203
_cell_angle_beta                  92.837187
_cell_angle_gamma                 87.566729
_cell_volume                      4128.9366175

loop_
_atom_site_label
_atom_site_type_symbol
_atom_type_description
_atom_site_fract_x
_atom_site_fract_y
_atom_site_fract_z
_atom_type_partial_charge
Ba1   Ba    Ba6+2 0.160810 0.465630 0.521640 1.634804
Ba2   Ba    Ba6+2 0.649380 0.534380 0.478400 1.632425
C1    C     C_3   0.412606 0.298233 0.702919 -0.012225
C2    C     C_R   0.080550 0.089663 0.451033 0.009990
C3    C     C_R   0.229706 0.063528 0.430606 -0.073715
C4    C     C_3   0.951351 0.282707 0.623719 0.336740
C5    C     C_R   0.288074 0.994345 0.432833 -0.100680
C6    C     C_R   0.198514 0.948492 0.454996 0.033152
C7    C     C_R   0.051314 0.973377 0.477059 0.026803
C8    C     C_R   0.254444 0.877937 0.454644 -0.102851
C9    C     C_R   0.162781 0.829353 0.474312 -0.033129
C10   C     C_R   0.017019 0.854088 0.498346 -0.008419
C11   C     C_R   0.962773 0.926803 0.500123 0.002366
C12   C     C_3   0.457581 0.308041 0.650015 0.268836
C13   C     C_R   0.212898 0.756617 0.470299 -0.009698
C14   C     C_R   0.114455 0.708459 0.487495 -0.297761
C15   C     C_R   0.976049 0.731852 0.514528 0.073312
C16   C     C_3   0.941978 0.209148 0.638434 -0.397955
C17   C     C_R   0.927365 0.806711 0.521082 -0.046508
C18   C     C_R   0.848480 0.070609 0.498717 -0.007203
C19   C     C_R   0.791678 0.142739 0.498369 -0.040287
C20   C     C_R   0.879536 0.189323 0.473700 -0.020534
C21   C     C_R   0.016865 0.158951 0.445944 0.201160
C22   C     C_R   0.793875 0.836279 0.549802 -0.045872
C23   C     C_3   0.537849 0.312485 0.370301 0.345456
C24   C     C_R   0.738769 0.908824 0.551875 -0.004392
C25   C     C_R   0.820490 0.953122 0.524731 -0.019714
C26   C     C_R   0.762753 0.024623 0.523427 0.019480
C27   C     C_R   0.602711 0.938175 0.580095 0.206867
C28   C     C_3   0.893326 0.644713 0.643169 0.456706
C29   C     C_R   0.539335 0.006880 0.574311 -0.093102
C30   C     C_R   0.619049 0.050156 0.546982 -0.003311
C31   C     C_R   0.645164 0.167530 0.522321 -0.033219
C32   C     C_R   0.559299 0.120027 0.545158 -0.104552
C33   C     C_R   0.589868 0.239504 0.523707 -0.000087
C34   C     C_3   0.499777 0.235496 0.374688 0.232045
C35   C     C_R   0.682632 0.286325 0.503334 -0.292296
C36   C     C_R   0.825795 0.263808 0.478756 0.082625
C37   C     C_R   0.298919 0.452453 0.172429 0.587712
C38   C     C_R   0.187410 0.572282 0.176806 0.575162
C39   C     C_2   0.034181 0.529911 0.268447 -0.070311
C40   C     C_3   0.015810 0.658503 0.688435 -0.306660
C41   C     C_3   0.996750 0.522892 0.322075 -0.047668
C42   C     C_1   0.280665 0.493665 0.336459 0.019058
C43   C     C_2   0.316899 0.495908 0.289278 -0.109582
C44   C     C_2   0.186770 0.514386 0.252129 0.205540
C45   C     C_3   0.861665 0.722123 0.377039 0.358221
C46   C     C_R   0.309996 0.511422 0.098964 -0.078632
C47   C     C_R   0.344176 0.451161 0.122252 -0.032560
C48   C     C_R   0.422388 0.390554 0.094917 -0.063859
C49   C     C_R   0.229886 0.572158 0.126441 -0.029038
C50   C     C_2   0.149073 0.526963 0.355769 -0.287642
C51   C     C_2   0.659811 0.482509 0.639706 -0.260075
C52   C     C_3   0.981595 0.373374 0.367180 0.288454
C53   C     C_R   0.489682 0.449995 0.971306 0.020597
C54   C     C_R   0.359453 0.570182 0.973637 0.020547
C55   C     C_R   0.447341 0.509802 0.947397 0.048649
C56   C     C_3   0.858457 0.796000 0.362190 -0.379220
C57   C     C_R   0.582490 0.392524 0.944139 -0.099378
C58   C     C_R   0.627579 0.392774 0.894966 -0.067211
C59   C     C_R   0.583195 0.450394 0.870499 -0.027097
C60   C     C_R   0.493428 0.509195 0.896639 -0.078339
C61   C     C_R   0.449969 0.567416 0.872039 -0.031619
C62   C     C_R   0.495746 0.565948 0.821843 0.586990
C63   C     C_R   0.626664 0.450186 0.820279 0.574208
C64   C     C_3   0.986801 0.350492 0.309768 -0.379772
C65   C     C_2   0.774240 0.492071 0.728304 -0.071077
C66   C     C_3   0.812170 0.490963 0.673420 -0.031020
C67   C     C_3   0.362031 0.693906 0.349250 0.335720
C68   C     C_1   0.524720 0.514484 0.657386 0.061030
C69   C     C_2   0.488471 0.516446 0.705075 -0.114850
C70   C     C_2   0.619985 0.504981 0.743654 0.209101
C71   C     C_R   0.439329 0.449632 0.021369 0.020334
C72   C     C_R   0.355656 0.510859 0.048166 0.048911
C73   C     C_R   0.317171 0.571508 0.024775 0.020657
C74   C     C_R   0.468759 0.389644 0.045730 -0.101407
C75   C     C_R   0.195377 0.631931 0.103275 -0.065907
C76   C     C_3   0.325191 0.681390 0.587608 0.278645
C77   C     C_R   0.316412 0.627286 0.947444 -0.101155
C78   C     C_3   0.390613 0.710229 0.296735 -0.002940
C79   C     C_R   0.360955 0.625865 0.897967 -0.066026
C80   C     C_R   0.237874 0.631774 0.053750 -0.100521
C81   C     C_3   0.298367 0.761536 0.604826 -0.416173
C82   C     C_3   0.627464 0.232971 0.744732 -0.207735
C83   C     C_3   0.592198 0.118065 0.369471 0.263995
C84   C     C_3   0.724601 0.062796 0.349780 -0.171566
C85   C     C_3   0.680054 0.986712 0.353676 -0.511060
C86   C     C_3   0.366389 0.841659 0.304599 -0.237090
C87   C     C_3   0.059273 0.169013 0.358161 -0.231884
C88   C     C_3   0.410951 0.934324 0.648351 -0.258964
C89   C     C_R   0.993719 0.044887 0.475981 -0.020740
C90   C     C_3   0.680236 0.710901 0.696846 -0.197426
H1    H     H_    0.421077 0.364027 0.646399 0.046387
H2    H     H_    0.210736 0.657318 0.571686 0.023148
H3    H     H_    0.417714 0.672337 0.558440 0.086539
H4    H     H_    0.456149 0.344164 0.731588 0.087528
H5    H     H_    0.190328 0.772505 0.628319 0.127328
H6    H     H_    0.282202 0.789641 0.572081 0.090717
H7    H     H_    0.406234 0.782311 0.627972 0.142898
H8    H     H_    0.590543 0.300129 0.646069 -0.002139
H9    H     H_    0.625164 0.311672 0.340055 0.060038
H10   H     H_    0.591931 0.338963 0.407334 -0.015508
H11   H     H_    0.460686 0.236333 0.413827 -0.032709
H12   H     H_    0.007901 0.715340 0.707961 0.101406
H13   H     H_    0.399227 0.217938 0.346819 0.047470
H14   H     H_    0.278476 0.299261 0.704403 0.123032
H15   H     H_    0.817419 0.200703 0.649165 0.107760
H16   H     H_    0.767217 0.722098 0.405036 0.103379
H17   H     H_    0.982499 0.711892 0.394384 -0.043516
H18   H     H_    0.877751 0.837800 0.396388 0.076137
H19   H     H_    0.955731 0.798631 0.335564 0.140087
H20   H     H_    0.739241 0.807069 0.343726 0.128898
H21   H     H_    0.230286 0.699549 0.356018 -0.019693
H22   H     H_    0.403426 0.637497 0.349578 0.040473
H23   H     H_    0.994799 0.622555 0.715766 0.065106
H24   H     H_    0.353997 0.662828 0.268340 0.071778
H25   H     H_    0.521658 0.717179 0.292136 0.116742
H26   H     H_    0.070424 0.285263 0.606962 0.115903
H27   H     H_    0.302930 0.096046 0.412446 0.044238
H28   H     H_    0.402316 0.976162 0.416240 0.060276
H29   H     H_    0.152780 0.652432 0.482930 0.067339
H30   H     H_    0.368818 0.861382 0.437759 0.103786
H31   H     H_    0.728729 0.802245 0.569311 0.116850
H32   H     H_    0.431117 0.029094 0.593102 0.068840
H33   H     H_    0.446572 0.137185 0.562949 0.110864
H34   H     H_    0.140185 0.648420 0.675983 0.143924
H35   H     H_    0.852699 0.288140 0.594993 -0.024200
H36   H     H_    0.640688 0.341735 0.505993 0.068578
H37   H     H_    0.439637 0.483601 0.277151 0.115519
H38   H     H_    0.448731 0.343069 0.111588 0.120880
H39   H     H_    0.872944 0.486258 0.755632 0.098071
H40   H     H_    0.698085 0.347111 0.876060 0.110417
H41   H     H_    0.624918 0.346381 0.959887 0.066790
H42   H     H_    0.525805 0.340169 0.027702 0.067574
H43   H     H_    0.935932 0.540452 0.242147 0.102869
H44   H     H_    0.135165 0.679699 0.123545 0.116108
H45   H     H_    0.105011 0.384277 0.383259 0.050765
H46   H     H_    0.246072 0.674061 0.963747 0.066974
H47   H     H_    0.972565 0.166819 0.605620 0.089083
H48   H     H_    0.324434 0.671169 0.879924 0.117670
H49   H     H_    0.364069 0.525733 0.716296 0.116132
H50   H     H_    0.208178 0.680659 0.039674 0.066505
H51   H     H_    0.149955 0.554898 0.394823 0.067444
H52   H     H_    0.662030 0.452165 0.601326 0.065570
H53   H     H_    0.029026 0.204247 0.670586 0.135240
H54   H     H_    0.920181 0.589792 0.622049 0.034479
H55   H     H_    0.467799 0.186712 0.685663 0.221654
H56   H     H_    0.902583 0.422433 0.376148 0.037509
H57   H     H_    0.672271 0.177606 0.747400 0.089390
H58   H     H_    0.606929 0.262432 0.783655 0.154650
H59   H     H_    0.720617 0.260226 0.727397 0.158316
H60   H     H_    0.478346 0.102294 0.346967 0.029562
H61   H     H_    0.576443 0.116030 0.410089 0.049162
H62   H     H_    0.745913 0.065506 0.309620 0.120832
H63   H     H_    0.837800 0.074504 0.372685 0.115443
H64   H     H_    0.674449 0.981440 0.394100 0.138824
H65   H     H_    0.774248 0.947950 0.336075 0.145944
H66   H     H_    0.561677 0.973357 0.333632 0.128737
H67   H     H_    0.036987 0.294866 0.299817 0.138639
H68   H     H_    0.246419 0.767553 0.250644 0.229534
H69   H     H_    0.476798 0.845674 0.283451 0.101801
H70   H     H_    0.398158 0.849502 0.345747 0.148868
H71   H     H_    0.278342 0.885260 0.297955 0.101622
H72   H     H_    0.208754 0.206507 0.420836 0.203335
H73   H     H_    0.130227 0.199000 0.335572 0.099318
H74   H     H_    0.930240 0.177430 0.347391 0.188085
H75   H     H_    0.095273 0.111299 0.348101 0.071397
H76   H     H_    0.622842 0.872752 0.634820 0.178680
H77   H     H_    0.380079 0.898861 0.674980 0.104480
H78   H     H_    0.065593 0.385207 0.293331 0.085547
H79   H     H_    0.299414 0.943885 0.625362 0.122565
H80   H     H_    0.453391 0.985465 0.671336 0.109050
H81   H     H_    0.654662 0.641084 0.628867 0.199218
H82   H     H_    0.549882 0.708528 0.703947 0.151000
H83   H     H_    0.700175 0.761131 0.682386 0.104632
H84   H     H_    0.746154 0.711586 0.733926 0.110324
H85   H     H_    0.862731 0.353090 0.292241 0.099857
N1    N     N_R   0.223810 0.513055 0.199517 -0.425624
N2    N     N_R   0.581549 0.507305 0.796254 -0.424417
N3    N     N_2   0.477069 0.230335 0.714714 -0.432198
N4    N     N_2   0.294300 0.772776 0.287295 -0.416239
N5    N     N_2   0.089111 0.196202 0.411665 -0.386575
N6    N     N_2   0.537044 0.900073 0.615699 -0.432679
N7    N     N_2   0.730274 0.648390 0.660425 -0.451767
O1    O     O_2   0.106080 0.324280 0.466820 -0.448395
O2    O     O_2   0.664752 0.557268 0.331310 -0.496254
O3    O     O_3   0.832329 0.670225 0.333586 -0.594674
O4    O     O_3   0.859130 0.413620 0.470620 -0.487941
O5    O     O_3   0.459240 0.537930 0.559910 -0.486154
O6    O     O_2   0.583120 0.462390 0.379940 -0.473046
O7    O     O_3   0.393002 0.347624 0.356833 -0.682908
O8    O     O_2   0.549839 0.756853 0.480915 -0.489765
O9    O     O_3   0.451110 0.740434 0.386140 -0.621722
O10   O     O_2   0.325051 0.399217 0.191884 -0.601189
O11   O     O_2   0.703323 0.398710 0.797718 -0.618032
O12   O     O_3   0.378188 0.652279 0.629936 -0.652372
O13   O     O_2   0.119457 0.625436 0.200590 -0.607699
O14   O     O_2   0.460553 0.617275 0.801070 -0.609002
O15   O     O_3   0.376230 0.370290 0.556910 -0.471296
O16   O     O_2   0.250979 0.243743 0.522026 -0.498252
O17   O     O_3   0.919587 0.317218 0.386613 -0.618206
O18   O     O_3   0.374120 0.258200 0.613689 -0.625614
O19   O     O_2   0.227190 0.537650 0.620070 -0.481371
O20   O     O_3   0.971110 0.406970 0.583250 -0.491493
O21   O     O_2   0.139953 0.438896 0.669991 -0.505166
O22   O     O_3   0.635597 0.188078 0.364551 -0.676763
O23   O     O_3   0.933691 0.337005 0.666545 -0.605686
O24   O     O_2   0.704230 0.675760 0.533200 -0.476009
O25   O     O_3   0.951180 0.586390 0.529420 -0.491204
O26   O     O_3   0.434080 0.629720 0.443130 -0.474589
O27   O     O_3   0.905664 0.697172 0.612946 -0.659896
O28   O     O_3   0.351080 0.462080 0.440130 -0.457814
O29   O     O_3   0.839200 0.593040 0.416790 -0.486009
P1    P     P_3+3 0.929380 0.335110 0.452880 1.023645
P2    P     P_3+3 0.398530 0.559060 0.613740 0.972901
P3    P     P_3+3 0.966135 0.420254 0.649155 0.953236
P4    P     P_3+3 0.880940 0.664900 0.547160 0.960981
P5    P     P_3+3 0.833276 0.585161 0.350788 0.964791
P6    P     P_3+3 0.399292 0.277477 0.553204 0.926106
P7    P     P_3+3 0.400907 0.441034 0.376450 0.952299
P8    P     P_3+3 0.411151 0.721751 0.445712 0.925724

loop_
_geom_bond_atom_site_label_1
_geom_bond_atom_site_label_2
_ccdc_geom_bond_type
C79   H48   S    
O6    P7    D    
C43   H37   S    
C62   O14   D    
C71   C72   A    
C44   N1    S    
Ba1   O19   S    
C42   P7    S    
Ba2   O5    S    
C80   H50   S    
C16   H53   S    
C7    C89   A    
C5    C6    A    
C43   C44   S    
C90   H84   S    
O2    P5    D    
C67   H21   S    
C24   C25   A    
C35   C36   A    
C54   C77   A    
C3    H27   S    
C34   H11   S    
C56   H20   S    
C68   P2    S    
O19   P2    D    
C33   C35   A    
C22   C24   A    
C4    H35   S    
C65   C70   D    
C53   C57   A    
C41   C50   S    
C52   H45   S    
C19   C31   A    
C38   O13   D    
C86   H69   S    
C20   C36   A    
C54   C55   A    
C88   H77   S    
Ba1   Ba2   S    
C82   N3    S    
C51   C66   S    
C7    C11   A    
C16   H15   S    
C87   H75   S    
O5    P2    S    
C15   C17   A    
C9    C13   A    
C76   C81   S    
C46   C49   A    
C78   H24   S    
H81   N7    S    
C88   N6    S    
C14   C15   A    
C81   H6    S    
C88   H79   S    
Ba1   P2    S    
Ba2   P4    S    
C39   C44   D    
C52   O17   S    
C1    H4    S    
C75   H44   S    
C48   H38   S    
C63   N2    Am   
C12   H1    S    
C69   H49   S    
C2    C89   A    
C82   H57   S    
C42   C50   D    
O9    P8    S    
C57   C58   A    
C90   H83   S    
O26   P8    S    
C81   H7    S    
C29   H32   S    
Ba1   O28   S    
C39   C41   S    
C58   H40   S    
Ba1   O15   S    
C16   H47   S    
C36   P1    S    
O27   P4    S    
C51   C68   D    
H55   N3    S    
C64   H67   S    
C64   H85   S    
C83   O22   S    
C28   H54   S    
C1    H14   S    
C4    C16   S    
C37   O10   D    
C67   H22   S    
Ba2   O26   S    
C50   H51   S    
C72   C73   A    
Ba1   O25   S    
C65   C66   S    
C1    N3    S    
C46   C72   A    
C55   C60   A    
O15   P6    S    
O21   P3    D    
C21   N5    S    
C90   N7    S    
C28   O27   S    
C3    C5    A    
C2    C21   A    
C74   H42   S    
C84   C85   S    
C6    C7    A    
C76   O12   S    
C18   C26   A    
C90   H82   S    
C83   C84   S    
C57   H41   S    
C22   H31   S    
C56   H19   S    
C40   H12   S    
C58   C59   A    
C30   C32   A    
O18   P6    S    
C13   P8    S    
O17   P1    S    
C84   H63   S    
C49   C75   A    
C60   C61   A    
C48   C74   A    
C40   H23   S    
C29   C30   A    
C26   C30   A    
C76   H3    S    
C9    C10   A    
H76   N6    S    
C25   C26   A    
C67   O9    S    
C31   C32   A    
C34   O22   S    
C78   N4    S    
C18   C19   A    
C87   H73   S    
C4    O23   S    
C68   C69   D    
C1    C12   S    
Ba2   O29   S    
C38   N1    Am   
C46   C47   A    
C37   C47   A    
C61   C79   A    
C47   C48   A    
C53   C55   A    
C23   O7    S    
C71   C74   A    
C41   P5    S    
Ba2   O24   S    
O1    P1    D    
C45   O3    S    
C38   C49   A    
H68   N4    S    
C39   H43   S    
C37   N1    Am   
C15   P4    S    
C42   C43   D    
C52   H56   S    
Ba1   O4    S    
O24   P4    D    
C62   N2    Am   
C14   H29   S    
C78   H25   S    
Ba2   O25   S    
O4    P1    S    
C27   N6    S    
C34   H13   S    
C56   H18   S    
C28   N7    S    
C5    H28   S    
C64   H78   S    
C65   H39   S    
Ba2   O6    S    
C2    C3    A    
C8    H30   S    
C33   P6    S    
O7    P7    S    
O8    P8    D    
O29   P5    S    
C77   C79   A    
C73   C80   A    
C12   H8    S    
C52   C64   S    
Ba1   O1    S    
C86   H71   S    
O28   P7    S    
O20   P3    S    
Ba2   O28   S    
C85   H66   S    
C51   H52   S    
O25   P4    S    
C87   N5    S    
C35   H36   S    
C17   C22   A    
C84   H62   S    
C83   H60   S    
C69   C70   S    
C27   C29   A    
C45   H17   S    
C83   H61   S    
O12   P2    S    
C23   H9    S    
C86   N4    S    
C75   C80   A    
C76   H2    S    
C32   H33   S    
C86   H70   S    
C12   O18   S    
C10   C17   A    
O23   P3    S    
C31   C33   A    
C66   P3    S    
C28   C40   S    
C59   C63   A    
C59   C60   A    
C23   H10   S    
Ba2   O4    S    
C87   H74   S    
H72   N5    S    
C8    C9    A    
C40   H34   S    
C23   C34   S    
C61   C62   A    
C53   C71   A    
C82   H59   S    
C85   H65   S    
C18   C89   A    
C77   H46   S    
C10   C11   A    
C24   C27   A    
C6    C8    A    
C45   H16   S    
C81   H5    S    
C88   H80   S    
Ba1   P1    S    
C54   C73   A    
O16   P6    D    
C20   C21   A    
C11   C25   A    
C67   C78   S    
C70   N2    S    
C63   O11   D    
C19   C20   A    
Ba1   O20   S    
C85   H64   S    
C4    H26   S    
C13   C14   A    
C82   H58   S    
C45   C56   S    
O3    P5    S    
Ba1   O5    S    
