data_mof_unit_50462.cif
_audit_creation_date              2012-12-10T17:33:03-0500
_audit_creation_method            fapswitch 2.2
_symmetry_space_group_name_H-M    P1
_symmetry_Int_Tables_number       1
_space_group_crystal_system       triclinic
_cell_length_a                    12.420721
_cell_length_b                    13.287667
_cell_length_c                    14.25373
_cell_angle_alpha                 94.228885
_cell_angle_beta                  107.769252
_cell_angle_gamma                 117.311992
_cell_volume                      1925.92868188

loop_
_atom_site_label
_atom_site_type_symbol
_atom_type_description
_atom_site_fract_x
_atom_site_fract_y
_atom_site_fract_z
_atom_type_partial_charge
C1    C     C_R   0.650851 0.714107 0.508861 0.829499
C2    C     C_R   0.841017 0.488103 0.917227 0.042371
C3    C     C_R   0.786891 0.496318 0.989894 -0.073386
C4    C     C_R   0.947567 0.466766 0.943311 0.013916
C5    C     C_R   0.008206 0.467382 0.045552 0.012505
C6    C     C_R   0.949568 0.473204 0.115329 -0.265459
C7    C     C_R   0.840671 0.486741 0.087801 0.597599
C8    C     C_R   0.993097 0.441712 0.870013 -0.295740
C9    C     C_R   0.100220 0.425525 0.897023 0.655574
C10   C     C_R   0.168515 0.436490 0.998996 -0.114540
C11   C     C_R   0.123966 0.459615 0.074232 -0.031323
C12   C     C_R   0.617486 0.515837 0.686867 0.903415
C13   C     C_R   0.281087 0.425420 0.027676 0.693796
C14   C     C_R   0.350371 0.439413 0.129776 -0.296211
C15   C     C_R   0.199257 0.478211 0.176624 -0.213000
C16   C     C_R   0.135421 0.962953 0.361472 -0.176111
C17   C     C_R   0.249019 0.161339 0.463773 -0.045123
C18   C     C_R   0.734840 0.923178 0.577644 -0.180153
C19   C     C_R   0.827536 0.040563 0.598589 -0.115032
C20   C     C_R   0.927440 0.074211 0.562046 -0.153851
C21   C     C_R   0.933750 0.990341 0.499802 0.074844
C22   C     C_R   0.829985 0.872397 0.468764 0.087400
C23   C     C_R   0.345392 0.285143 0.485073 0.786548
C24   C     C_R   0.038844 0.019784 0.466451 0.074828
C25   C     C_R   0.032393 0.934589 0.395171 0.151834
C26   C     C_R   0.921920 0.822984 0.356432 -0.217491
C27   C     C_R   0.821355 0.792719 0.391501 -0.175747
C28   C     C_R   0.150993 0.131410 0.502470 -0.225314
C29   C     C_R   0.242989 0.076286 0.395031 -0.185425
C30   C     C_R   0.736837 0.837862 0.515196 -0.096971
C31   C     C_R   0.260344 0.686666 0.665787 0.565344
C32   C     C_R   0.653503 0.341793 0.361603 0.098140
C33   C     C_R   0.730197 0.307660 0.330321 -0.183918
C34   C     C_R   0.380861 0.481925 0.312992 0.806460
C35   C     C_R   0.865870 0.367360 0.382475 -0.126030
C36   C     C_R   0.928086 0.463176 0.467524 -0.035820
C37   C     C_R   0.845712 0.496463 0.497309 0.158425
C38   C     C_R   0.068887 0.527150 0.523733 -0.093348
C39   C     C_R   0.124541 0.622276 0.608646 -0.071875
C40   C     C_R   0.044997 0.653697 0.636290 -0.236853
C41   C     C_R   0.910992 0.594766 0.583117 0.552645
C42   C     C_R   0.158632 0.501839 0.500287 0.026175
C43   C     C_R   0.341851 0.657176 0.638629 0.057690
C44   C     C_R   0.677638 0.516242 0.793380 -0.211958
C45   C     C_R   0.310243 0.466745 0.204731 -0.139291
C46   C     C_R   0.678889 0.513285 0.963342 -0.177094
C47   C     C_R   0.623443 0.521832 0.865498 0.623615
C48   C     C_R   0.787918 0.503431 0.821052 -0.263888
Cu1   Cu    Cu3+1 0.416420 0.526630 0.522910 0.986948
Cu2   Cu    Cu3+1 0.583580 0.473370 0.477090 0.989414
H1    H     H_    0.913123 0.758600 0.298737 0.180765
H2    H     H_    0.130842 0.898395 0.306856 0.143950
H3    H     H_    0.663314 0.898953 0.612648 0.161854
H4    H     H_    0.996168 0.166832 0.582073 0.158307
H5    H     H_    0.824457 0.105778 0.646223 0.161885
H6    H     H_    0.735506 0.706850 0.355065 0.174838
H7    H     H_    0.446541 0.706061 0.682130 0.157201
H8    H     H_    0.087284 0.727061 0.700937 0.240558
H9    H     H_    0.126017 0.431012 0.437255 0.128491
H10   H     H_    0.684111 0.234323 0.265061 0.151631
H11   H     H_    0.436217 0.430129 0.150124 0.194728
H12   H     H_    0.832165 0.507346 0.766265 0.198925
H13   H     H_    0.982667 0.463271 0.191408 0.157973
H14   H     H_    0.945087 0.429828 0.789727 0.162853
N1    N     N_R   0.290690 0.566960 0.557640 -0.224564
N2    N     N_R   0.709100 0.433710 0.442970 -0.197101
O1    O     O_R   0.545970 0.684450 0.528810 -0.601477
O2    O     O_R   0.687130 0.639470 0.490120 -0.512674
O3    O     O_R   0.519670 0.535100 0.660030 -0.522634
O4    O     O_R   0.660830 0.490120 0.621340 -0.532991
O5    O     O_R   0.312870 0.360530 0.509880 -0.575524
O6    O     O_R   0.454030 0.315550 0.471190 -0.599827
O7    O     O_R   0.339170 0.509880 0.378660 -0.594655
O8    O     O_R   0.480330 0.464900 0.339970 -0.597049
F1    F     F_    0.788529 0.491426 0.157991 -0.688307
F2    F     F_    0.325128 0.401574 0.957572 -0.576301
H15   H     H_    0.318248 0.098535 0.364074 0.150469
H16   H     H_    0.164327 0.198049 0.559999 0.170909
H17   H     H_    0.175382 0.505324 0.236627 0.166375
F3    F     F_    0.314061 0.777851 0.747538 -0.657031
H18   H     H_    0.548368 0.294646 0.320285 0.120698
H19   H     H_    0.919787 0.336684 0.354553 0.125620
F4    F     F_    0.854277 0.642101 0.621634 -0.654511
F5    F     F_    0.137695 0.400994 0.822360 -0.597208
H20   H     H_    0.635951 0.518577 0.017933 0.227390
F6    F     F_    0.516487 0.534310 0.841744 -0.591597

loop_
_geom_bond_atom_site_label_1
_geom_bond_atom_site_label_2
_ccdc_geom_bond_type
C12   O3    A    
C17   C29   A    
C35   C36   A    
C4    C8    A    
C31   F3    S    
C32   H18   S    
C26   C27   A    
C17   C23   S    
C31   C43   A    
C36   C37   A    
C5    C11   A    
C3    C7    A    
Cu2   O8    S    
C5    C6    A    
C41   F4    S    
C1    O2    A    
C18   C19   A    
Cu2   O6    S    
C18   H3    S    
C1    O1    A    
C11   C15   A    
C15   H17   S    
C19   C20   A    
C8    C9    A    
C42   N1    A    
C16   H2    S    
C18   C30   A    
C28   H16   S    
C9    C10   A    
C44   C47   A    
C46   H20   S    
Cu1   O3    S    
C13   C14   A    
Cu1   O1    S    
C25   C26   A    
C35   H19   S    
C14   C45   A    
C40   H8    S    
C47   F6    S    
C23   O5    A    
C24   C25   A    
C20   H4    S    
C39   C40   A    
C27   H6    S    
C7    F1    S    
C34   O7    A    
C2    C48   A    
C16   C29   A    
C14   H11   S    
C6    H13   S    
C2    C4    A    
C48   H12   S    
C13   F2    S    
C43   N1    A    
C37   N2    A    
C34   C45   S    
Cu2   N2    S    
Cu1   N1    S    
C34   O8    A    
C40   C41   A    
C8    H14   S    
C33   H10   S    
C22   C27   A    
Cu1   O7    S    
C15   C45   A    
C32   N2    A    
C19   H5    S    
C16   C25   A    
C12   O4    A    
C46   C47   A    
C22   C30   A    
C17   C28   A    
C23   O6    A    
C24   C28   A    
C4    C5    A    
C10   C13   A    
C42   H9    S    
C38   C42   A    
C6    C7    A    
C3    C46   A    
C32   C33   A    
C36   C38   A    
C2    C3    A    
Cu2   O4    S    
C12   C44   S    
C26   H1    S    
C38   C39   A    
C1    C30   S    
C33   C35   A    
C31   C39   A    
C37   C41   A    
C10   C11   A    
C43   H7    S    
C9    F5    S    
C29   H15   S    
C20   C21   A    
Cu1   Cu2   S    
Cu1   O5    S    
C21   C24   A    
C21   C22   A    
Cu2   O2    S    
C44   C48   A    
