data_mof_unit_65589.cif
_audit_creation_date              2012-12-10T16:52:47-0500
_audit_creation_method            fapswitch 2.2
_symmetry_space_group_name_H-M    P1
_symmetry_Int_Tables_number       1
_space_group_crystal_system       triclinic
_cell_length_a                    26.299233
_cell_length_b                    26.239287
_cell_length_c                    22.25542
_cell_angle_alpha                 90.000654
_cell_angle_beta                  53.93343
_cell_angle_gamma                 89.99297
_cell_volume                      12414.2786868

loop_
_atom_site_label
_atom_site_type_symbol
_atom_type_description
_atom_site_fract_x
_atom_site_fract_y
_atom_site_fract_z
_atom_type_partial_charge
C1    C     C_R   0.650302 0.249966 0.699476 0.499523
C2    C     C_1   0.889394 0.750053 0.221031 -0.000460
C3    C     C_2   0.248900 0.943893 0.502995 -0.092304
C4    C     C_3   0.498581 0.796298 0.975237 -0.098669
C5    C     C_3   0.503286 0.202497 0.975251 -0.099657
C6    C     C_3   0.002308 0.297256 0.975258 -0.098641
C7    C     C_3   0.998777 0.703596 0.975227 -0.099781
C8    C     C_3   0.863843 0.954160 0.451377 -0.103260
C9    C     C_3   0.652314 0.046135 0.631861 -0.102895
C10   C     C_3   0.363962 0.453429 0.451528 -0.103361
C11   C     C_3   0.152424 0.545852 0.631834 -0.102962
C12   C     C_1   0.389401 0.749929 0.221032 -0.000639
C13   C     C_1   0.389394 0.250053 0.221031 -0.000461
C14   C     C_1   0.610615 0.750089 0.778972 0.004148
C15   C     C_1   0.610586 0.249888 0.778972 0.000625
C16   C     C_1   0.110615 0.250088 0.778972 0.004119
C17   C     C_1   0.110586 0.749888 0.778972 0.000647
C18   C     C_3   0.023245 0.282358 0.025005 -0.098555
C19   C     C_3   0.020699 0.714993 0.024981 -0.098204
C20   C     C_3   0.520553 0.785123 0.024995 -0.098503
C21   C     C_R   0.650314 0.750025 0.699474 0.505575
C22   C     C_3   0.523902 0.218367 0.024993 -0.098225
C23   C     C_3   0.963456 0.249965 0.072991 0.048164
C24   C     C_3   0.963427 0.749995 0.072989 0.048408
C25   C     C_3   0.463456 0.749966 0.072991 0.048148
C26   C     C_3   0.463427 0.249995 0.072989 0.048420
C27   C     C_3   0.559171 0.738889 0.975473 -0.099956
C28   C     C_3   0.557776 0.265763 0.975455 -0.099289
C29   C     C_3   0.058137 0.235165 0.975463 -0.100091
C30   C     C_3   0.059081 0.761289 0.975467 -0.099148
C31   C     C_3   0.536549 0.750064 0.927014 0.048740
C32   C     C_R   0.150302 0.749967 0.699476 0.499546
C33   C     C_3   0.536510 0.249893 0.927013 0.048696
C34   C     C_3   0.036550 0.250063 0.927014 0.048729
C35   C     C_3   0.036510 0.749893 0.927013 0.048701
C36   C     C_3   0.997698 0.202772 0.024747 -0.100502
C37   C     C_3   0.001160 0.796291 0.024775 -0.100501
C38   C     C_3   0.501424 0.703732 0.024768 -0.100665
C39   C     C_3   0.496652 0.297390 0.024750 -0.100298
C40   C     C_3   0.479452 0.714907 0.975011 -0.098424
C41   C     C_3   0.476035 0.281521 0.975010 -0.098797
C42   C     C_3   0.976761 0.217670 0.975000 -0.098358
C43   C     C_R   0.150314 0.250025 0.699474 0.505608
C44   C     C_3   0.979238 0.784895 0.975022 -0.098786
C45   C     C_1   0.922821 0.249927 0.154185 -0.057587
C46   C     C_1   0.922803 0.750043 0.154184 -0.057695
C47   C     C_1   0.422821 0.749927 0.154185 -0.057572
C48   C     C_1   0.422803 0.250043 0.154184 -0.057692
C49   C     C_R   0.849711 0.249984 0.300529 0.504952
C50   C     C_R   0.849713 0.750013 0.300527 0.503660
C51   C     C_R   0.349710 0.749984 0.300529 0.504975
C52   C     C_R   0.349713 0.250013 0.300527 0.503643
C53   C     C_1   0.577189 0.750097 0.845819 -0.054255
C54   C     C_3   0.941869 0.264863 0.024543 -0.099418
C55   C     C_1   0.577152 0.249867 0.845819 -0.056447
C56   C     C_1   0.077189 0.250096 0.845819 -0.054277
C57   C     C_1   0.077151 0.749867 0.845819 -0.056436
C58   C     C_2   0.491594 0.220652 0.460509 -0.162532
C59   C     C_2   0.492809 0.777674 0.458040 -0.162706
C60   C     C_2   0.991594 0.720652 0.460509 -0.162530
C61   C     C_2   0.992808 0.277674 0.458040 -0.162714
C62   C     C_2   0.438202 0.245275 0.509748 -0.116620
C63   C     C_2   0.446555 0.743435 0.492982 -0.115003
C64   C     C_2   0.938202 0.745274 0.509748 -0.116577
C65   C     C_3   0.940855 0.738599 0.024537 -0.099571
C66   C     C_2   0.946555 0.243435 0.492983 -0.115023
C67   C     C_2   0.540977 0.215582 0.472018 0.070094
C68   C     C_2   0.551732 0.769901 0.450399 0.069534
C69   C     C_2   0.040978 0.715582 0.472017 0.070091
C70   C     C_2   0.051732 0.269901 0.450399 0.069517
C71   C     C_2   0.561290 0.256068 0.490777 0.156265
C72   C     C_2   0.552187 0.756255 0.509057 0.155510
C73   C     C_2   0.061290 0.756068 0.490777 0.156254
C74   C     C_2   0.052187 0.256255 0.509057 0.155498
C75   C     C_2   0.738260 0.972227 0.463124 -0.123231
C76   C     C_3   0.440834 0.761141 0.024533 -0.099285
C77   C     C_2   0.745879 0.027781 0.456620 -0.122176
C78   C     C_2   0.238122 0.472220 0.463271 -0.122848
C79   C     C_2   0.245741 0.527773 0.456721 -0.121823
C80   C     C_2   0.763108 0.943308 0.489691 0.323956
C81   C     C_2   0.737079 0.056706 0.511887 0.325047
C82   C     C_2   0.263159 0.443311 0.489615 0.324000
C83   C     C_2   0.237098 0.556705 0.511898 0.325145
C84   C     C_R   0.888902 0.249271 0.499173 0.513953
C85   C     C_R   0.887942 0.749424 0.501105 0.509667
C86   C     C_R   0.388902 0.749271 0.499173 0.513963
C87   C     C_3   0.442160 0.234125 0.024549 -0.099764
C88   C     C_R   0.387942 0.249424 0.501104 0.509563
C89   C     C_R   0.611624 0.250161 0.499558 0.585389
C90   C     C_R   0.611278 0.750313 0.500255 0.587788
C91   C     C_R   0.111624 0.750161 0.499558 0.585391
C92   C     C_R   0.111278 0.250312 0.500255 0.587781
C93   C     C_R   0.748460 0.111436 0.501369 0.500326
C94   C     C_R   0.751542 0.888566 0.498741 0.500572
C95   C     C_R   0.248461 0.611436 0.501371 0.500619
C96   C     C_R   0.251559 0.388566 0.498724 0.500016
C97   C     C_R   0.749987 0.388610 0.500251 0.514995
C98   C     C_1   0.889401 0.249929 0.221032 -0.000664
C99   C     C_R   0.749929 0.611390 0.499868 0.512644
C100  C     C_R   0.249986 0.888610 0.500251 0.514991
C101  C     C_R   0.249929 0.111390 0.499868 0.512650
C102  C     C_2   0.800865 0.528051 0.458489 -0.158650
C103  C     C_2   0.800589 0.471935 0.456911 -0.158761
C104  C     C_2   0.300865 0.028051 0.458489 -0.158645
C105  C     C_2   0.300589 0.971935 0.456911 -0.158759
C106  C     C_2   0.748300 0.556108 0.499403 -0.093062
C107  C     C_2   0.748900 0.443893 0.502995 -0.092306
C108  C     C_2   0.248300 0.056108 0.499403 -0.093068
H1    H     H_    0.846389 0.546673 0.423743 0.155076
H2    H     H_    0.756998 0.045292 0.405948 0.098394
H3    H     H_    0.213052 0.454693 0.443532 0.098449
H4    H     H_    0.256717 0.545276 0.406110 0.098480
H5    H     H_    0.701973 0.539217 0.533342 0.108965
H6    H     H_    0.703984 0.460796 0.545218 0.108862
H7    H     H_    0.201973 0.039217 0.533342 0.108962
H8    H     H_    0.203984 0.960796 0.545218 0.108857
H9    H     H_    0.893580 0.277062 0.045734 0.109411
H10   H     H_    0.891762 0.729280 0.045725 0.108870
H11   H     H_    0.391695 0.770280 0.045715 0.109576
H12   H     H_    0.845145 0.453300 0.416481 0.155034
H13   H     H_    0.394140 0.221129 0.045746 0.108637
H14   H     H_    0.497928 0.834335 0.953861 0.110033
H15   H     H_    0.506529 0.163505 0.953886 0.107935
H16   H     H_    0.004717 0.336081 0.953899 0.110249
H17   H     H_    0.998315 0.665507 0.953842 0.107494
H18   H     H_    0.463076 0.686054 0.953446 0.112084
H19   H     H_    0.456879 0.307470 0.953445 0.110965
H20   H     H_    0.958173 0.191090 0.953427 0.112210
H21   H     H_    0.962714 0.813618 0.953469 0.110995
H22   H     H_    0.995289 0.163948 0.046106 0.107764
H23   H     H_    0.346389 0.046673 0.423743 0.155086
H24   H     H_    0.001624 0.834381 0.046157 0.107047
H25   H     H_    0.502077 0.665695 0.046144 0.107590
H26   H     H_    0.493410 0.336383 0.046112 0.107323
H27   H     H_    0.608309 0.729750 0.954292 0.108668
H28   H     H_    0.605796 0.278759 0.954260 0.109197
H29   H     H_    0.106425 0.222966 0.954273 0.108399
H30   H     H_    0.108173 0.770608 0.954282 0.109541
H31   H     H_    0.041833 0.308938 0.046579 0.110459
H32   H     H_    0.037222 0.686270 0.046535 0.110531
H33   H     H_    0.536928 0.813975 0.046560 0.110544
H34   H     H_    0.345145 0.953300 0.416481 0.155031
H35   H     H_    0.543058 0.192418 0.046558 0.110477
H36   H     H_    0.497818 0.200978 0.413634 0.151068
H37   H     H_    0.489499 0.810181 0.430266 0.150769
H38   H     H_    0.997818 0.700979 0.413633 0.151077
H39   H     H_    0.989498 0.310182 0.430267 0.150761
H40   H     H_    0.531364 0.140914 0.498864 0.224484
H41   H     H_    0.586953 0.153790 0.408145 0.232173
H42   H     H_    0.609967 0.752977 0.340976 0.226845
H43   H     H_    0.610107 0.814907 0.361562 0.231338
H44   H     H_    0.031366 0.640913 0.498861 0.224475
H45   H     H_    0.429556 0.261126 0.559935 0.111060
H46   H     H_    0.086954 0.653790 0.408143 0.232167
H47   H     H_    0.109967 0.252977 0.340976 0.226838
H48   H     H_    0.110106 0.314906 0.361562 0.231344
H49   H     H_    0.498392 0.314437 0.545676 0.229238
H50   H     H_    0.536499 0.314411 0.450886 0.231123
H51   H     H_    0.474780 0.717509 0.593130 0.230254
H52   H     H_    0.464764 0.782487 0.594927 0.232612
H53   H     H_    0.998390 0.814436 0.545679 0.229273
H54   H     H_    0.036498 0.814412 0.450889 0.231179
H55   H     H_    0.974780 0.217509 0.593131 0.230248
H56   H     H_    0.451888 0.708735 0.515135 0.112660
H57   H     H_    0.964764 0.282488 0.594927 0.232613
H58   H     H_    0.877534 0.969368 0.396996 0.093517
H59   H     H_    0.873929 0.912613 0.447027 0.112740
H60   H     H_    0.893542 0.973448 0.464802 0.150794
H61   H     H_    0.624155 0.031225 0.613081 0.096205
H62   H     H_    0.643960 0.087697 0.643539 0.113427
H63   H     H_    0.635507 0.026751 0.684833 0.148124
H64   H     H_    0.377981 0.467599 0.396517 0.092796
H65   H     H_    0.373500 0.411856 0.448778 0.114334
H66   H     H_    0.393823 0.473166 0.464361 0.150612
H67   H     H_    0.929555 0.761125 0.559936 0.111059
H68   H     H_    0.124372 0.530572 0.613112 0.096339
H69   H     H_    0.143733 0.587402 0.643417 0.112948
H70   H     H_    0.135798 0.526612 0.684840 0.148225
H71   H     H_    0.951888 0.208735 0.515135 0.112631
H72   H     H_    0.713349 0.954706 0.443175 0.098657
N1    N     N_3   0.567809 0.165917 0.462306 -0.607214
N2    N     N_3   0.609689 0.777540 0.378157 -0.602713
N3    N     N_3   0.067811 0.665917 0.462304 -0.607228
N4    N     N_3   0.109689 0.277540 0.378157 -0.602699
N5    N     N_3   0.540778 0.307551 0.494007 -0.642192
N6    N     N_3   0.495928 0.753058 0.584078 -0.642626
N7    N     N_3   0.040776 0.807550 0.494009 -0.642159
N8    N     N_3   0.995928 0.253059 0.584078 -0.642643
O1    O     O_3   0.750010 0.250010 0.500000 -0.448719
O2    O     O_R   0.613890 0.719960 0.543100 -0.529441
O3    O     O_R   0.113890 0.780040 0.543100 -0.530672
O4    O     O_R   0.113890 0.219960 0.543100 -0.529449
O5    O     O_R   0.697860 0.219970 0.664410 -0.538160
O6    O     O_R   0.697860 0.780030 0.664410 -0.535139
O7    O     O_R   0.197860 0.719970 0.664410 -0.538118
O8    O     O_R   0.197860 0.280030 0.664410 -0.535105
O9    O     O_R   0.802170 0.219970 0.335590 -0.537270
O10   O     O_R   0.802170 0.780030 0.335590 -0.534507
O11   O     O_R   0.302170 0.719970 0.335590 -0.537250
O12   O     O_3   0.750010 0.749990 0.500000 -0.448838
O13   O     O_R   0.302170 0.280030 0.335590 -0.534500
O14   O     O_R   0.637780 0.280050 0.664410 -0.539618
O15   O     O_R   0.637780 0.719950 0.664410 -0.534219
O16   O     O_R   0.137780 0.780050 0.664410 -0.539630
O17   O     O_R   0.137780 0.219950 0.664410 -0.534202
O18   O     O_R   0.862250 0.280060 0.335590 -0.538797
O19   O     O_R   0.862250 0.719940 0.335590 -0.540157
O20   O     O_R   0.362250 0.780060 0.335590 -0.538798
O21   O     O_R   0.362250 0.219940 0.335590 -0.540166
O22   O     O_R   0.843040 0.219980 0.543100 -0.535161
O23   O     O_3   0.250010 0.750010 0.500000 -0.448757
O24   O     O_R   0.843040 0.780020 0.543100 -0.540016
O25   O     O_R   0.343040 0.719980 0.543100 -0.535154
O26   O     O_R   0.343040 0.280020 0.543100 -0.540225
O27   O     O_R   0.656980 0.219970 0.456900 -0.518323
O28   O     O_R   0.656980 0.780030 0.456900 -0.517080
O29   O     O_R   0.156980 0.719970 0.456900 -0.518341
O30   O     O_R   0.156980 0.280030 0.456900 -0.517068
O31   O     O_R   0.758500 0.135440 0.543100 -0.512907
O32   O     O_R   0.758500 0.864560 0.543100 -0.511077
O33   O     O_R   0.258500 0.635440 0.543100 -0.512642
O34   O     O_3   0.250010 0.249990 0.500000 -0.448759
O35   O     O_R   0.258500 0.364560 0.543100 -0.511712
O36   O     O_R   0.698440 0.364590 0.543100 -0.535441
O37   O     O_R   0.698440 0.635410 0.543100 -0.540434
O38   O     O_R   0.198440 0.864590 0.543100 -0.535452
O39   O     O_R   0.198440 0.135410 0.543100 -0.540429
O40   O     O_R   0.741510 0.135430 0.456900 -0.574095
O41   O     O_R   0.741510 0.864570 0.456900 -0.578662
O42   O     O_R   0.241510 0.635430 0.456900 -0.574166
O43   O     O_R   0.241510 0.364570 0.456900 -0.578497
O44   O     O_R   0.801610 0.364600 0.456900 -0.541895
O45   O     O_R   0.886150 0.280070 0.456900 -0.541199
O46   O     O_R   0.801610 0.635400 0.456900 -0.540950
O47   O     O_R   0.301610 0.864600 0.456900 -0.541903
O48   O     O_R   0.301610 0.135400 0.456900 -0.540930
O49   O     O_3   0.800213 0.964618 0.508587 -0.498161
O50   O     O_3   0.716852 0.035407 0.579649 -0.498404
O51   O     O_3   0.300431 0.464675 0.508242 -0.498449
O52   O     O_3   0.217041 0.535423 0.579608 -0.498305
O53   O     O_R   0.886150 0.719930 0.456900 -0.541495
O54   O     O_R   0.386150 0.780070 0.456900 -0.541197
O55   O     O_R   0.386150 0.219930 0.456900 -0.541465
O56   O     O_R   0.613890 0.280040 0.543100 -0.530683
Zn1   Zn    Zn3+2 0.823730 0.292940 0.438410 0.935084
Zn2   Zn    Zn3+2 0.737880 0.792910 0.438410 0.940591
Zn3   Zn    Zn3+2 0.237880 0.707090 0.438410 0.940404
Zn4   Zn    Zn3+2 0.237880 0.292910 0.438410 0.940570
Zn5   Zn    Zn3+2 0.676310 0.292930 0.561590 0.948690
Zn6   Zn    Zn3+2 0.676310 0.707070 0.561590 0.952677
Zn7   Zn    Zn3+2 0.176310 0.792930 0.561590 0.948693
Zn8   Zn    Zn3+2 0.176310 0.207070 0.561590 0.952705
Zn9   Zn    Zn3+2 0.823730 0.707060 0.438410 0.930551
Zn10  Zn    Zn3+2 0.323730 0.792940 0.438410 0.935096
Zn11  Zn    Zn3+2 0.323730 0.207060 0.438410 0.930520
Zn12  Zn    Zn3+2 0.762140 0.207100 0.561590 0.951120
Zn13  Zn    Zn3+2 0.762140 0.792900 0.561590 0.951693
Zn14  Zn    Zn3+2 0.262140 0.707100 0.561590 0.951319
Zn15  Zn    Zn3+2 0.262140 0.292900 0.561590 0.951241
Zn16  Zn    Zn3+2 0.737880 0.207090 0.438410 0.940359

loop_
_geom_bond_atom_site_label_1
_geom_bond_atom_site_label_2
_ccdc_geom_bond_type
C61   C70   S    
C58   C62   D    
O35   Zn15  S    
C85   O24   A    
C97   O36   A    
C34   C56   S    
O37   Zn6   S    
C23   C45   S    
O25   Zn14  S    
C43   O17   A    
O30   Zn4   S    
C21   O15   A    
C9    H61   S    
C103  H12   S    
C34   C42   S    
C95   O42   A    
H52   N6    S    
C88   O55   A    
C90   O28   A    
C50   O10   A    
O12   Zn13  S    
C39   C41   S    
C49   O9    A    
C8    O49   S    
C2    C46   T    
C29   C36   S    
C68   N2    S    
C11   H68   S    
C95   O33   A    
C88   O26   A    
C79   H4    S    
C23   C54   S    
C30   H30   S    
C108  H7    S    
C71   N5    S    
O44   Zn1   S    
C3    H8    S    
C32   O7    A    
C62   C88   S    
H54   N7    S    
C59   C68   S    
C84   O22   A    
C26   C39   S    
C96   O43   A    
C97   O44   A    
C20   C25   S    
C27   C38   S    
C10   H64   S    
C13   C52   S    
C58   H36   S    
O32   Zn13  S    
O24   Zn13  S    
O2    Zn6   S    
O55   Zn11  S    
C81   O50   S    
O1    Zn5   S    
C52   O13   A    
C38   H25   S    
C74   C92   S    
C41   H19   S    
C8    H60   S    
O12   Zn6   S    
C49   C98   S    
O16   Zn7   S    
C36   C42   S    
C3    C100  S    
O1    Zn1   S    
C5    C22   S    
O43   Zn4   S    
C19   H32   S    
C79   C83   D    
C104  H23   S    
C5    C33   S    
C22   H35   S    
C70   C74   D    
O3    Zn7   S    
C65   H10   S    
C69   C73   D    
C78   H3    S    
C1    C15   S    
C97   C107  S    
C6    H16   S    
C21   O6    A    
C2    C50   S    
C75   C80   D    
C25   C47   S    
O34   Zn15  S    
C42   H20   S    
O12   Zn9   S    
C89   O27   A    
C50   O19   A    
C101  C108  S    
C40   H18   S    
C10   O51   S    
O13   Zn4   S    
C22   C28   S    
H46   N3    S    
H41   N1    S    
C10   H66   S    
C44   C65   S    
C18   H31   S    
O20   Zn10  S    
C16   C56   T    
C6    C54   S    
C12   C47   T    
C41   C87   S    
C1    O14   A    
C61   C66   D    
C85   O53   A    
C104  C105  S    
C73   N7    S    
C74   N8    S    
H48   N4    S    
C63   H56   S    
C6    C18   S    
C27   H27   S    
H57   N8    S    
C82   C96   S    
O56   Zn5   S    
C61   H39   S    
C106  H5    S    
C27   C31   S    
C18   C23   S    
C76   H11   S    
O5    Zn12  S    
O18   Zn1   S    
C26   C48   S    
C73   C91   S    
H42   N2    S    
O31   Zn12  S    
O12   Zn2   S    
C105  H34   S    
C87   H13   S    
C99   O46   A    
C51   O20   A    
C26   C87   S    
O39   Zn8   S    
C28   C39   S    
C28   H28   S    
C11   O52   S    
O34   Zn11  S    
O23   Zn3   S    
C29   C34   S    
C3    C105  D    
O23   Zn14  S    
C40   C76   S    
C30   C37   S    
C43   O8    A    
C64   H67   S    
C66   C84   S    
C15   C55   T    
O27   Zn16  S    
C32   O16   A    
O8    Zn15  S    
C1    O5    A    
C60   H38   S    
C107  H6    S    
C35   C44   S    
C8    H59   S    
C36   H22   S    
C25   C38   S    
C7    C65   S    
O15   Zn6   S    
C81   C93   S    
C78   C82   D    
C71   C89   S    
C77   C81   D    
C86   O54   A    
C96   O35   A    
C83   C95   S    
C82   O51   S    
O14   Zn5   S    
C101  O48   A    
C94   O32   A    
C24   C37   S    
H40   N1    S    
C89   O56   A    
C4    H14   S    
C33   C55   S    
C18   C29   S    
C7    H17   S    
H44   N3    S    
C92   O30   A    
C75   H72   S    
C75   C77   S    
C16   C43   S    
C72   N6    S    
C99   O37   A    
C51   O11   A    
C24   C65   S    
C69   N3    S    
C11   H69   S    
O41   Zn2   S    
C59   H37   S    
O34   Zn4   S    
C70   N4    S    
O9    Zn16  S    
C28   C33   S    
C7    C19   S    
C63   C86   S    
C52   O21   A    
O54   Zn10  S    
O26   Zn15  S    
C31   C53   S    
O7    Zn14  S    
O53   Zn9   S    
C93   O31   A    
O23   Zn10  S    
C80   C94   S    
O33   Zn14  S    
H50   N5    S    
C64   C85   S    
C104  C108  D    
C12   C51   S    
C29   H29   S    
H51   N6    S    
H43   N2    S    
C72   C90   S    
C90   O2    A    
C99   C106  S    
C83   O52   S    
C84   O45   A    
C101  O39   A    
O1    Zn16  S    
C67   N1    S    
H47   N4    S    
C7    C35   S    
C20   H33   S    
O36   Zn5   S    
O29   Zn3   S    
O47   Zn10  S    
H49   N5    S    
O38   Zn7   S    
C102  H1    S    
C45   C98   T    
C13   C48   T    
O40   Zn16  S    
C37   H24   S    
C20   C27   S    
O11   Zn3   S    
C68   C72   D    
C30   C35   S    
C66   H71   S    
C5    H15   S    
C59   C63   D    
C62   H45   S    
C35   C57   S    
C60   C64   D    
O6    Zn13  S    
C33   C41   S    
C25   C76   S    
C37   C44   S    
C19   C24   S    
C44   H21   S    
C86   O25   A    
O46   Zn9   S    
H53   N7    S    
O17   Zn8   S    
O4    Zn8   S    
C42   C54   S    
C38   C40   S    
C91   O29   A    
C78   C79   S    
C93   O40   A    
O45   Zn1   S    
O22   Zn12  S    
C91   O3    A    
C60   C69   S    
C10   H65   S    
C4    C20   S    
C8    H58   S    
C100  O38   A    
C102  C106  D    
O1    Zn12  S    
C67   C71   D    
O48   Zn11  S    
O19   Zn9   S    
C102  C103  S    
C4    C76   S    
C4    C31   S    
C9    H63   S    
C14   C21   S    
C5    C87   S    
O28   Zn2   S    
C6    C34   S    
C58   C67   S    
O10   Zn2   S    
C14   C53   T    
C49   O18   A    
C80   O49   S    
C23   C36   S    
C22   C26   S    
C54   H9    S    
C9    H62   S    
C9    O50   S    
C17   C32   S    
H55   N8    S    
C100  O47   A    
C103  C107  D    
C31   C40   S    
O23   Zn7   S    
C19   C30   S    
C11   H70   S    
C77   H2    S    
O21   Zn11  S    
O42   Zn3   S    
C92   O4    A    
C94   O41   A    
C17   C57   T    
C24   C46   S    
C39   H26   S    
O34   Zn8   S    
