data_mof_unit_13325.cif
_audit_creation_date              2012-12-10T17:53:19-0500
_audit_creation_method            fapswitch 2.2
_symmetry_space_group_name_H-M    P1
_symmetry_Int_Tables_number       1
_space_group_crystal_system       triclinic
_cell_length_a                    23.485873
_cell_length_b                    10.649226
_cell_length_c                    9.917415
_cell_angle_alpha                 89.632033
_cell_angle_beta                  89.215222
_cell_angle_gamma                 93.499047
_cell_volume                      2475.48701888

loop_
_atom_site_label
_atom_site_type_symbol
_atom_type_description
_atom_site_fract_x
_atom_site_fract_y
_atom_site_fract_z
_atom_type_partial_charge
C1    C     C_R   0.505341 0.260731 0.500767 0.933419
C2    C     C_R   0.964014 0.267272 0.491242 -0.095061
C3    C     C_R   0.023080 0.265429 0.486661 0.085491
C4    C     C_R   0.057178 0.379856 0.499422 -0.032137
C5    C     C_R   0.030086 0.494576 0.518162 -0.073894
C6    C     C_R   0.062847 0.609765 0.532115 -0.226164
C7    C     C_R   0.035102 0.723682 0.546319 0.442098
C8    C     C_R   0.975941 0.721482 0.559620 0.436035
C9    C     C_R   0.117203 0.385119 0.494450 0.524508
C10   C     C_R   0.122369 0.606222 0.536984 0.574117
C11   C     C_R   0.237634 0.543329 0.395198 0.082079
C12   C     C_R   0.389534 0.503260 0.500764 0.932113
C13   C     C_R   0.297260 0.552893 0.391885 0.381091
C14   C     C_R   0.327414 0.508296 0.503476 -0.267874
C15   C     C_R   0.297472 0.464542 0.619519 -0.235659
C16   C     C_R   0.238386 0.460530 0.625814 0.477477
C17   C     C_R   0.208378 0.498495 0.511743 0.124648
C18   C     C_R   0.765317 0.482665 0.386037 0.024946
C19   C     C_R   0.705581 0.484740 0.378885 0.043583
C20   C     C_R   0.673238 0.496467 0.499138 -0.098492
C21   C     C_R   0.700927 0.504203 0.623819 -0.358595
C22   C     C_R   0.760075 0.501200 0.630839 0.474083
C23   C     C_R   0.493547 0.738532 0.500438 0.902390
C24   C     C_R   0.791777 0.490924 0.511723 0.269983
C25   C     C_R   0.531171 0.108313 0.750382 0.497299
C26   C     C_R   0.514122 0.048378 0.872411 -0.320291
C27   C     C_R   0.477024 0.941513 0.871873 -0.335678
C28   C     C_R   0.461673 0.884232 0.749236 0.485276
C29   C     C_R   0.484563 0.936758 0.626532 -0.020634
C30   C     C_R   0.509458 0.059228 0.627061 -0.020743
C31   C     C_R   0.510300 0.126776 0.503179 -0.069638
C32   C     C_R   0.502832 0.064043 0.380645 -0.215702
C33   C     C_R   0.492787 0.936334 0.380248 -0.220383
C34   C     C_R   0.610733 0.499473 0.499105 0.928822
C35   C     C_R   0.485635 0.871398 0.502519 -0.064474
C36   C     C_R   0.430327 0.324466 0.151211 -0.105056
C37   C     C_R   0.399759 0.225748 0.092100 0.044052
C38   C     C_R   0.398617 0.219120 0.953940 -0.317512
C39   C     C_R   0.427140 0.312575 0.872887 0.468697
C40   C     C_R   0.464845 0.409424 0.931434 0.103644
C41   C     C_R   0.465459 0.411842 0.076235 0.006105
C42   C     C_R   0.532895 0.585133 0.069670 0.163942
C43   C     C_R   0.532709 0.584886 0.926301 -0.177518
C44   C     C_R   0.882787 0.604039 0.531971 0.616084
C45   C     C_R   0.877895 0.380686 0.508229 0.579313
C46   C     C_R   0.937256 0.379883 0.507517 -0.047485
C47   C     C_R   0.970026 0.494204 0.522191 -0.061655
C48   C     C_R   0.942635 0.607791 0.540457 -0.237734
H1    H     H_    0.938993 0.178983 0.480816 0.221164
H2    H     H_    0.676644 0.512864 0.716595 0.176584
H3    H     H_    0.504647 0.113297 0.284561 0.174581
H4    H     H_    0.528532 0.086079 0.968085 0.155870
H5    H     H_    0.461422 0.901641 0.967117 0.156452
H6    H     H_    0.491526 0.888589 0.284067 0.167918
H7    H     H_    0.424714 0.329575 0.256878 0.233287
H8    H     H_    0.372374 0.143645 0.909103 0.166564
H9    H     H_    0.559363 0.654170 0.870507 0.149235
H10   H     H_    0.319935 0.432460 0.706626 0.227565
N1    N     N_R   0.852341 0.491689 0.518350 -0.317134
N2    N     N_R   0.147607 0.496329 0.514697 -0.336340
N3    N     N_R   0.499460 0.498800 0.142780 -0.101862
N4    N     N_R   0.499440 0.498720 0.857170 -0.093771
O1    O     O_R   0.500000 0.316780 0.614690 -0.518685
O2    O     O_2   0.845716 0.271846 0.497205 -0.540177
O3    O     O_2   0.145683 0.281242 0.470479 -0.564412
O4    O     O_2   0.155310 0.710331 0.566876 -0.520011
O5    O     O_R   0.500000 0.316750 0.385360 -0.674185
O6    O     O_R   0.416160 0.499970 0.614690 -0.529033
O7    O     O_R   0.416150 0.499950 0.385360 -0.640895
O8    O     O_R   0.500000 0.683250 0.614640 -0.586562
O9    O     O_R   0.500000 0.683220 0.385310 -0.623383
O10   O     O_R   0.583850 0.500050 0.614640 -0.618543
O11   O     O_R   0.583840 0.500030 0.385310 -0.579371
O12   O     O_2   0.854890 0.711105 0.532663 -0.518601
Zn1   Zn    Zn3+2 0.500000 0.500020 0.653130 1.029013
Zn2   Zn    Zn3+2 0.500000 0.499980 0.346870 0.967280
N5    N     N_3   0.677978 0.474224 0.250881 -0.422611
H11   H     H_    0.687434 0.388903 0.206910 0.188463
H12   H     H_    0.693829 0.547938 0.188300 0.177773
O13   O     O_3   0.788166 0.508448 0.752275 -0.750729
H13   H     H_    0.759800 0.515294 0.826459 0.329110
O14   O     O_3   0.572122 0.207269 0.748813 -0.750190
H14   H     H_    0.582200 0.229468 0.842857 0.324033
O15   O     O_3   0.421759 0.783362 0.746373 -0.745383
H15   H     H_    0.410504 0.758896 0.840116 0.336273
N6    N     N_3   0.568182 0.676913 0.139016 -0.387112
H16   H     H_    0.556272 0.765943 0.109601 0.161250
H17   H     H_    0.610316 0.668535 0.106727 0.168810
N7    N     N_3   0.046249 0.144942 0.470055 -0.382427
H18   H     H_    0.069740 0.144410 0.379830 0.241154
H19   H     H_    0.071923 0.126562 0.552266 0.270431
N8    N     N_3   0.368054 0.134456 0.174305 -0.440301
H20   H     H_    0.382559 0.045917 0.151998 0.194466
H21   H     H_    0.325172 0.134183 0.147239 0.220927
O16   O     O_3   0.414054 0.311319 0.739517 -0.732321
H22   H     H_    0.388512 0.237151 0.716188 0.314291
O17   O     O_3   0.064437 0.839636 0.548980 -0.669644
H23   H     H_    0.090412 0.844012 0.469213 0.358542
O18   O     O_3   0.952237 0.833406 0.589203 -0.662251
H24   H     H_    0.925080 0.816289 0.665452 0.366523
N9    N     N_3   0.205932 0.582827 0.281591 -0.417769
H25   H     H_    0.217794 0.530809 0.197812 0.237210
H26   H     H_    0.217353 0.677711 0.262111 0.232445
O19   O     O_3   0.324171 0.608205 0.280036 -0.752633
H27   H     H_    0.357820 0.660192 0.311078 0.344568
O20   O     O_3   0.211960 0.418921 0.744615 -0.731983
H28   H     H_    0.170341 0.427135 0.739106 0.344023
N10   N     N_3   0.800031 0.473226 0.266795 -0.435238
H29   H     H_    0.793384 0.549536 0.203377 0.199333
H30   H     H_    0.787587 0.390047 0.216999 0.209504

loop_
_geom_bond_atom_site_label_1
_geom_bond_atom_site_label_2
_ccdc_geom_bond_type
C12   O7    A    
N9    H25   S    
C28   O15   S    
O16   H22   S    
C41   N3    A    
O17   H23   S    
C7    C8    A    
N5    H11   S    
C2    C46   A    
O6    Zn1   S    
C12   O6    A    
C26   C27   A    
C37   C38   A    
C18   C24   A    
C28   C29   A    
C8    O18   S    
C30   C31   A    
N6    H17   S    
O20   H28   S    
C44   N1    A    
C15   C16   A    
C1    C31   S    
C40   N4    A    
N10   H29   S    
O7    Zn2   S    
C18   C19   A    
C19   N5    S    
C21   H2    S    
C33   C35   A    
C45   N1    A    
C31   C32   A    
C16   C17   A    
C42   N6    S    
N7    H19   S    
C16   O20   S    
C33   H6    S    
C20   C34   S    
N5    H12   S    
N9    H26   S    
C21   C22   A    
C23   O8    A    
C36   C41   A    
O10   Zn1   S    
C1    O1    A    
O19   H27   S    
C9    O3    S    
C10   O4    S    
N3    Zn2   S    
C38   C39   A    
C47   C48   A    
C23   O9    A    
O15   H15   S    
C39   C40   A    
N6    H16   S    
C4    C5    A    
C34   O11   A    
C25   C26   A    
C45   C46   A    
C10   N2    A    
C8    C48   A    
C32   H3    S    
C29   C30   A    
C2    H1    S    
C26   H4    S    
C5    C47   A    
O18   H24   S    
N8    H21   S    
C11   N9    S    
C20   C21   A    
C13   O19   S    
C44   O12   S    
C42   N3    A    
C39   O16   S    
C40   C41   A    
C12   C14   S    
C23   C35   S    
C25   O14   S    
C15   H10   S    
C22   C24   A    
N4    Zn1   S    
C42   C43   A    
C3    C4    A    
C34   O10   A    
O9    Zn2   S    
C27   C28   A    
C25   C30   A    
C46   C47   A    
C11   C17   A    
C7    O17   S    
C37   N8    S    
O13   H13   S    
C6    C10   A    
C27   H5    S    
C6    C7    A    
C29   C35   A    
C45   O2    S    
C3    N7    S    
C9    N2    A    
C32   C33   A    
C19   C20   A    
C2    C3    A    
C4    C9    A    
C22   O13   S    
C36   H7    S    
C11   C13   A    
C5    C6    A    
O1    Zn1   S    
C24   N1    S    
N8    H20   S    
C1    O5    A    
N10   H30   S    
C18   N10   S    
C43   H9    S    
C17   N2    S    
C38   H8    S    
O11   Zn2   S    
C36   C37   A    
O14   H14   S    
O8    Zn1   S    
C14   C15   A    
O5    Zn2   S    
N7    H18   S    
C13   C14   A    
C44   C48   A    
C43   N4    A    
