data_mof_unit_53001.cif
_audit_creation_date              2012-12-10T20:31:00-0500
_audit_creation_method            fapswitch 2.2
_symmetry_space_group_name_H-M    P1
_symmetry_Int_Tables_number       1
_space_group_crystal_system       triclinic
_cell_length_a                    14.949726
_cell_length_b                    10.709072
_cell_length_c                    9.987383
_cell_angle_alpha                 89.674547
_cell_angle_beta                  90.514208
_cell_angle_gamma                 91.31205
_cell_volume                      1598.44940185

loop_
_atom_site_label
_atom_site_type_symbol
_atom_type_description
_atom_site_fract_x
_atom_site_fract_y
_atom_site_fract_z
_atom_type_partial_charge
C1    C     C_R   0.500406 0.260708 0.499811 0.875190
C2    C     C_R   0.908468 0.613100 0.517717 0.068243
C3    C     C_R   0.949655 0.276108 0.442367 -0.020155
C4    C     C_R   0.044047 0.275819 0.443734 -0.092307
C5    C     C_R   0.092386 0.387670 0.472635 0.060111
C6    C     C_R   0.047142 0.499917 0.497021 0.085208
C7    C     C_R   0.095691 0.613556 0.518732 0.066941
C8    C     C_R   0.050074 0.723253 0.545445 -0.218632
C9    C     C_R   0.957839 0.722892 0.552565 -0.007712
C10   C     C_R   0.185700 0.390682 0.476107 -0.220952
C11   C     C_R   0.232399 0.502144 0.497185 -0.110758
C12   C     C_R   0.327586 0.498971 0.499336 0.906355
C13   C     C_R   0.189223 0.614518 0.516605 -0.061195
C14   C     C_R   0.550385 0.066505 0.599742 0.078832
C15   C     C_R   0.509050 0.129616 0.495821 -0.053050
C16   C     C_R   0.483442 0.064427 0.379743 -0.188757
C17   C     C_R   0.485593 0.935569 0.379753 -0.147867
C18   C     C_R   0.511429 0.871973 0.496806 -0.045294
C19   C     C_R   0.551672 0.939659 0.601704 0.028354
C20   C     C_3   0.555953 0.936608 0.753036 -0.153592
C21   C     C_3   0.552537 0.079702 0.747875 -0.454312
C22   C     C_R   0.421998 0.499107 0.069651 0.264176
C23   C     C_R   0.501914 0.739647 0.499851 0.962394
C24   C     C_R   0.575779 0.530431 0.072705 -0.021040
C25   C     C_R   0.576031 0.529082 0.928965 -0.049682
C26   C     C_R   0.421992 0.494433 0.930028 0.046853
C27   C     C_3   0.338621 0.411938 0.926199 -0.217630
C28   C     C_3   0.339277 0.419506 0.082165 -0.377378
C29   C     C_R   0.672519 0.499077 0.500583 0.897147
C30   C     C_R   0.815809 0.613596 0.495845 -0.088125
C31   C     C_R   0.768311 0.499238 0.502264 -0.203529
C32   C     C_R   0.812294 0.384915 0.509492 -0.027098
C33   C     C_R   0.904894 0.384937 0.484110 0.086751
C34   C     C_R   0.953586 0.499118 0.499796 -0.003728
H1    H     H_    0.460261 0.886398 0.292247 0.214597
H2    H     H_    0.490130 0.119025 0.786608 0.235262
H3    H     H_    0.614571 0.129655 0.782354 0.232767
H4    H     H_    0.353643 0.332234 0.138177 0.188828
H5    H     H_    0.223732 0.306805 0.463003 0.141305
H6    H     H_    0.085883 0.809679 0.567794 0.203253
H7    H     H_    0.456696 0.111725 0.292437 0.191508
N1    N     N_R   0.499390 0.499140 0.142800 -0.167844
N2    N     N_R   0.499390 0.499180 0.857150 -0.153141
O1    O     O_R   0.500010 0.316790 0.614690 -0.591912
O2    O     O_R   0.500000 0.316760 0.385350 -0.640148
O3    O     O_R   0.367850 0.499990 0.614680 -0.617534
O4    O     O_R   0.367840 0.499950 0.385340 -0.599356
O5    O     O_R   0.500000 0.683240 0.614650 -0.649298
O6    O     O_R   0.499990 0.683210 0.385310 -0.568417
O7    O     O_R   0.632160 0.500050 0.614660 -0.637907
O8    O     O_R   0.632150 0.500010 0.385320 -0.610288
Zn1   Zn    Zn3+2 0.500010 0.500020 0.653130 0.992115
Zn2   Zn    Zn3+2 0.499990 0.499980 0.346870 1.033174
C35   C     C_2   0.771031 0.730223 0.452561 0.956882
O9    O     O_2   0.699271 0.758085 0.499709 -0.664404
O10   O     O_R   0.812323 0.808945 0.358247 -0.782868
H8    H     H_    0.776127 0.885740 0.337580 0.380889
C36   C     C_2   0.475369 0.875671 0.819782 0.962714
O11   O     O_2   0.485080 0.802231 0.912772 -0.616056
O12   O     O_R   0.389370 0.904859 0.776048 -0.776806
H9    H     H_    0.341465 0.863859 0.833728 0.377497
C37   C     C_2   0.645147 0.894519 0.805904 0.450653
H10   H     H_    0.693689 0.857245 0.738250 0.154915
O13   O     O_2   0.664295 0.905030 0.924499 -0.476505
C38   C     C_2   0.653396 0.587057 0.142812 1.023985
O14   O     O_2   0.647611 0.691273 0.190764 -0.563409
O15   O     O_R   0.733698 0.522920 0.151505 -0.723867
H11   H     H_    0.782716 0.572776 0.199142 0.354862
C39   C     C_2   0.655863 0.576337 0.858496 0.549446
H12   H     H_    0.649118 0.650353 0.785655 0.078546
O16   O     O_2   0.729128 0.531468 0.878547 -0.501560
C40   C     C_2   0.261126 0.476829 0.858539 0.485223
H13   H     H_    0.267842 0.574025 0.827891 0.111057
O17   O     O_2   0.189432 0.421936 0.841724 -0.538379
C41   C     C_2   0.351329 0.281147 0.873962 0.997056
O18   O     O_2   0.349313 0.262157 0.753458 -0.589084
O19   O     O_R   0.359011 0.180630 0.963052 -0.827292
H14   H     H_    0.359056 0.097085 0.916430 0.367845
C42   C     C_2   0.261028 0.486754 0.141254 0.498154
H15   H     H_    0.199669 0.434461 0.162049 0.076978
O20   O     O_2   0.264974 0.598703 0.164292 -0.505133
C43   C     C_2   0.761967 0.269748 0.552431 0.511953
H16   H     H_    0.691334 0.258105 0.529700 0.029992
O21   O     O_2   0.798521 0.188954 0.618529 -0.554836
C44   C     C_2   0.899678 0.171457 0.374944 0.478318
H17   H     H_    0.919681 0.075581 0.387859 0.122589
O22   O     O_2   0.836805 0.192488 0.299838 -0.537545
C45   C     C_2   0.092473 0.161502 0.405877 0.401509
H18   H     H_    0.145113 0.167065 0.331811 0.079366
O23   O     O_2   0.076073 0.061517 0.460598 -0.583342
C46   C     C_2   0.242217 0.732010 0.532760 0.896321
O24   O     O_2   0.244188 0.784754 0.640826 -0.612051
O25   O     O_R   0.287293 0.783601 0.423184 -0.753537
H19   H     H_    0.314714 0.868625 0.444310 0.347367
C47   C     C_2   0.918148 0.834243 0.614052 0.475909
H20   H     H_    0.947554 0.926362 0.596461 0.124007
O26   O     O_2   0.856249 0.823069 0.692243 -0.548079

loop_
_geom_bond_atom_site_label_1
_geom_bond_atom_site_label_2
_ccdc_geom_bond_type
O25   H19   S    
C3    C44   S    
C24   N1    A    
C47   H20   S    
C1    O2    A    
C25   N2    A    
C7    C8    A    
C21   H2    S    
O19   H14   S    
C30   C35   S    
C26   C27   S    
C5    C6    A    
C14   C21   S    
C17   H1    S    
O5    Zn1   S    
N1    Zn2   S    
C30   C31   A    
N2    Zn1   S    
C23   O6    A    
C3    C33   A    
C36   O12   S    
C15   C16   A    
O3    Zn1   S    
O10   H8    S    
C18   C19   A    
C39   O16   D    
C28   C42   S    
C37   O13   D    
C19   C20   S    
C8    C9    A    
C38   O15   S    
O7    Zn1   S    
C1    C15   S    
C9    C47   S    
O4    Zn2   S    
O1    Zn1   S    
O2    Zn2   S    
C22   C28   S    
C13   C46   S    
C12   O4    A    
C27   C41   S    
C26   N2    A    
C17   C18   A    
C29   O7    A    
C44   O22   D    
C35   O10   S    
C18   C23   S    
C24   C25   A    
C12   O3    A    
C46   O24   D    
C42   O20   D    
C16   C17   A    
C36   O11   D    
C44   H17   S    
C6    C34   A    
C10   H5    S    
O8    Zn2   S    
C41   O18   D    
C37   H10   S    
C46   O25   S    
C1    O1    A    
C31   C32   A    
C28   H4    S    
C33   C34   A    
C45   H18   S    
C41   O19   S    
C24   C38   S    
C40   O17   D    
O15   H11   S    
C45   O23   D    
C43   H16   S    
C43   O21   D    
C25   C39   S    
C20   C36   S    
C3    C4    A    
C29   O8    A    
C35   O9    D    
C23   O5    A    
C14   C19   A    
C40   H13   S    
C11   C12   S    
C47   O26   D    
C6    C7    A    
C4    C45   S    
C32   C43   S    
C2    C30   A    
C32   C33   A    
C5    C10   A    
C29   C31   S    
C11   C13   A    
C2    C34   A    
C22   N1    A    
O6    Zn2   S    
C4    C5    A    
C20   C37   S    
C39   H12   S    
C10   C11   A    
C42   H15   S    
C7    C13   A    
C21   H3    S    
C20   C21   S    
C38   O14   D    
C22   C26   A    
C27   C28   S    
C14   C15   A    
O12   H9    S    
C8    H6    S    
C2    C9    A    
C16   H7    S    
C27   C40   S    
