data_mof_unit_5671.cif
_audit_creation_date              2013-03-05T16:06:18-0500
_audit_creation_method            fapswitch 2.2
_symmetry_space_group_name_H-M    P1
_symmetry_Int_Tables_number       1
_space_group_crystal_system       triclinic
_cell_length_a                    10.867247
_cell_length_b                    9.49587
_cell_length_c                    27.805471
_cell_angle_alpha                 90.303437
_cell_angle_beta                  90.594255
_cell_angle_gamma                 88.942705
_cell_volume                      2868.6765714

loop_
_atom_site_label
_atom_site_type_symbol
_atom_site_description
_atom_site_fract_x
_atom_site_fract_y
_atom_site_fract_z
_atom_type_partial_charge
O1    O     O_R   0.319640 0.618740 0.500000 -0.559538
O2    O     O_R   0.680360 0.381260 0.500000 -0.559549
O3    O     O_R   0.680360 0.618740 0.500000 -0.555246
O4    O     O_R   0.319640 0.381260 0.500000 -0.555230
C1    C     C_R   0.262111 0.501689 0.501074 0.876541
C2    C     C_R   0.737889 0.498310 0.498925 0.876503
O5    O     O_R   0.500020 0.618770 0.430260 -0.583604
O6    O     O_R   0.499980 0.381230 0.569740 -0.583578
O7    O     O_R   0.499980 0.618770 0.569740 -0.596855
O8    O     O_R   0.500020 0.381230 0.430260 -0.596884
C3    C     C_R   0.500099 0.499617 0.407396 0.785235
C4    C     C_R   0.499914 0.500383 0.592603 0.785249
Cu1   Cu    Cu3+1 0.500000 0.640660 0.500000 0.954845
Cu2   Cu    Cu3+1 0.500000 0.359340 0.500000 0.954838
C5    C     C_R   0.394591 0.466126 0.177404 0.531936
C6    C     C_R   0.605571 0.533775 0.822603 0.531881
O9    O     O_2   0.289950 0.443548 0.201695 -0.538107
O10   O     O_2   0.710250 0.556171 0.798315 -0.538236
N1    N     N_R   0.501270 0.492752 0.202032 -0.469222
N2    N     N_R   0.498862 0.507277 0.797973 -0.469130
C7    C     C_R   0.609279 0.512978 0.178479 0.548399
C8    C     C_R   0.390836 0.487174 0.821534 0.548363
C9    C     C_R   0.488102 0.369213 0.279001 -0.104878
C10   C     C_R   0.485358 0.377939 0.721423 -0.106674
C11   C     C_R   0.488154 0.370717 0.329121 -0.219575
C12   C     C_R   0.485765 0.376016 0.671254 -0.228452
C13   C     C_R   0.513217 0.624182 0.328738 -0.228159
C14   C     C_R   0.513021 0.629098 0.670875 -0.219583
C15   C     C_R   0.513650 0.622268 0.278569 -0.106928
C16   C     C_R   0.513105 0.630609 0.720994 -0.104724
C17   C     C_R   0.500791 0.494863 0.253581 0.359994
C18   C     C_R   0.499330 0.505153 0.746418 0.359460
C19   C     C_R   0.502460 0.489241 0.101816 -0.049253
C20   C     C_R   0.497694 0.510787 0.898194 -0.049266
C21   C     C_R   0.393403 0.463057 0.126925 -0.004450
C22   C     C_R   0.606760 0.536882 0.873081 -0.004379
C23   C     C_R   0.287164 0.428569 0.101247 -0.174611
C24   C     C_R   0.713018 0.571322 0.898756 -0.174613
C25   C     C_R   0.612050 0.509790 0.127984 -0.058469
C26   C     C_R   0.388086 0.490328 0.872030 -0.058434
C27   C     C_R   0.500461 0.498299 0.354460 -0.035737
C28   C     C_R   0.499595 0.501704 0.645536 -0.035648
H1    H     H_    0.523266 0.723907 0.347327 0.153724
H2    H     H_    0.523911 0.727539 0.652028 0.152260
H3    H     H_    0.523584 0.719728 0.259055 0.137414
H4    H     H_    0.523471 0.729330 0.740153 0.137707
H5    H     H_    0.204276 0.398511 0.119609 0.186830
H6    H     H_    0.795917 0.601322 0.880391 0.186835
C29   C     C_R   0.385715 0.488456 0.974110 0.003095
C30   C     C_R   0.614451 0.511594 0.025903 0.003100
C31   C     C_R   0.610446 0.527361 0.974952 0.057337
C32   C     C_R   0.389726 0.472645 0.025058 0.057328
C33   C     C_R   0.498032 0.507406 0.949313 0.014495
C34   C     C_R   0.502132 0.492622 0.050698 0.014490
C35   C     C_R   0.273514 0.492292 0.946603 0.229909
C36   C     C_R   0.726644 0.507824 0.053416 0.229938
C37   C     C_R   0.277109 0.482804 0.896472 -0.209794
C38   C     C_R   0.723028 0.517368 0.103547 -0.209797
O11   O     O_2   0.286213 0.465935 0.796147 -0.537989
O12   O     O_2   0.713862 0.534389 0.203874 -0.537881
C39   C     C_R   0.286746 0.428254 0.051349 -0.176207
C40   C     C_R   0.713437 0.571690 0.948654 -0.176268
H7    H     H_    0.474816 0.276452 0.652660 0.153764
H8    H     H_    0.478146 0.272113 0.347966 0.152362
H9    H     H_    0.205440 0.387273 0.034305 0.182564
H10   H     H_    0.794756 0.612660 0.965689 0.182607
C41   C     C_R   0.067231 0.389813 0.522801 0.154606
C42   C     C_R   0.932767 0.610179 0.477192 0.154589
C43   C     C_R   0.939249 0.381210 0.517977 0.152822
C44   C     C_R   0.060750 0.618782 0.482015 0.152821
C45   C     C_R   0.872014 0.494684 0.497149 -0.181501
C46   C     C_R   0.127984 0.505312 0.502846 -0.181496
C47   C     C_R   0.433715 0.075352 0.466349 -0.029594
C48   C     C_R   0.566286 0.924648 0.533651 -0.029490
C49   C     C_R   0.566017 0.073617 0.533721 -0.023347
C50   C     C_R   0.433984 0.926382 0.466279 -0.023375
H11   H     H_    0.380289 0.132277 0.439511 0.120146
H12   H     H_    0.619713 0.867723 0.560488 0.120036
H13   H     H_    0.619169 0.129160 0.560634 0.136728
H14   H     H_    0.380833 0.870840 0.439366 0.136647
N3    N     N_R   0.500000 0.852070 0.500000 -0.152436
N4    N     N_R   0.500000 0.147930 0.500000 -0.152462
H15   H     H_    0.474570 0.280626 0.740931 0.137723
H16   H     H_    0.478606 0.270355 0.259839 0.137374
H17   H     H_    0.191045 0.479811 0.876471 0.188373
H18   H     H_    0.809083 0.520423 0.123552 0.188353
N5    N     N_2   0.157044 0.522361 0.967793 -0.456091
H19   H     H_    0.082768 0.483439 0.948870 0.253736
C51   C     C_3   0.138340 0.668164 0.981702 -0.672521
H20   H     H_    0.048085 0.680983 0.999696 0.223626
H21   H     H_    0.138736 0.736704 0.949426 0.229580
H22   H     H_    0.211402 0.701804 0.007288 0.244645
N6    N     N_2   0.843129 0.477764 0.032239 -0.456107
H23   H     H_    0.917387 0.516733 0.051161 0.253744
C52   C     C_3   0.861875 0.331950 0.018352 -0.672559
H24   H     H_    0.952138 0.319137 0.000364 0.223634
H25   H     H_    0.788829 0.298252 0.992767 0.244650
H26   H     H_    0.861485 0.263450 0.050638 0.229587
N7    N     N_2   0.135670 0.284095 0.548587 -0.409465
H27   H     H_    0.105564 0.182376 0.545038 0.255392
C53   C     C_3   0.166215 0.321658 0.597717 -0.637218
H28   H     H_    0.081170 0.331833 0.619394 0.216745
H29   H     H_    0.216292 0.422572 0.599042 0.221624
H30   H     H_    0.226748 0.238421 0.613683 0.224013
N8    N     N_2   0.864325 0.715891 0.451403 -0.409515
H31   H     H_    0.894438 0.817609 0.454944 0.255379
C54   C     C_3   0.833752 0.678305 0.402278 -0.636985
H32   H     H_    0.918783 0.668147 0.380592 0.216705
H33   H     H_    0.773188 0.761520 0.386316 0.224148
H34   H     H_    0.783696 0.577376 0.400962 0.221583
N9    N     N_2   0.878036 0.259371 0.534569 -0.408722
H35   H     H_    0.906273 0.224752 0.568053 0.250065
C55   C     C_3   0.870939 0.146996 0.499194 -0.672772
H36   H     H_    0.964093 0.114861 0.486831 0.202619
H37   H     H_    0.815832 0.181605 0.467415 0.255308
H38   H     H_    0.826470 0.054200 0.515162 0.210046
N10   N     N_2   0.121964 0.740617 0.465421 -0.408739
H39   H     H_    0.093729 0.775224 0.431934 0.250054
C56   C     C_3   0.129055 0.853003 0.500792 -0.672757
H40   H     H_    0.035899 0.885140 0.513151 0.202617
H41   H     H_    0.173523 0.945795 0.484821 0.210046
H42   H     H_    0.184160 0.818405 0.532573 0.255332

loop_
_geom_bond_atom_site_label_1
_geom_bond_atom_site_label_2
_geom_bond_distance
_ccdc_geom_bond_type
N5    H19   1.032050 S    
N6    H23   1.032048 S    
C13   C15   1.395070 A    
C52   H24   1.110079 S    
O3    C2    1.293513 A    
N1    C17   1.433438 S    
C52   H26   1.111496 S    
C5    N1    1.367250 A    
N8    C54   1.446857 S    
C19   C25   1.405317 A    
O1    C1    1.285907 A    
N1    C7    1.367163 A    
C10   H15   1.082830 S    
C10   C12   1.395064 A    
C1    C46   1.458694 S    
C32   C39   1.414973 A    
N10   C56   1.449995 S    
C44   N10   1.426301 S    
Cu1   N3    2.007522 S    
C41   C46   1.409755 A    
C43   C45   1.413900 A    
O7    Cu1   1.951360 S    
C4    C28   1.471873 S    
N9    H35   1.030875 S    
C37   H17   1.083907 S    
C54   H32   1.111045 S    
O6    C4    1.294866 A    
C23   H5    1.083552 S    
C24   H6    1.083552 S    
O3    Cu1   1.967215 S    
C41   N7    1.429698 S    
C55   H38   1.109705 S    
C53   H29   1.110968 S    
Cu1   Cu2   2.671378 S    
O4    Cu2   1.967215 S    
C54   H33   1.110425 S    
O2    C2    1.285899 A    
C31   C40   1.414977 A    
C38   H18   1.083907 S    
C5    C21   1.403671 A    
C32   C34   1.423195 A    
C56   H41   1.109703 S    
C36   N6    1.425137 S    
C9    H16   1.083013 S    
C40   H10   1.076441 S    
C53   H28   1.111046 S    
C7    O12   1.349804 S    
O8    Cu2   1.951360 S    
C11   C27   1.406064 A    
C8    O11   1.349806 S    
O4    C1    1.293510 A    
C29   C35   1.432599 A    
C25   C38   1.393593 A    
C14   H2    1.083056 S    
C30   C36   1.432619 A    
C15   H3    1.082948 S    
C31   C33   1.423218 A    
C11   H8    1.083181 S    
C9    C17   1.399731 A    
O5    C3    1.294883 A    
C12   H7    1.083059 S    
C10   C18   1.400377 A    
C47   C50   1.414540 A    
C39   H9    1.076458 S    
C13   C27   1.406009 A    
N7    H27   1.029432 S    
C7    C25   1.404834 A    
C6    N2    1.367316 A    
C29   C32   1.425479 A    
C8    C26   1.404845 A    
C30   C31   1.425522 A    
N9    C55   1.449996 S    
C30   C34   1.422865 A    
C51   H22   1.110781 S    
C6    O10   1.349720 S    
N7    C53   1.446852 S    
N2    C8    1.367228 A    
C53   H30   1.110420 S    
C35   C37   1.397272 A    
C54   H34   1.110967 S    
C20   C26   1.405308 A    
C51   H21   1.111498 S    
C42   N8    1.429704 S    
Cu2   N4    2.007523 S    
C48   N3    1.366333 A    
C22   C24   1.394404 A    
C47   N4    1.366335 A    
C12   C28   1.405814 A    
C55   H36   1.109413 S    
N2    C18   1.433593 S    
C56   H42   1.110079 S    
C19   C34   1.421861 A    
C5    O9    1.349717 S    
O6    Cu2   1.949170 S    
C26   C37   1.393607 A    
C21   C23   1.394403 A    
C16   H4    1.082896 S    
C50   H14   1.081612 S    
C2    C45   1.458688 S    
C50   N3    1.366082 A    
C23   C39   1.387382 A    
C56   H40   1.109412 S    
C52   H25   1.110782 S    
C49   N4    1.366078 A    
N8    H31   1.029430 S    
C14   C16   1.393574 A    
C15   C17   1.400441 A    
N10   H39   1.030875 S    
C6    C22   1.403671 A    
C16   C18   1.399665 A    
C43   N9    1.426302 S    
N6    C52   1.446848 S    
C55   H37   1.110080 S    
C42   C45   1.409752 A    
C29   C33   1.422845 A    
C14   C28   1.405869 A    
C19   C21   1.408449 A    
C36   C38   1.397279 A    
C3    C27   1.471951 S    
C20   C22   1.408420 A    
C9    C11   1.393580 A    
C35   N5    1.425144 S    
O2    Cu2   1.974854 S    
O7    C4    1.294422 A    
O8    C3    1.294445 A    
C13   H1    1.083183 S    
O5    Cu1   1.949170 S    
O1    Cu1   1.974854 S    
C48   C49   1.414540 A    
C20   C33   1.421874 A    
C42   C44   1.399734 A    
C48   H12   1.081607 S    
N5    C51   1.446849 S    
C47   H11   1.081606 S    
C44   C46   1.413906 A    
C41   C43   1.399726 A    
C51   H20   1.110077 S    
C49   H13   1.081613 S    
C24   C40   1.387381 A    
