data_mof_unit_28456.cif
_audit_creation_date              2012-12-10T17:33:12-0500
_audit_creation_method            fapswitch 2.2
_symmetry_space_group_name_H-M    P1
_symmetry_Int_Tables_number       1
_space_group_crystal_system       triclinic
_cell_length_a                    12.199389
_cell_length_b                    12.826719
_cell_length_c                    13.635837
_cell_angle_alpha                 93.45416
_cell_angle_beta                  79.231028
_cell_angle_gamma                 93.344293
_cell_volume                      2089.91198817

loop_
_atom_site_label
_atom_site_type_symbol
_atom_type_description
_atom_site_fract_x
_atom_site_fract_y
_atom_site_fract_z
_atom_type_partial_charge
C1    C     C_R   0.522125 0.699406 0.498011 0.850746
C2    C     C_R   0.145783 0.451842 0.463976 0.076685
C3    C     C_R   0.971588 0.540551 0.531189 -0.034365
C4    C     C_R   0.029766 0.467189 0.462755 -0.000085
C5    C     C_R   0.479990 0.501513 0.686496 0.877309
C6    C     C_R   0.519949 0.498032 0.313499 0.876037
C7    C     C_1   0.534639 0.492146 0.208887 -0.205397
C8    C     C_1   0.464180 0.498932 0.790861 -0.191632
C9    C     C_2   0.546327 0.479545 0.015581 0.085344
C10   C     C_2   0.449091 0.489714 0.983573 0.084175
C11   C     C_1   0.453615 0.495207 0.878936 0.005594
C12   C     C_R   0.478078 0.300542 0.501487 0.844912
C13   C     C_1   0.543742 0.486101 0.120534 0.003951
C14   C     C_R   0.465622 0.189396 0.497288 -0.101667
C15   C     C_R   0.535661 0.810468 0.501282 -0.109728
C16   C     C_R   0.570202 0.963470 0.602077 -0.146579
C17   C     C_R   0.432497 0.036671 0.395410 -0.149635
C18   C     C_R   0.577980 0.857760 0.581603 -0.213425
C19   C     C_R   0.423179 0.142178 0.416982 -0.191731
C20   C     C_R   0.488773 0.867462 0.436356 -0.096207
C21   C     C_R   0.514862 0.132477 0.560633 -0.096253
C22   C     C_3   0.338078 0.502031 0.055653 -0.352452
C23   C     C_R   0.480777 0.975719 0.456568 0.115922
C24   C     C_3   0.236256 0.501189 0.004757 -0.783243
C25   C     C_3   0.658070 0.471568 0.943819 -0.343908
C26   C     C_3   0.754149 0.441307 0.992624 -0.813128
C27   C     C_2   0.557593 0.188922 0.645909 0.395701
C28   C     C_2   0.449474 0.810833 0.349422 0.390837
C29   C     C_2   0.199393 0.356320 0.417129 0.499063
C30   C     C_2   0.784907 0.594031 0.632435 0.505023
C31   C     C_3   0.213575 0.676376 0.640445 -0.414702
C32   C     C_3   0.236144 0.785572 0.598541 -0.743440
C33   C     C_3   0.791771 0.335009 0.347785 -0.423284
C34   C     C_R   0.522525 0.024296 0.540438 0.115894
C35   C     C_3   0.793503 0.224244 0.383232 -0.793292
C36   C     C_2   0.032301 0.370140 0.296057 0.390699
C37   C     C_2   0.987024 0.711672 0.629674 0.430572
C38   C     C_R   0.970667 0.413020 0.393690 -0.038715
C39   C     C_R   0.036092 0.613590 0.581654 -0.061268
C40   C     C_R   0.851975 0.413739 0.409623 0.220815
C41   C     C_R   0.152307 0.600430 0.576467 0.218858
C42   C     C_R   0.851318 0.540604 0.544309 0.075553
H1    H     H_    0.389195 0.188454 0.366814 0.157283
H2    H     H_    0.771818 0.502695 0.049358 0.258443
H3    H     H_    0.733191 0.365436 0.028571 0.255420
H4    H     H_    0.830729 0.433223 0.934688 0.266212
H5    H     H_    0.649388 0.411599 0.883028 0.232080
H6    H     H_    0.680965 0.548119 0.909595 0.243722
H7    H     H_    0.507596 0.247557 0.691415 0.057969
H8    H     H_    0.500147 0.751170 0.306315 0.060339
H9    H     H_    0.280962 0.360976 0.369947 0.096081
H10   H     H_    0.723005 0.647994 0.623808 0.096877
H11   H     H_    0.255067 0.780323 0.515705 0.309213
H12   H     H_    0.610874 0.811512 0.632489 0.151981
H13   H     H_    0.163909 0.835376 0.623174 0.249723
H14   H     H_    0.308260 0.825597 0.626588 0.237005
H15   H     H_    0.165211 0.682973 0.717902 0.157554
H16   H     H_    0.292108 0.647709 0.651305 0.266257
H17   H     H_    0.880041 0.198110 0.374061 0.258116
H18   H     H_    0.754243 0.221251 0.463332 0.309347
H19   H     H_    0.745831 0.168939 0.339164 0.243160
H20   H     H_    0.705186 0.351038 0.350313 0.274620
H21   H     H_    0.828541 0.337587 0.267091 0.167407
H22   H     H_    0.007572 0.295246 0.263755 0.095235
H23   H     H_    0.598673 0.995248 0.668527 0.198196
H24   H     H_    0.992275 0.734520 0.706590 0.080475
H25   H     H_    0.404018 0.005236 0.328907 0.201307
H26   H     H_    0.243241 0.568008 0.955408 0.247843
H27   H     H_    0.228702 0.426637 0.960112 0.255599
H28   H     H_    0.159317 0.508623 0.062312 0.282301
H29   H     H_    0.324736 0.437093 0.107703 0.234910
H30   H     H_    0.342245 0.576925 0.100581 0.225355
N1    N     N_R   0.206090 0.519450 0.517820 -0.158137
N2    N     N_R   0.793910 0.480550 0.482180 -0.153250
O1    O     O_R   0.421240 0.658850 0.504760 -0.608393
O2    O     O_2   0.357940 0.824544 0.329773 -0.567874
O3    O     O_2   0.152223 0.270520 0.431660 -0.592611
O4    O     O_2   0.798201 0.576663 0.716394 -0.629571
O5    O     O_2   0.110545 0.420716 0.249106 -0.608184
O6    O     O_2   0.942646 0.769048 0.582042 -0.565646
O7    O     O_R   0.578760 0.341150 0.495240 -0.615521
O8    O     O_R   0.609960 0.646370 0.493320 -0.632365
O9    O     O_R   0.390040 0.353630 0.506680 -0.625777
O10   O     O_R   0.392060 0.507120 0.646890 -0.636007
O11   O     O_R   0.607940 0.492880 0.353110 -0.633667
O12   O     O_R   0.580780 0.494630 0.635450 -0.610857
O13   O     O_R   0.419220 0.505370 0.364550 -0.621689
O14   O     O_2   0.651199 0.176137 0.661300 -0.562698
Zn1   Zn    Zn3+2 0.373990 0.508340 0.507630 0.944952
Zn2   Zn    Zn3+2 0.626010 0.491660 0.492370 0.947716

loop_
_geom_bond_atom_site_label_1
_geom_bond_atom_site_label_2
_ccdc_geom_bond_type
C15   C18   A    
C3    C42   A    
C22   H29   S    
C9    C25   S    
C39   C41   A    
C10   C22   S    
C17   C23   A    
C6    O11   A    
C2    C29   S    
C31   H16   S    
C35   H17   S    
C9    C13   S    
C26   H3    S    
C17   C19   A    
C28   H8    S    
C33   H20   S    
C1    C15   S    
C9    C10   D    
C25   H5    S    
C32   H13   S    
C16   C34   A    
C21   C27   S    
C3    C39   A    
C22   H30   S    
C19   H1    S    
C24   H27   S    
C15   C20   A    
O9    Zn1   S    
C37   O6    D    
C42   N2    A    
C33   C40   S    
C17   H25   S    
C26   H2    S    
C1    O1    A    
O12   Zn2   S    
C5    O10   A    
C24   H26   S    
C21   C34   A    
C20   C28   S    
C25   C26   S    
C6    O13   A    
C12   O9    A    
C35   H18   S    
C2    C4    A    
C31   C32   S    
C20   C23   A    
C33   H21   S    
C23   C34   A    
C37   H24   S    
C35   H19   S    
C25   H6    S    
C2    N1    A    
C5    O12   A    
C12   C14   S    
O13   Zn1   S    
C22   C24   S    
O10   Zn1   S    
O7    Zn2   S    
C3    C4    A    
C28   O2    D    
C32   H11   S    
C14   C21   A    
C29   H9    S    
C30   H10   S    
C31   C41   S    
C14   C19   A    
C4    C38   A    
C36   O5    D    
C5    C8    S    
O11   Zn2   S    
C6    C7    S    
O8    Zn2   S    
C31   H15   S    
C36   C38   S    
C1    O8    A    
N1    Zn1   S    
C37   C39   S    
C38   C40   A    
N2    Zn2   S    
C24   H28   S    
C8    C11   T    
C33   C35   S    
C40   N2    A    
C12   O7    A    
C27   O14   D    
C10   C11   S    
C18   H12   S    
C41   N1    A    
C30   O4    D    
C7    C13   T    
C29   O3    D    
C16   C18   A    
O1    Zn1   S    
C30   C42   S    
C16   H23   S    
C36   H22   S    
C26   H4    S    
C32   H14   S    
C27   H7    S    
