data_mof_unit_56143.cif
_audit_creation_date              2012-12-11T21:12:39-0500
_audit_creation_method            fapswitch 2.2
_symmetry_space_group_name_H-M    P1
_symmetry_Int_Tables_number       1
_space_group_crystal_system       triclinic
_cell_length_a                    8.361848
_cell_length_b                    18.913163
_cell_length_c                    27.048022
_cell_angle_alpha                 99.450594
_cell_angle_beta                  93.033444
_cell_angle_gamma                 87.772088
_cell_volume                      4211.66851105

loop_
_atom_site_label
_atom_site_type_symbol
_atom_type_description
_atom_site_fract_x
_atom_site_fract_y
_atom_site_fract_z
_atom_type_partial_charge
Ba1   Ba    Ba6+2 0.160810 0.465630 0.521640 1.622609
Ba2   Ba    Ba6+2 0.649380 0.534380 0.478400 1.659809
C1    C     C_3   0.388958 0.298704 0.700585 -0.318290
C2    C     C_R   0.079160 0.098413 0.459406 -0.091544
C3    C     C_R   0.195409 0.949742 0.456561 -0.105458
C4    C     C_3   0.934410 0.276402 0.630752 0.394454
C5    C     C_R   0.050138 0.975668 0.478404 0.017563
C6    C     C_R   0.248520 0.879031 0.454855 -0.098462
C7    C     C_R   0.158722 0.829679 0.473950 -0.024130
C8    C     C_R   0.015129 0.853986 0.497726 0.000232
C9    C     C_R   0.960353 0.927276 0.499993 0.022122
C10   C     C_R   0.208906 0.756728 0.470089 -0.035826
C11   C     C_R   0.112464 0.708279 0.487581 -0.298005
C12   C     C_3   0.406537 0.316713 0.648491 0.323520
C13   C     C_R   0.977746 0.731590 0.514962 0.048545
C14   C     C_R   0.929152 0.805625 0.520581 -0.053337
C15   C     C_R   0.844365 0.071277 0.500731 0.025345
C16   C     C_3   0.983180 0.201801 0.642290 -0.019215
C17   C     C_R   0.784226 0.143339 0.499780 0.009119
C18   C     C_R   0.874527 0.192250 0.478615 -0.069365
C19   C     C_R   0.020699 0.167802 0.458994 -0.034934
C20   C     C_R   0.798984 0.833316 0.548964 -0.025958
C21   C     C_R   0.742421 0.903826 0.550082 -0.091090
C22   C     C_R   0.816890 0.951588 0.524083 0.008187
C23   C     C_3   0.383993 0.309680 0.376680 0.303631
C24   C     C_R   0.755073 0.022945 0.522593 0.017059
C25   C     C_R   0.604351 0.047290 0.541173 -0.103688
C26   C     C_R   0.634091 0.166177 0.519871 -0.066313
C27   C     C_R   0.546057 0.117035 0.540004 -0.094582
C28   C     C_3   0.832563 0.638051 0.635371 0.281286
C29   C     C_R   0.575925 0.237363 0.519065 0.020960
C30   C     C_R   0.665367 0.284184 0.496814 -0.062717
C31   C     C_R   0.816116 0.263875 0.477539 -0.033134
C32   C     C_R   0.282168 0.466567 0.177225 0.585036
C33   C     C_R   0.234636 0.593169 0.181560 0.586856
C34   C     C_3   0.380364 0.235448 0.343796 -0.230320
C35   C     C_2   0.067948 0.570640 0.275225 -0.103154
C36   C     C_3   0.051335 0.589255 0.331345 -0.072997
C37   C     C_1   0.286921 0.509502 0.340116 0.030398
C38   C     C_2   0.326520 0.512161 0.293621 -0.077489
C39   C     C_2   0.205944 0.538703 0.257304 0.214609
C40   C     C_3   0.830820 0.663498 0.692008 -0.241748
C41   C     C_R   0.317116 0.521713 0.102906 -0.079848
C42   C     C_R   0.321686 0.460390 0.126419 -0.033429
C43   C     C_R   0.365902 0.394060 0.098735 -0.065264
C44   C     C_R   0.272446 0.588440 0.130794 -0.028148
C45   C     C_3   0.836269 0.736296 0.380964 0.416776
C46   C     C_2   0.162842 0.545607 0.361407 -0.255073
C47   C     C_2   0.667869 0.495247 0.647499 -0.254384
C48   C     C_R   0.441184 0.443114 0.972548 0.019959
C49   C     C_R   0.395900 0.573796 0.977524 0.021648
C50   C     C_R   0.438645 0.505824 0.949694 0.047611
C51   C     C_R   0.483717 0.376830 0.942942 -0.102400
C52   C     C_3   0.826326 0.295661 0.357146 0.513862
C53   C     C_R   0.523216 0.372356 0.893212 -0.064268
C54   C     C_R   0.522070 0.433586 0.870348 -0.023778
C55   C     C_R   0.479741 0.500491 0.898418 -0.078639
C56   C     C_3   0.809165 0.809238 0.364598 -0.368746
C57   C     C_R   0.479782 0.562082 0.875308 -0.031004
C58   C     C_R   0.521079 0.555933 0.824655 0.575208
C59   C     C_R   0.561852 0.428902 0.819789 0.577868
C60   C     C_2   0.730672 0.449735 0.726627 -0.092395
C61   C     C_3   0.750473 0.436395 0.670811 -0.049631
C62   C     C_1   0.523890 0.518908 0.661244 0.021514
C63   C     C_2   0.480125 0.515707 0.707592 -0.101576
C64   C     C_3   0.884387 0.230936 0.318674 -0.236158
C65   C     C_2   0.593764 0.483695 0.744224 0.211165
C66   C     C_R   0.401666 0.448493 0.023859 0.020867
C67   C     C_3   0.334396 0.730353 0.355307 0.308268
C68   C     C_R   0.357455 0.516359 0.051556 0.048547
C69   C     C_R   0.353354 0.578966 0.028558 0.019832
C70   C     C_R   0.404999 0.388117 0.048811 -0.100833
C71   C     C_R   0.267177 0.649397 0.107540 -0.064308
C72   C     C_R   0.398299 0.634540 0.953099 -0.100532
C73   C     C_R   0.439426 0.628690 0.903351 -0.076240
C74   C     C_R   0.306239 0.644914 0.057743 -0.101914
C75   C     C_3   0.325916 0.683011 0.588570 0.321694
C76   C     C_3   0.289905 0.762950 0.605891 -0.041240
C77   C     C_3   0.999342 0.661645 0.717110 -0.193004
C78   C     C_3   0.372917 0.757292 0.307510 -0.333063
C79   C     C_3   0.993447 0.684504 0.774046 -0.241088
C80   C     C_3   0.158029 0.676162 0.799862 -0.383581
C81   C     C_3   0.851260 0.388615 0.303178 -0.095813
C82   C     C_3   0.943265 0.166207 0.342210 -0.219951
C83   C     C_3   0.961121 0.098447 0.302845 -0.197752
C84   C     C_3   0.004245 0.032609 0.327441 -0.418364
C85   C     C_3   0.400421 0.872283 0.653550 -0.236927
C86   C     C_3   0.381740 0.172499 0.373411 -0.272120
C87   C     C_3   0.547481 0.137504 0.378943 -0.190571
C88   C     C_3   0.539342 0.066836 0.398887 -0.416582
C89   C     C_R   0.993096 0.048104 0.479530 0.004955
C90   C     C_3   0.670454 0.400000 0.546975 0.035196
C91   C     C_3   0.831183 0.209822 0.718690 -0.178349
H1    H     H_    0.312511 0.357858 0.642359 0.111537
H2    H     H_    0.182301 0.768996 0.628868 0.098631
H3    H     H_    0.263664 0.789707 0.572730 0.020881
H4    H     H_    0.526583 0.338739 0.646741 -0.047637
H5    H     H_    0.378049 0.349060 0.727850 0.121815
H6    H     H_    0.493749 0.313811 0.401205 -0.032988
H7    H     H_    0.277635 0.317520 0.399463 0.086448
H8    H     H_    0.481261 0.229337 0.318143 0.103851
H9    H     H_    0.269002 0.233536 0.319382 0.109806
H10   H     H_    0.494305 0.266309 0.711503 0.115279
H11   H     H_    0.900989 0.161385 0.621186 0.030073
H12   H     H_    0.777511 0.718806 0.699411 0.129733
H13   H     H_    0.789768 0.738802 0.418937 0.078772
H14   H     H_    0.967762 0.725411 0.383028 -0.117195
H15   H     H_    0.679907 0.824712 0.364056 0.144786
H16   H     H_    0.874783 0.850467 0.391164 0.068017
H17   H     H_    0.854146 0.807574 0.326509 0.109887
H18   H     H_    0.221442 0.758060 0.368608 -0.031503
H19   H     H_    0.319090 0.671578 0.346563 0.029394
H20   H     H_    0.268257 0.750325 0.280437 0.132192
H21   H     H_    0.478038 0.726863 0.290438 0.155171
H22   H     H_    0.957186 0.276552 0.590618 0.015807
H23   H     H_    0.753417 0.627907 0.708521 0.090519
H24   H     H_    0.399597 0.815225 0.315962 0.094362
H25   H     H_    0.150879 0.652438 0.483615 0.068428
H26   H     H_    0.360837 0.863786 0.437601 0.105642
H27   H     H_    0.092631 0.201916 0.442249 0.092492
H28   H     H_    0.737721 0.800795 0.570550 0.095802
H29   H     H_    0.428583 0.131186 0.554098 0.111672
H30   H     H_    0.272415 0.982394 0.439835 0.064721
H31   H     H_    0.193357 0.086380 0.443146 0.057159
H32   H     H_    0.641267 0.919820 0.572845 0.058998
H33   H     H_    0.803840 0.285654 0.636077 -0.084363
H34   H     H_    0.735724 0.276055 0.379511 -0.094063
H35   H     H_    0.525326 0.012852 0.555717 0.068888
H36   H     H_    0.443031 0.491864 0.280876 0.109652
H37   H     H_    0.370936 0.345901 0.115707 0.117834
H38   H     H_    0.817096 0.426670 0.751305 0.108458
H39   H     H_    0.554714 0.320036 0.872549 0.116445
H40   H     H_    0.487530 0.326619 0.956786 0.065690
H41   H     H_    0.438140 0.334835 0.031068 0.065734
H42   H     H_    0.977861 0.590555 0.250115 0.103259
H43   H     H_    0.232524 0.701476 0.127924 0.117048
H44   H     H_    0.370051 0.688147 0.971333 0.064885
H45   H     H_    0.983037 0.246512 0.297204 0.106208
H46   H     H_    0.105559 0.187895 0.628814 0.099916
H47   H     H_    0.439232 0.677145 0.886816 0.113883
H48   H     H_    0.366078 0.539577 0.720072 0.104151
H49   H     H_    0.297253 0.694740 0.043370 0.065365
H50   H     H_    0.156785 0.555308 0.401957 0.077920
H51   H     H_    0.719090 0.511649 0.615843 -0.012531
H52   H     H_    0.706570 0.630251 0.621218 0.022667
H53   H     H_    0.906959 0.587833 0.627827 0.055567
H54   H     H_    0.198366 0.618878 0.793693 0.153027
H55   H     H_    0.246713 0.708550 0.784999 0.163906
H56   H     H_    0.782769 0.214459 0.291530 0.062328
H57   H     H_    0.151044 0.694786 0.840837 0.120817
H58   H     H_    0.951279 0.741481 0.782587 0.130973
H59   H     H_    0.908255 0.650887 0.789412 0.155500
H60   H     H_    0.051608 0.606270 0.708991 0.144867
H61   H     H_    0.077267 0.698163 0.701574 0.146602
H62   H     H_    0.650103 0.329487 0.307697 0.181938
H63   H     H_    0.775676 0.422629 0.281010 0.114433
H64   H     H_    0.924772 0.352702 0.276113 0.061758
H65   H     H_    0.930408 0.423372 0.330312 0.111108
H66   H     H_    0.120155 0.039343 0.349358 0.125756
H67   H     H_    0.214238 0.657204 0.572552 -0.020120
H68   H     H_    0.909429 0.023611 0.352806 0.136543
H69   H     H_    0.015104 0.984502 0.298006 0.126797
H70   H     H_    0.846552 0.088645 0.280405 0.121068
H71   H     H_    0.056140 0.105808 0.277072 0.120647
H72   H     H_    0.060264 0.178935 0.361118 0.107099
H73   H     H_    0.860344 0.156154 0.370351 0.101263
H74   H     H_    0.533136 0.784528 0.619254 0.203732
H75   H     H_    0.505787 0.892422 0.677746 0.105664
H76   H     H_    0.292330 0.881656 0.676209 0.116705
H77   H     H_    0.386352 0.902462 0.621536 0.096580
H78   H     H_    0.416141 0.676682 0.559427 0.055601
H79   H     H_    0.482728 0.075647 0.435593 0.137970
H80   H     H_    0.468918 0.027684 0.372069 0.124227
H81   H     H_    0.662148 0.043859 0.403799 0.127162
H82   H     H_    0.602180 0.126054 0.341827 0.124490
H83   H     H_    0.622058 0.174858 0.405368 0.105899
H84   H     H_    0.334949 0.190156 0.411151 0.105093
H85   H     H_    0.303717 0.130780 0.352296 0.125905
H86   H     H_    0.594954 0.379928 0.469577 0.203900
H87   H     H_    0.750973 0.441746 0.541724 0.136553
H88   H     H_    0.709874 0.366495 0.575566 -0.041166
H89   H     H_    0.279692 0.267667 0.701483 0.159341
H90   H     H_    0.578112 0.434357 0.563161 0.114957
H91   H     H_    0.047542 0.154531 0.704875 0.190338
H92   H     H_    0.845409 0.200792 0.758250 0.108832
H93   H     H_    0.742755 0.171808 0.698322 0.087117
H94   H     H_    0.786286 0.265885 0.719074 0.146204
N1    N     N_R   0.239830 0.532594 0.204390 -0.423652
N2    N     N_R   0.558226 0.489572 0.797022 -0.421435
N3    N     N_2   0.749128 0.348352 0.329461 -0.399171
N4    N     N_2   0.424480 0.796589 0.635363 -0.391408
N5    N     N_2   0.612125 0.356570 0.501226 -0.423160
N6    N     N_2   0.984424 0.198846 0.695630 -0.407902
O1    O     O_2   0.106080 0.324280 0.466820 -0.462089
O2    O     O_2   0.723865 0.544639 0.324927 -0.496291
O3    O     O_3   0.755003 0.683768 0.346802 -0.571294
O4    O     O_3   0.859130 0.413620 0.470620 -0.476532
O5    O     O_3   0.459240 0.537930 0.559910 -0.513871
O6    O     O_2   0.583120 0.462390 0.379940 -0.432220
O7    O     O_3   0.379315 0.360266 0.344267 -0.642196
O8    O     O_2   0.538473 0.756518 0.485538 -0.490523
O9    O     O_3   0.461039 0.746058 0.391009 -0.580322
O10   O     O_2   0.284151 0.412986 0.197139 -0.600426
O11   O     O_2   0.599101 0.370507 0.795980 -0.631417
O12   O     O_3   0.384333 0.652451 0.629833 -0.622390
O13   O     O_2   0.198906 0.651561 0.205634 -0.622089
O14   O     O_2   0.526377 0.609870 0.805407 -0.617689
O15   O     O_3   0.376230 0.370290 0.556910 -0.483002
O16   O     O_2   0.238876 0.245498 0.526216 -0.492334
O17   O     O_3   0.955450 0.327535 0.387613 -0.618454
O18   O     O_3   0.388772 0.254314 0.612904 -0.619625
O19   O     O_2   0.227190 0.537650 0.620070 -0.458130
O20   O     O_3   0.971110 0.406970 0.583250 -0.494691
O21   O     O_2   0.084796 0.465412 0.674932 -0.503300
O22   O     O_3   0.024384 0.329024 0.662058 -0.594209
O23   O     O_2   0.704230 0.675760 0.533200 -0.475138
O24   O     O_3   0.951180 0.586390 0.529420 -0.487443
O25   O     O_3   0.434080 0.629720 0.443130 -0.468116
O26   O     O_3   0.897758 0.690085 0.612475 -0.658544
O27   O     O_3   0.351080 0.462080 0.440130 -0.484117
O28   O     O_3   0.839200 0.593040 0.416790 -0.466204
P1    P     P_3+3 0.929380 0.335110 0.452880 0.996357
P2    P     P_3+3 0.398530 0.559060 0.613740 0.968738
P3    P     P_3+3 0.958049 0.412834 0.648489 0.931384
P4    P     P_3+3 0.880940 0.664900 0.547160 0.959149
P5    P     P_3+3 0.841337 0.599922 0.353476 0.979479
P6    P     P_3+3 0.394473 0.276518 0.552638 0.950042
P7    P     P_3+3 0.397103 0.448209 0.376350 0.978985
P8    P     P_3+3 0.407749 0.722522 0.447608 0.941092

loop_
_geom_bond_atom_site_label_1
_geom_bond_atom_site_label_2
_ccdc_geom_bond_type
Ba2   O27   S    
C38   H36   S    
Ba2   O23   S    
C47   C61   S    
C29   P6    S    
C25   C27   A    
Ba2   O4    S    
C56   H17   S    
C81   N3    S    
Ba1   O5    S    
C15   C89   A    
C49   C72   A    
C53   C54   A    
O22   P3    S    
C11   H25   S    
C10   P8    S    
C75   C76   S    
C34   C86   S    
C5    C9    A    
C88   H80   S    
C30   N5    S    
C24   C25   A    
C60   C61   S    
C12   O18   S    
C13   P4    S    
O17   P1    S    
C15   C24   A    
C26   C27   A    
C22   C24   A    
C19   H27   S    
C73   H47   S    
C59   O11   D    
C69   C74   A    
O20   P3    S    
C55   C57   A    
O24   P4    S    
H91   N6    S    
C56   H16   S    
C47   H51   S    
C9    C22   A    
C54   C55   A    
O27   P7    S    
C34   H9    S    
Ba1   Ba2   S    
O7    P7    S    
Ba1   O15   S    
C74   H49   S    
C82   H72   S    
C90   H87   S    
C23   H6    S    
C4    O22   S    
C85   H75   S    
C76   H3    S    
C6    C7    A    
C63   C65   S    
C64   H45   S    
Ba2   O24   S    
C48   C50   A    
C21   C22   A    
C35   H42   S    
C68   C69   A    
C84   H69   S    
C88   H79   S    
O6    P7    D    
C76   H2    S    
C36   C46   S    
C66   C70   A    
C36   P5    S    
C2    C89   A    
C91   H93   S    
O8    P8    D    
C57   C58   A    
C47   C62   D    
O18   P6    S    
C21   H32   S    
Ba1   O19   S    
C59   N2    Am   
C16   H46   S    
C57   C73   A    
C49   C69   A    
C60   H38   S    
C7    C8    A    
C7    C10   A    
C28   H53   S    
C12   H4    S    
C51   C53   A    
C80   H54   S    
C4    C16   S    
C72   H44   S    
O3    P5    S    
C48   C51   A    
C72   C73   A    
H86   N5    S    
C40   C77   S    
Ba2   O6    S    
C45   O3    S    
C86   H84   S    
C32   C42   A    
C82   C83   S    
C4    H33   S    
C64   H56   S    
O4    P1    S    
C8    C9    A    
C37   C38   D    
C3    C5    A    
C58   N2    Am   
C81   H63   S    
C75   H67   S    
C83   C84   S    
C85   H77   S    
O28   P5    S    
O12   P2    S    
Ba2   O28   S    
C79   C80   S    
C49   C50   A    
C62   P2    S    
C39   N1    S    
C34   H8    S    
C41   C42   A    
O25   P8    S    
C35   C36   S    
H62   N3    S    
C75   O12   S    
C77   H60   S    
C63   H48   S    
C25   H35   S    
C23   H7    S    
C70   H41   S    
C29   C30   A    
C81   H64   S    
C71   H43   S    
C52   O17   S    
C32   O10   D    
C75   H78   S    
C45   H13   S    
C5    C89   A    
C27   H29   S    
C18   C19   A    
C51   H40   S    
C54   C59   A    
C84   H68   S    
C16   H11   S    
C10   C11   A    
C32   N1    Am   
C17   C26   A    
C37   P7    S    
C80   H57   S    
C1    C12   S    
O21   P3    D    
Ba1   O24   S    
O9    P8    S    
C18   C31   A    
C60   C65   D    
C40   H23   S    
C38   C39   S    
C2    H31   S    
C78   H21   S    
Ba2   P4    S    
C41   C68   A    
C45   H14   S    
C11   C13   A    
Ba1   O20   S    
C83   H70   S    
C71   C74   A    
C28   H52   S    
C87   H82   S    
C67   O9    S    
C91   H94   S    
C42   C43   A    
C20   H28   S    
C85   N4    S    
C84   H66   S    
C1    H10   S    
C88   H81   S    
C78   H24   S    
C78   H20   S    
C14   C20   A    
C52   N3    S    
O2    P5    D    
C16   N6    S    
Ba2   O5    S    
C28   C40   S    
C61   P3    S    
C26   C29   A    
Ba1   O4    S    
C76   N4    S    
C33   O13   D    
C37   C46   D    
C90   H90   S    
Ba1   P2    S    
C3    C6    A    
C80   H55   S    
C65   N2    S    
C58   O14   D    
C86   H85   S    
C52   C64   S    
O26   P4    S    
C79   H59   S    
H74   N4    S    
C52   H34   S    
C3    H30   S    
C77   C79   S    
O23   P4    D    
O1    P1    D    
C90   H88   S    
C62   C63   D    
C17   C18   A    
Ba1   O1    S    
O15   P6    S    
C23   O7    S    
C79   H58   S    
C31   P1    S    
C77   H61   S    
C2    C19   A    
C67   H18   S    
C1    H5    S    
C81   H65   S    
C41   C44   A    
C67   H19   S    
C15   C17   A    
C1    H89   S    
O5    P2    S    
Ba1   O27   S    
C56   H15   S    
C35   C39   D    
C30   C31   A    
C40   H12   S    
C4    H22   S    
C82   H73   S    
C50   C55   A    
C23   C34   S    
C64   C82   S    
C90   N5    S    
C43   H37   S    
C86   C87   S    
C46   H50   S    
C66   C68   A    
C53   H39   S    
C33   N1    Am   
C91   N6    S    
Ba2   O25   S    
C83   H71   S    
C43   C70   A    
C20   C21   A    
Ba1   P1    S    
C67   C78   S    
C8    C14   A    
O16   P6    D    
C87   H83   S    
C87   C88   S    
C33   C44   A    
C48   C66   A    
C12   H1    S    
C44   C71   A    
C13   C14   A    
C6    H26   S    
C91   H92   S    
C28   O26   S    
C45   C56   S    
O19   P2    D    
C85   H76   S    
