data_mof_unit_47929.cif
_audit_creation_date              2012-12-11T16:18:14-0500
_audit_creation_method            fapswitch 2.2
_symmetry_space_group_name_H-M    P1
_symmetry_Int_Tables_number       1
_space_group_crystal_system       triclinic
_cell_length_a                    14.035496
_cell_length_b                    13.989699
_cell_length_c                    30.032554
_cell_angle_alpha                 96.769386
_cell_angle_beta                  96.885592
_cell_angle_gamma                 61.528899
_cell_volume                      5133.91078337

loop_
_atom_site_label
_atom_site_type_symbol
_atom_type_description
_atom_site_fract_x
_atom_site_fract_y
_atom_site_fract_z
_atom_type_partial_charge
C1    C     C_R   0.385721 0.711236 0.442202 0.541688
C2    C     C_R   0.784706 0.267067 0.378361 -0.136238
C3    C     C_R   0.816017 0.242273 0.334371 -0.132048
C4    C     C_R   0.398636 0.380918 0.426611 0.544972
C5    C     C_R   0.831824 0.316670 0.313165 0.036827
C6    C     C_R   0.825215 0.411495 0.336890 -0.100409
C7    C     C_R   0.794508 0.436274 0.380888 -0.127587
C8    C     C_R   0.848410 0.391721 0.161979 0.246237
C9    C     C_R   0.870523 0.386121 0.117463 -0.084925
C10   C     C_R   0.889613 0.203436 0.105928 -0.145725
C11   C     C_R   0.867829 0.208679 0.150482 -0.132867
C12   C     C_R   0.406649 0.247647 0.222198 0.256974
C13   C     C_R   0.851398 0.300942 0.178920 0.051846
C14   C     C_1   0.845784 0.299501 0.226005 0.054631
C15   C     C_1   0.841537 0.303545 0.265832 0.015231
C16   C     C_R   0.710467 0.405496 0.442515 0.541660
C17   C     C_R   0.896637 0.290022 0.089747 -0.025031
C18   C     C_R   0.359748 0.780619 0.404523 0.017570
C19   C     C_R   0.441830 0.792949 0.387252 -0.126520
C20   C     C_R   0.420287 0.846035 0.347845 -0.105544
C21   C     C_R   0.316493 0.888015 0.325625 0.035400
C22   C     C_R   0.233042 0.881079 0.343806 -0.108143
C23   C     C_R   0.416188 0.254228 0.269425 0.311247
C24   C     C_R   0.254380 0.827847 0.383078 -0.126293
C25   C     C_R   0.176489 0.968963 0.170797 0.291720
C26   C     C_R   0.165445 0.981376 0.124262 -0.116419
C27   C     C_R   0.335099 0.989648 0.129754 -0.125786
C28   C     C_R   0.389659 0.711665 0.568223 0.544992
C29   C     C_R   0.345921 0.978980 0.175902 -0.140748
C30   C     C_R   0.267093 0.968968 0.196374 0.048273
C31   C     C_1   0.284286 0.948471 0.243102 0.044903
C32   C     C_1   0.298894 0.924759 0.281396 0.006899
C33   C     C_R   0.245548 0.989282 0.103345 -0.034060
C34   C     C_R   0.332802 0.339942 0.293289 0.004001
C35   C     C_R   0.364058 0.360973 0.591456 0.019416
C36   C     C_R   0.427474 0.262994 0.612490 -0.123545
C37   C     C_R   0.406963 0.253274 0.655499 -0.119695
C38   C     C_R   0.322745 0.340929 0.677449 0.032053
C39   C     C_R   0.253741 0.435150 0.655435 -0.113962
C40   C     C_R   0.402070 0.382540 0.552175 0.541643
C41   C     C_R   0.273836 0.445040 0.612402 -0.132067
C42   C     C_R   0.208834 0.398676 0.830864 0.245768
C43   C     C_R   0.202634 0.382759 0.875051 -0.139997
C44   C     C_R   0.395608 0.253302 0.880320 0.260874
C45   C     C_R   0.316515 0.329353 0.199290 0.001879
C46   C     C_R   0.400921 0.268575 0.835746 -0.143617
C47   C     C_R   0.307299 0.337828 0.810735 -0.011538
C48   C     C_1   0.311553 0.339240 0.763681 0.023837
C49   C     C_1   0.315285 0.339344 0.724131 -0.006961
C50   C     C_R   0.293864 0.305296 0.899266 -0.025037
C51   C     C_1   0.771739 0.371581 0.610719 -0.009950
C52   C     C_R   0.714166 0.407053 0.568229 0.547994
C53   C     C_R   0.793100 0.405241 0.727920 -0.110570
C54   C     C_R   0.824786 0.385325 0.773021 -0.136769
C55   C     C_R   0.967419 0.203695 0.751799 0.304995
C56   C     C_1   0.302548 0.319746 0.151175 0.010668
C57   C     C_R   0.936145 0.226015 0.706006 -0.092509
C58   C     C_R   0.848608 0.326003 0.694373 0.000325
C59   C     C_R   0.911532 0.285487 0.785065 0.067647
C60   C     C_1   0.942444 0.268889 0.832042 0.011021
C61   C     C_1   0.811245 0.347625 0.648195 -0.049274
C62   C     C_1   0.967940 0.258698 0.871583 0.005584
C63   C     C_1   0.375689 0.758149 0.613586 -0.012221
C64   C     C_1   0.364762 0.362953 0.381130 -0.000657
C65   C     C_R   0.337305 0.735917 0.724062 -0.113326
C66   C     C_R   0.328903 0.752690 0.771132 0.283835
C67   C     C_1   0.345439 0.351415 0.341405 -0.017160
C68   C     C_R   0.354852 0.912880 0.770205 -0.134309
C69   C     C_R   0.365500 0.893884 0.723942 -0.119705
C70   C     C_R   0.355881 0.805951 0.700781 -0.014036
C71   C     C_R   0.335721 0.843476 0.793701 0.051031
C72   C     C_1   0.315976 0.871054 0.840607 0.020217
C73   C     C_1   0.366003 0.785003 0.653076 -0.055451
C74   C     C_1   0.294424 0.901717 0.879034 0.020188
C75   C     C_R   0.950613 0.272785 0.048254 0.546509
C76   C     C_R   0.243146 0.420532 0.270228 -0.161334
C77   C     C_R   0.275245 0.270025 0.065424 0.535224
C78   C     C_1   0.290849 0.302825 0.111286 0.023678
C79   C     C_R   0.230622 0.005978 0.054829 0.561687
C80   C     C_R   0.000555 0.250252 0.918548 0.554727
C81   C     C_R   0.276451 0.266907 0.939653 0.545098
C82   C     C_R   0.261508 0.950889 0.922888 0.551376
C83   C     C_R   0.234987 0.415199 0.223355 -0.156072
C84   C     C_3   0.065521 0.888537 0.170277 -0.122981
C85   C     C_3   0.537307 0.235610 0.929398 -0.093527
C86   C     C_3   0.057471 0.015370 0.739506 -0.114316
C87   C     C_3   0.358525 0.577808 0.781064 -0.098638
C88   C     C_3   0.587684 0.202460 0.300448 -0.082701
C89   C     C_R   0.769042 0.366671 0.401271 0.021177
Cl1   Cl    Cl    0.089799 0.488518 0.800500 -0.588954
Cl2   Cl    Cl    0.507582 0.136007 0.192254 -0.612096
Cl3   Cl    Cl    0.825286 0.510556 0.196539 -0.614036
Cr1   Cr    Cr6+3 0.581000 0.584320 0.508140 1.027406
Cr2   Cr    Cr6+3 0.339110 0.576430 0.496080 1.022354
Cr3   Cr    Cr6+3 0.579910 0.339270 0.495810 1.024207
Cr4   Cr    Cr6+3 0.082090 0.079210 0.982490 1.030203
Cr5   Cr    Cr6+3 0.082460 0.324610 0.994920 1.025064
Cr6   Cr    Cr6+3 0.323630 0.087860 0.996130 1.059021
H1    H     H_    0.180007 0.487956 0.288512 0.141281
H2    H     H_    0.396834 0.998335 0.114836 0.185343
H3    H     H_    0.164529 0.477395 0.205846 0.148852
H4    H     H_    0.485616 0.850157 0.333699 0.134049
H5    H     H_    0.124083 0.425172 0.889070 0.174784
H6    H     H_    0.188365 0.503215 0.672460 0.137568
H7    H     H_    0.223332 0.521323 0.596963 0.134540
H8    H     H_    0.497079 0.196725 0.597041 0.134208
H9    H     H_    0.477401 0.222794 0.820174 0.132876
H10   H     H_    0.460449 0.180016 0.672563 0.111514
H11   H     H_    0.724960 0.482605 0.719177 0.129458
H12   H     H_    0.868977 0.138870 0.163290 0.150868
H13   H     H_    0.781410 0.447966 0.798627 0.130577
H14   H     H_    0.979342 0.166506 0.679524 0.104242
H15   H     H_    0.327737 0.669786 0.705186 0.106064
H16   H     H_    0.359698 0.982995 0.787631 0.139881
H17   H     H_    0.379838 0.948402 0.706205 0.128908
H18   H     H_    0.874365 0.454312 0.105608 0.169645
H19   H     H_    0.837738 0.469278 0.320548 0.150143
H20   H     H_    0.783642 0.513292 0.397712 0.132913
H21   H     H_    0.766297 0.211549 0.393309 0.127418
H22   H     H_    0.135994 0.812140 0.158036 0.122644
H23   H     H_    0.907966 0.128930 0.085130 0.132403
H24   H     H_    0.003650 0.925829 0.142208 0.116031
H25   H     H_    0.026959 0.865615 0.194309 0.156898
H26   H     H_    0.482967 0.294127 0.954999 0.119050
H27   H     H_    0.561924 0.278745 0.907989 0.110475
H28   H     H_    0.611973 0.176034 0.947647 0.153994
H29   H     H_    0.098768 0.000693 0.708205 0.124632
H30   H     H_    0.974813 0.022360 0.731727 0.110918
H31   H     H_    0.105433 0.942793 0.759206 0.171051
H32   H     H_    0.444328 0.550058 0.774021 0.098985
H33   H     H_    0.312927 0.559985 0.751300 0.133580
H34   H     H_    0.821965 0.168282 0.316130 0.107316
H35   H     H_    0.360638 0.529764 0.808375 0.159921
H36   H     H_    0.562250 0.279898 0.321912 0.109185
H37   H     H_    0.616502 0.209120 0.268575 0.157514
H38   H     H_    0.657405 0.137555 0.318875 0.142467
H39   H     H_    0.093886 0.986352 0.104441 0.121737
H40   H     H_    0.152661 0.912600 0.326569 0.128218
H41   H     H_    0.189372 0.820150 0.395658 0.133780
H42   H     H_    0.523777 0.757340 0.402973 0.130849
H43   H     H_    0.416480 0.977374 0.195633 0.188015
O1    O     O_R   0.688580 0.499770 0.460490 -0.518694
O2    O     O_R   0.346150 0.177650 0.050510 -0.502474
O3    O     O_R   0.314200 0.996600 0.036060 -0.490001
O4    O     O_R   0.480400 0.672610 0.462660 -0.501875
O5    O     O_R   0.168690 0.969990 0.933130 -0.495140
O6    O     O_R   0.991920 0.175870 0.937430 -0.486667
O7    O     O_R   0.974010 0.342590 0.941330 -0.498011
O8    O     O_R   0.182630 0.317940 0.955040 -0.529099
O9    O     O_R   0.347320 0.174720 0.953250 -0.449219
O10   O     O_R   0.315290 0.993890 0.945900 -0.487315
O11   O     O_3   0.162730 0.163890 0.991180 -0.296509
O12   O     O_R   0.348600 0.476260 0.536540 -0.502511
O13   O     O_R   0.315310 0.685650 0.451800 -0.514141
O14   O     O_R   0.346220 0.474990 0.446280 -0.495008
O15   O     O_R   0.492270 0.312460 0.441630 -0.504229
O16   O     O_R   0.669740 0.350480 0.455640 -0.502531
O17   O     O_R   0.691150 0.501150 0.557860 -0.501475
O18   O     O_R   0.482790 0.673890 0.552920 -0.491169
O19   O     O_R   0.317880 0.687030 0.549170 -0.510671
O20   O     O_3   0.097148 0.964492 0.192834 -0.573316
O21   O     O_3   0.487987 0.178560 0.903130 -0.535125
O22   O     O_3   0.055709 0.107206 0.765378 -0.565451
O23   O     O_R   0.494840 0.313840 0.539010 -0.515072
O24   O     O_3   0.304359 0.689453 0.795527 -0.550942
O25   O     O_3   0.503591 0.173187 0.292194 -0.527724
O26   O     O_R   0.672120 0.351750 0.545910 -0.495441
O27   O     O_3   0.500010 0.500010 0.500010 -0.243504
O28   O     O_R   0.167510 0.972920 0.030390 -0.509481
O29   O     O_R   0.990840 0.178580 0.027590 -0.514092
O30   O     O_R   0.972840 0.345510 0.038590 -0.504715
O31   O     O_R   0.181550 0.320660 0.045200 -0.499615

loop_
_geom_bond_atom_site_label_1
_geom_bond_atom_site_label_2
_ccdc_geom_bond_type
C8    C9    A    
C8    C13   A    
C55   C59   A    
Cr6   O2    S    
C27   C29   A    
C87   H35   S    
C12   Cl2   S    
C85   H27   S    
C35   C36   A    
C51   C61   T    
C26   H39   S    
Cr3   O27   S    
C39   H6    S    
C39   C41   A    
C38   C49   S    
Cr6   O11   S    
C77   C78   S    
C27   C33   A    
C84   H25   S    
C12   C23   A    
C1    C18   S    
C29   C30   A    
Cr5   O31   S    
C41   H7    S    
C18   C24   A    
C5    C6    A    
C87   H32   S    
C62   C80   S    
C36   C37   A    
C40   O23   A    
C69   C70   A    
C68   C71   A    
C52   O26   A    
C30   C31   S    
C57   H14   S    
C20   H4    S    
C10   C17   A    
C53   H11   S    
C65   C70   A    
C7    C89   A    
C28   O19   A    
C56   C78   T    
C85   H26   S    
C60   C62   T    
Cr3   O15   S    
C87   H33   S    
Cr1   O18   S    
C1    O4    A    
C80   O6    A    
C66   C71   A    
C45   C56   S    
C25   O20   S    
C19   H42   S    
Cr1   O1    S    
Cr1   O4    S    
C8    Cl3   S    
Cr2   O12   S    
C6    H19   S    
C82   O10   A    
Cr2   O13   S    
Cr6   O10   S    
C10   H23   S    
C58   C61   S    
C16   O16   A    
C59   C60   S    
C1    O13   A    
Cr4   O29   S    
C13   C14   S    
C11   H12   S    
C85   O21   S    
C7    H20   S    
C85   H28   S    
C45   C83   A    
C44   O21   S    
C74   C82   S    
C76   C83   A    
C82   O5    A    
C44   C46   A    
C16   C89   S    
C54   C59   A    
C24   H41   S    
C52   O17   A    
C21   C32   S    
C27   H2    S    
C86   H30   S    
C51   C52   S    
C64   C67   T    
Cr1   O27   S    
C37   H10   S    
C72   C74   T    
Cr2   O27   S    
C68   C69   A    
C63   C73   T    
C25   C26   A    
C53   C54   A    
C36   H8    S    
C28   O18   A    
C3    H34   S    
C76   H1    S    
C2    C89   A    
C16   O1    A    
C77   O2    A    
C37   C38   A    
C23   O25   S    
C26   C33   A    
C47   C48   S    
C84   H22   S    
C23   C34   A    
C29   H43   S    
C46   H9    S    
C70   C73   S    
Cr2   O14   S    
C86   H31   S    
C88   H38   S    
C75   O29   A    
C9    C17   A    
C48   C49   T    
C4    O15   A    
C88   O25   S    
Cr4   O28   S    
C55   C57   A    
C75   O30   A    
Cr5   O7    S    
C22   C24   A    
C40   O12   A    
C42   C43   A    
Cr6   O9    S    
C44   C50   A    
C25   C30   A    
Cr4   O6    S    
C22   H40   S    
C46   C47   A    
C69   H17   S    
Cr2   O19   S    
C83   H3    S    
C66   O24   S    
Cr6   O3    S    
C86   H29   S    
Cr3   O16   S    
C9    H18   S    
C65   H15   S    
C31   C32   T    
C33   C79   S    
C88   H37   S    
C12   C45   A    
C3    C5    A    
Cr3   O26   S    
C34   C67   S    
C53   C58   A    
C43   C50   A    
C6    C7    A    
Cr4   O5    S    
C4    C64   S    
Cr5   O30   S    
C79   O3    A    
C79   O28   A    
C19   C20   A    
C2    C3    A    
C88   H36   S    
C71   C72   S    
Cr3   O23   S    
C11   C13   A    
C57   C58   A    
C38   C39   A    
C77   O31   A    
C81   O8    A    
C2    H21   S    
Cr5   O11   S    
C54   H13   S    
C35   C40   S    
C42   C47   A    
Cr1   O17   S    
C35   C41   A    
C43   H5    S    
C5    C15   S    
C10   C11   A    
C87   O24   S    
C55   O22   S    
C28   C63   S    
C80   O7    A    
C4    O14   A    
C20   C21   A    
C65   C66   A    
C68   H16   S    
C17   C75   S    
C18   C19   A    
Cr5   O8    S    
C14   C15   T    
C86   O22   S    
C42   Cl1   S    
C21   C22   A    
C84   H24   S    
C84   O20   S    
C81   O9    A    
C50   C81   S    
C34   C76   A    
Cr4   O11   S    
