data_mof_unit_61939.cif
_audit_creation_date              2013-03-05T15:39:44-0500
_audit_creation_method            fapswitch 2.2
_symmetry_space_group_name_H-M    P1
_symmetry_Int_Tables_number       1
_space_group_crystal_system       triclinic
_cell_length_a                    18.939073
_cell_length_b                    18.950044
_cell_length_c                    18.918128
_cell_angle_alpha                 109.580973
_cell_angle_beta                  109.020337
_cell_angle_gamma                 109.305415
_cell_volume                      5259.02229168

loop_
_atom_site_label
_atom_site_type_symbol
_atom_site_description
_atom_site_fract_x
_atom_site_fract_y
_atom_site_fract_z
_atom_type_partial_charge
O1    O     O_R   0.462500 0.410660 0.551220 -0.600224
O2    O     O_R   0.359440 0.411300 0.448810 -0.552681
C1    C     C_R   0.382729 0.385293 0.503118 0.844854
O3    O     O_R   0.551530 0.589280 0.640810 -0.573070
O4    O     O_R   0.448470 0.589920 0.538390 -0.592576
C2    C     C_R   0.498136 0.616082 0.618090 0.865130
Cu1   Cu    Cu3+1 0.561020 0.499620 0.560640 0.947779
Cu2   Cu    Cu3+1 0.438980 0.500380 0.439360 1.013564
O5    O     O_R   0.640560 0.588700 0.551190 -0.603254
O6    O     O_R   0.537500 0.589340 0.448780 -0.551766
O7    O     O_R   0.551530 0.410080 0.461610 -0.600696
O8    O     O_R   0.448470 0.410720 0.359190 -0.535570
C3    C     C_R   0.616921 0.614196 0.496052 0.836281
C4    C     C_R   0.498013 0.379613 0.381982 0.866341
C5    C     C_R   0.336620 0.598236 0.611679 -0.110406
H1    H     H_    0.332993 0.541069 0.568517 0.174920
C6    C     C_R   0.259240 0.594991 0.601948 -0.134095
H2    H     H_    0.198904 0.537548 0.551557 0.142159
C7    C     C_R   0.259454 0.665809 0.656432 -0.109777
H3    H     H_    0.199315 0.664019 0.647518 0.151210
C8    C     C_R   0.337031 0.738698 0.723186 -0.097653
H4    H     H_    0.333846 0.792488 0.763021 0.177574
C9    C     C_R   0.416425 0.742022 0.736632 0.017343
C10   C     C_R   0.416284 0.673072 0.676835 0.021445
C11   C     C_R   0.495635 0.680190 0.684671 -0.248739
C12   C     C_R   0.574101 0.751393 0.754812 0.318074
C13   C     C_R   0.574164 0.819211 0.814567 0.320801
C14   C     C_R   0.495795 0.812935 0.807364 -0.246344
C15   C     C_2   0.182582 0.257196 0.507907 -0.292610
C16   C     C_2   0.177301 0.180536 0.490464 -0.351616
H5    H     H_    0.140912 0.274184 0.529348 0.168401
H6    H     H_    0.213072 0.160240 0.461451 0.150267
C17   C     C_2   0.239341 0.316312 0.490148 0.470408
C18   C     C_2   0.318660 0.326242 0.512637 -0.384829
H7    H     H_    0.340014 0.293459 0.544930 0.134106
C19   C     C_2   0.424947 0.172120 0.182573 -0.238006
C20   C     C_2   0.495675 0.183591 0.175621 -0.349123
H8    H     H_    0.366133 0.110448 0.139476 0.165092
H9    H     H_    0.551736 0.247316 0.211538 0.160157
C21   C     C_2   0.422880 0.244186 0.243387 0.475520
C22   C     C_2   0.494973 0.307594 0.317761 -0.397812
H10   H     H_    0.552644 0.302012 0.336919 0.122692
C23   C     C_2   0.824700 0.745027 0.504440 0.207864
C24   C     C_2   0.829837 0.821011 0.516893 -0.312908
H11   H     H_    0.791596 0.841153 0.542114 0.159094
C25   C     C_2   0.761602 0.688841 0.517763 -0.249379
C26   C     C_2   0.678854 0.669300 0.481341 0.006110
H12   H     H_    0.783629 0.662170 0.557352 0.166423
O9    O     O_R   0.462540 0.048930 0.908310 -0.567745
O10   O     O_R   0.359500 0.945890 0.908340 -0.566407
C27   C     C_R   0.383083 0.995841 0.877646 0.844559
O11   O     O_R   0.551580 0.958790 0.907180 -0.571578
O12   O     O_R   0.448540 0.855750 0.907210 -0.602170
C28   C     C_R   0.498295 0.879090 0.876763 0.861274
Cu3   Cu    Cu3+1 0.561070 0.057880 0.996780 0.998489
Cu4   Cu    Cu3+1 0.439050 0.935860 0.996810 0.978952
O13   O     O_R   0.640630 0.047850 0.085250 -0.575710
O14   O     O_R   0.537580 0.944800 0.085280 -0.557125
O15   O     O_R   0.551590 0.137990 0.086380 -0.582210
O16   O     O_R   0.448540 0.034950 0.086410 -0.586047
C29   C     C_R   0.617961 0.998022 0.115073 0.920466
C30   C     C_R   0.498220 0.115191 0.113245 0.874133
O17   O     O_R   0.910970 0.052410 0.463390 -0.549500
O18   O     O_R   0.910970 0.948690 0.359670 -0.590532
C31   C     C_R   0.878150 0.995706 0.383519 0.898166
O19   O     O_R   0.089030 0.140870 0.551850 -0.587289
O20   O     O_R   0.089030 0.037160 0.448130 -0.583947
C32   C     C_R   0.116046 0.117076 0.498110 0.884307
Cu5   Cu    Cu3+1 0.000000 0.061410 0.561410 0.977635
Cu6   Cu    Cu3+1 0.000000 0.938590 0.438590 1.035399
O21   O     O_R   0.089030 0.051310 0.640330 -0.596105
O22   O     O_R   0.089030 0.947590 0.536610 -0.540520
O23   O     O_R   0.910970 0.962840 0.551870 -0.599964
O24   O     O_R   0.910970 0.859130 0.448150 -0.543030
C33   C     C_R   0.112271 0.994483 0.616486 0.902967
C34   C     C_R   0.887646 0.883278 0.505288 0.852177
C35   C     C_2   0.188322 0.922831 0.670910 0.122600
C36   C     C_2   0.162734 0.982122 0.683289 -0.383313
H13   H     H_    0.179111 0.024350 0.748555 0.143376
C37   C     C_2   0.242223 0.923179 0.747852 0.367288
C38   C     C_2   0.321102 0.992748 0.804406 -0.103375
C39   C     C_2   0.758159 0.023694 0.329055 0.372419
C40   C     C_2   0.800203 0.980228 0.316355 -0.394897
H14   H     H_    0.775809 0.929677 0.251581 0.147111
C41   C     C_2   0.680124 0.000255 0.252343 0.281925
C42   C     C_2   0.688119 0.007245 0.186247 -0.141409
O25   O     O_3   0.650952 0.758270 0.759839 -0.611212
C43   C     C_3   0.689987 0.739303 0.823139 0.107795
H15   H     H_    0.644325 0.676667 0.812483 0.145242
H16   H     H_    0.713263 0.791092 0.888675 0.182459
C44   C     C_3   0.766909 0.733431 0.818070 -0.331090
H17   H     H_    0.744702 0.681852 0.752852 0.240590
H18   H     H_    0.813013 0.795557 0.828686 0.220181
C45   C     C_3   0.812661 0.713615 0.885329 -0.923710
H19   H     H_    0.836783 0.765224 0.951180 0.264705
H20   H     H_    0.868106 0.709905 0.879858 0.259785
H21   H     H_    0.768172 0.650902 0.874926 0.260679
O26   O     O_3   0.346385 0.245805 0.222366 -0.577483
C46   C     C_3   0.298380 0.195887 0.248266 0.055177
H22   H     H_    0.336241 0.219079 0.318312 0.123711
H23   H     H_    0.278856 0.126845 0.210365 0.132165
C47   C     C_3   0.217598 0.203863 0.232195 -0.298859
H24   H     H_    0.236294 0.272397 0.270668 0.239387
H25   H     H_    0.179713 0.182375 0.162883 0.223092
C48   C     C_3   0.161670 0.149408 0.256880 -0.910436
H26   H     H_    0.141360 0.080412 0.218511 0.258706
H27   H     H_    0.103371 0.156122 0.243737 0.260305
H28   H     H_    0.197571 0.171159 0.326429 0.254107
I1    I     I_    0.909861 0.705032 0.478156 -0.345837
I2    I     I_    0.625027 0.699760 0.383960 -0.359886
I3    I     I_    0.166299 0.832950 0.551020 -0.284322
O27   O     O_3   0.219103 0.850218 0.757292 -0.616058
C49   C     C_3   0.129951 0.803614 0.727455 0.079606
H29   H     H_    0.115986 0.740593 0.724374 0.162538
H30   H     H_    0.089535 0.787850 0.660781 0.178302
C50   C     C_3   0.104527 0.850292 0.789789 -0.366554
H31   H     H_    0.142355 0.860138 0.854550 0.230729
H32   H     H_    0.118945 0.914388 0.795652 0.210691
C51   C     C_3   0.008908 0.798563 0.758576 -0.899592
H33   H     H_    0.969990 0.790026 0.694843 0.267925
H34   H     H_    0.992573 0.833422 0.805218 0.255728
H35   H     H_    0.992540 0.734337 0.753142 0.256327
I4    I     I_    0.371696 0.099982 0.784503 -0.344359
O28   O     O_3   0.781267 0.081345 0.411958 -0.593877
C52   C     C_3   0.796143 0.162780 0.420421 0.100973
H36   H     H_    0.786296 0.195893 0.474114 0.159248
H37   H     H_    0.750207 0.159001 0.362721 0.144877
C53   C     C_3   0.889088 0.217510 0.443519 -0.347436
H38   H     H_    0.933778 0.225089 0.504355 0.232949
H39   H     H_    0.901451 0.184793 0.391860 0.231903
C54   C     C_3   0.907109 0.306388 0.454970 -0.923319
H40   H     H_    0.865180 0.300339 0.393820 0.268749
H41   H     H_    0.975164 0.344971 0.473283 0.249322
H42   H     H_    0.895580 0.340755 0.506642 0.259736
O29   O     O_3   0.602726 0.983446 0.252420 -0.604245
C55   C     C_3   0.585946 0.933134 0.291842 0.096841
H43   H     H_    0.625754 0.974071 0.363083 0.184244
H44   H     H_    0.599110 0.878846 0.269448 0.144083
C56   C     C_3   0.491386 0.895317 0.268024 -0.344873
H45   H     H_    0.477059 0.948471 0.290218 0.227045
H46   H     H_    0.450616 0.854906 0.196845 0.231193
C57   C     C_3   0.469416 0.840285 0.309069 -0.873044
H47   H     H_    0.481779 0.785753 0.286508 0.274749
H48   H     H_    0.400418 0.813838 0.290594 0.259937
H49   H     H_    0.508486 0.879790 0.380382 0.262874
I5    I     I_    0.809251 0.056398 0.187809 -0.477415
O30   O     O_3   0.651041 0.888379 0.885225 -0.602559
C58   C     C_3   0.689645 0.946327 0.860475 0.096648
H50   H     H_    0.643702 0.963648 0.826419 0.147817
H51   H     H_    0.712874 0.917887 0.817627 0.174915
C59   C     C_3   0.766499 0.028399 0.941350 -0.300610
H52   H     H_    0.744355 0.057407 0.985096 0.255616
H53   H     H_    0.813079 0.012088 0.975664 0.234194
C60   C     C_3   0.811430 0.094103 0.919292 -0.929532
H54   H     H_    0.835170 0.066860 0.876490 0.258799
H55   H     H_    0.867061 0.152605 0.979380 0.266728
H56   H     H_    0.766508 0.112834 0.886680 0.261545
O31   O     O_3   0.216289 0.366632 0.458411 -0.603183
C61   C     C_3   0.126424 0.327375 0.406542 0.048898
H57   H     H_    0.096898 0.338622 0.448309 0.139996
H58   H     H_    0.096918 0.256809 0.363312 0.158894
C62   C     C_3   0.107801 0.367760 0.350081 -0.333823
H59   H     H_    0.135697 0.438115 0.391522 0.222142
H60   H     H_    0.138341 0.358073 0.309103 0.226533
C63   C     C_3   0.011381 0.327480 0.292308 -0.876847
H61   H     H_    0.982459 0.257313 0.249090 0.273539
H62   H     H_    0.999966 0.358064 0.252092 0.260763
H63   H     H_    0.979642 0.337550 0.331929 0.263638

loop_
_geom_bond_atom_site_label_1
_geom_bond_atom_site_label_2
_geom_bond_distance
_ccdc_geom_bond_type
O19   C32   1.297323 A    
O25   C43   1.413129 S    
O17   C31   1.296939 A    
C63   H61   1.111008 S    
Cu3   O15   1.965670 S    
C47   H24   1.111847 S    
C22   H10   1.086102 S    
O30   C58   1.412975 S    
C58   C59   1.528077 S    
Cu3   Cu4   2.675007 S    
C54   H42   1.110767 S    
C53   H38   1.111533 S    
C20   C30   1.458800 S    
O29   C55   1.413132 S    
C35   C36   1.345258 D    
C24   H11   1.088053 S    
Cu1   O7    1.967079 S    
C48   H27   1.110065 S    
C12   C13   1.397818 A    
O24   C34   1.298582 A    
C38   I4    2.156353 S    
C19   C20   1.341762 D    
C7    C8    1.393163 A    
C58   H51   1.112405 S    
C49   H29   1.110865 S    
C55   C56   1.527355 S    
C61   H57   1.111938 S    
C21   O26   1.385641 S    
O4    C2    1.292350 A    
C56   C57   1.526450 S    
C31   C40   1.456381 S    
C2    C11   1.454633 S    
C5    H1    1.079990 S    
C15   C17   1.488220 S    
C50   H31   1.111481 S    
C47   C48   1.525647 S    
O16   C30   1.296298 A    
C18   H7    1.087272 S    
C59   C60   1.525668 S    
Cu5   O21   1.967956 S    
O5    C3    1.303215 A    
C6    C7    1.389219 A    
O17   Cu5   1.967403 S    
Cu4   O14   1.969090 S    
C12   O25   1.385823 S    
O9    C27   1.285297 A    
C35   I3    2.131576 S    
Cu6   O24   1.961039 S    
C52   C53   1.533924 S    
C59   H52   1.112068 S    
C61   H58   1.115470 S    
Cu5   O23   1.964153 S    
O18   Cu6   1.967957 S    
C16   H6    1.086874 S    
C27   C38   1.463235 S    
C60   H55   1.110690 S    
O11   Cu3   1.968848 S    
C49   C50   1.535378 S    
O14   C29   1.302644 A    
C63   H62   1.110249 S    
C8    H4    1.079805 S    
C57   H49   1.110913 S    
C45   H19   1.110906 S    
O3    Cu1   1.967676 S    
C42   I5    2.157766 S    
C39   O28   1.390278 S    
O27   C49   1.417100 S    
C23   C25   1.469733 S    
O11   C28   1.289102 A    
O10   C27   1.300235 A    
C62   H60   1.111887 S    
C51   H34   1.110438 S    
C20   H9    1.085954 S    
C48   H28   1.109711 S    
C25   H12   1.086218 S    
C41   C42   1.350985 D    
O20   C32   1.289101 A    
Cu1   Cu2   2.682206 S    
C17   C18   1.347563 D    
C10   C11   1.416333 A    
C60   H56   1.111215 S    
C55   H44   1.116371 S    
C44   H17   1.111835 S    
C3    C26   1.463342 S    
C14   C28   1.454159 S    
C36   H13   1.088610 S    
C55   H43   1.112125 S    
C1    C18   1.461741 S    
C11   C12   1.406611 A    
O12   C28   1.290077 A    
O10   Cu4   1.966264 S    
Cu4   O16   1.968846 S    
O1    C1    1.293121 A    
C47   H25   1.111632 S    
C23   C24   1.342876 D    
C15   C16   1.338036 D    
C44   H18   1.111878 S    
C62   C63   1.526462 S    
C40   H14   1.088238 S    
C43   C44   1.528065 S    
C19   C21   1.483833 S    
Cu2   O8    1.967672 S    
C37   O27   1.396930 S    
C6    H2    1.082326 S    
C61   C62   1.527035 S    
C9    C14   1.415615 A    
C58   H50   1.115856 S    
C45   H20   1.110451 S    
C60   H54   1.111266 S    
C41   O29   1.393966 S    
C4    C22   1.460488 S    
O3    C2    1.291470 A    
C21   C22   1.348169 D    
C46   H23   1.114063 S    
C43   H16   1.112103 S    
O26   C46   1.412045 S    
C63   H63   1.110523 S    
C8    C9    1.416676 A    
C52   H36   1.110826 S    
O23   C34   1.288499 A    
C57   H48   1.110330 S    
C54   H40   1.110919 S    
C39   C41   1.491147 S    
C53   C54   1.525537 S    
C17   O31   1.395930 S    
C56   H45   1.111766 S    
C62   H59   1.111284 S    
O12   Cu4   1.965791 S    
C5    C6    1.393683 A    
C25   C26   1.345118 D    
C5    C10   1.417124 A    
O15   C30   1.288370 A    
O1    Cu1   1.963986 S    
C51   H35   1.110785 S    
Cu2   O6    1.963986 S    
O2    Cu2   1.961438 S    
O8    C4    1.298537 A    
C37   C38   1.350921 D    
C54   H41   1.109933 S    
O6    C3    1.287065 A    
C53   H39   1.110540 S    
O4    Cu2   1.967081 S    
C51   H33   1.111009 S    
O13   C29   1.281083 A    
C26   I2    2.155015 S    
C48   H26   1.110714 S    
C45   H21   1.110866 S    
C50   C51   1.526545 S    
O20   Cu6   1.964155 S    
O18   C31   1.289676 A    
C7    H3    1.082726 S    
Cu3   O13   1.966360 S    
O2    C1    1.296425 A    
C15   H5    1.086329 S    
O9    Cu3   1.968993 S    
C46   H22   1.115898 S    
C44   C45   1.525680 S    
O21   C33   1.293873 A    
C56   H46   1.111770 S    
O22   C33   1.294072 A    
O31   C61   1.413478 S    
C35   C37   1.476988 S    
C19   H8    1.086237 S    
O7    C4    1.290278 A    
C50   H32   1.110329 S    
C59   H53   1.112070 S    
Cu5   Cu6   2.681601 S    
C33   C36   1.457600 S    
C29   C42   1.460002 S    
C9    C10   1.411358 A    
O19   Cu5   1.961042 S    
Cu1   O5    1.961437 S    
C46   C47   1.528546 S    
C43   H15   1.115643 S    
C13   O30   1.385604 S    
C39   C40   1.340131 D    
C13   C14   1.405795 A    
C52   H37   1.113967 S    
C57   H47   1.111012 S    
Cu6   O22   1.967399 S    
C23   I1    2.121669 S    
C24   C34   1.454406 S    
C16   C32   1.454826 S    
O28   C52   1.415624 S    
C49   H30   1.110438 S    
