data_mof_unit_39702.cif
_audit_creation_date              2012-12-10T18:05:49-0500
_audit_creation_method            fapswitch 2.2
_symmetry_space_group_name_H-M    P1
_symmetry_Int_Tables_number       1
_space_group_crystal_system       triclinic
_cell_length_a                    12.65205
_cell_length_b                    13.242095
_cell_length_c                    14.917097
_cell_angle_alpha                 90.743421
_cell_angle_beta                  102.64892
_cell_angle_gamma                 82.753416
_cell_volume                      2418.79489243

loop_
_atom_site_label
_atom_site_type_symbol
_atom_type_description
_atom_site_fract_x
_atom_site_fract_y
_atom_site_fract_z
_atom_type_partial_charge
C1    C     C_R   0.439803 0.691136 0.487544 0.884787
C2    C     C_R   0.488392 0.599727 0.810060 0.291234
C3    C     C_R   0.500741 0.505305 0.767761 -0.137421
C4    C     C_R   0.500649 0.500727 0.672458 0.966036
C5    C     C_R   0.508542 0.413899 0.814753 -0.301160
C6    C     C_R   0.735414 0.059024 0.504843 0.197635
C7    C     C_R   0.598170 0.201063 0.516486 -0.097271
C8    C     C_R   0.311722 0.834687 0.520054 -0.207811
C9    C     C_R   0.300464 0.929922 0.559013 -0.134524
C10   C     C_R   0.382297 0.992831 0.566010 0.395353
C11   C     C_R   0.470759 0.966099 0.521071 0.009124
C12   C     C_R   0.497624 0.416170 0.091646 0.119980
C13   C     C_R   0.482079 0.869133 0.482362 -0.018075
C14   C     C_R   0.549709 0.031071 0.514847 0.008911
C15   C     C_R   0.651522 0.993437 0.492211 0.038437
C16   C     C_R   0.560740 0.309313 0.510981 0.887219
C17   C     C_R   0.658415 0.897032 0.450718 0.345485
C18   C     C_R   0.571270 0.840847 0.440776 -0.218223
C19   C     C_R   0.522098 0.135143 0.517213 -0.124176
C20   C     C_R   0.706364 0.162999 0.517790 -0.271181
C21   C     C_R   0.406314 0.800780 0.488796 -0.078234
C22   C     C_R   0.087626 0.346072 0.371949 -0.335397
C23   C     C_R   0.469540 0.695035 0.041252 -0.229617
C24   C     C_R   0.807228 0.627482 0.612255 0.281015
C25   C     C_R   0.908742 0.662666 0.620982 -0.195440
C26   C     C_R   0.982216 0.619137 0.571778 -0.189423
C27   C     C_R   0.958761 0.535835 0.515338 0.049632
C28   C     C_R   0.498365 0.500583 0.327186 0.873135
C29   C     C_R   0.851956 0.507194 0.500795 0.159785
C30   C     C_R   0.038281 0.480142 0.473870 -0.016553
C31   C     C_R   0.008000 0.400362 0.412588 0.045864
C32   C     C_R   0.899639 0.376042 0.393413 0.119653
C33   C     C_R   0.824943 0.428470 0.440033 -0.193393
C34   C     C_R   0.473606 0.694149 0.949152 -0.151215
C35   C     C_R   0.148769 0.498881 0.493468 -0.099923
C36   C     C_R   0.193372 0.370367 0.391308 0.547183
C37   C     C_R   0.497022 0.416231 0.183965 -0.288030
C38   C     C_R   0.491022 0.507541 0.230380 -0.079640
C39   C     C_R   0.473095 0.602637 0.184234 0.117649
C40   C     C_R   0.476783 0.603506 0.090420 0.105349
C41   C     C_R   0.489514 0.509676 0.044678 0.040722
C42   C     C_3   0.855669 0.024431 0.509159 -0.353315
C43   C     C_3   0.904443 0.947757 0.587417 -0.807157
C44   C     C_3   0.866263 0.292463 0.325017 -0.400648
C45   C     C_R   0.485259 0.601852 0.903257 0.048900
C46   C     C_3   0.744207 0.285007 0.295733 -0.887316
C47   C     C_3   0.444899 0.700456 0.233729 -0.424566
C48   C     C_3   0.323984 0.741532 0.203306 -0.822592
C49   C     C_3   0.737596 0.662857 0.680919 -0.330279
C50   C     C_3   0.771126 0.752953 0.741403 -0.904221
C51   C     C_R   0.493425 0.508892 0.951590 0.015236
C52   C     C_R   0.504962 0.414752 0.906700 0.124684
C53   C     C_R   0.512254 0.322862 0.954087 -0.172123
C54   C     C_R   0.508613 0.323574 0.046320 -0.189962
Cl1   Cl    Cl    0.762211 0.846179 0.394941 -0.662612
Cl2   Cl    Cl    0.378769 0.091392 0.646909 -0.638938
Cl3   Cl    Cl    0.287145 0.303399 0.334088 -0.616667
Cl4   Cl    Cl    0.471967 0.713589 0.744286 -0.684039
H1    H     H_    0.504334 0.344680 0.220971 0.175577
H2    H     H_    0.745880 0.405937 0.429681 0.228024
H3    H     H_    0.461610 0.768597 0.072875 0.170982
H4    H     H_    0.467853 0.766666 0.914718 0.212986
H5    H     H_    0.516881 0.342234 0.779178 0.173685
H6    H     H_    0.520999 0.250567 0.919845 0.170191
H7    H     H_    0.515118 0.251759 0.082416 0.160148
H8    H     H_    0.766832 0.215263 0.523628 0.165176
H9    H     H_    0.897400 0.982633 0.654324 0.252685
H10   H     H_    0.861938 0.879037 0.578663 0.279805
H11   H     H_    0.992141 0.924347 0.588456 0.248206
H12   H     H_    0.437706 0.165687 0.511979 0.221035
H13   H     H_    0.869682 0.995058 0.442542 0.257473
H14   H     H_    0.903718 0.089970 0.522038 0.188702
H15   H     H_    0.711862 0.259120 0.353571 0.255721
H16   H     H_    0.701068 0.360341 0.269619 0.272412
H17   H     H_    0.729251 0.229145 0.239626 0.263921
H18   H     H_    0.892586 0.307374 0.260589 0.225278
H19   H     H_    0.908825 0.217594 0.354121 0.211683
H20   H     H_    0.301073 0.760116 0.128751 0.262839
H21   H     H_    0.273039 0.684245 0.218539 0.272003
H22   H     H_    0.306326 0.811823 0.241670 0.253738
H23   H     H_    0.252678 0.783431 0.524537 0.174309
H24   H     H_    0.460157 0.687642 0.308444 0.188253
H25   H     H_    0.497346 0.758798 0.224145 0.219030
H26   H     H_    0.851604 0.732124 0.788916 0.257591
H27   H     H_    0.773141 0.820127 0.698295 0.264833
H28   H     H_    0.710256 0.774298 0.784093 0.301162
H29   H     H_    0.653115 0.687083 0.645411 0.291692
H30   H     H_    0.740188 0.597993 0.727982 0.227339
H31   H     H_    0.232381 0.950882 0.591529 0.175617
H32   H     H_    0.576190 0.772661 0.401065 0.192379
H33   H     H_    0.069935 0.284304 0.325256 0.174489
H34   H     H_    0.179780 0.554722 0.541823 0.147863
H35   H     H_    0.057788 0.651467 0.581363 0.143899
H36   H     H_    0.934794 0.721887 0.668003 0.163542
N1    N     N_R   0.222190 0.444670 0.452360 -0.136313
N2    N     N_R   0.776970 0.554790 0.547140 -0.148606
O1    O     O_R   0.366740 0.627160 0.477250 -0.617758
O2    O     O_R   0.544830 0.662520 0.507680 -0.633440
O3    O     O_R   0.410940 0.482340 0.616930 -0.602661
O4    O     O_R   0.589030 0.517700 0.647360 -0.639907
O5    O     O_R   0.455170 0.337480 0.492320 -0.567125
O6    O     O_R   0.633260 0.372840 0.522750 -0.656758
O7    O     O_R   0.410970 0.482300 0.352640 -0.556783
O8    O     O_R   0.589060 0.517660 0.383070 -0.644700
Zn1   Zn    Zn3+2 0.381090 0.476390 0.479680 1.014952
Zn2   Zn    Zn3+2 0.618910 0.523610 0.520320 0.932960

loop_
_geom_bond_atom_site_label_1
_geom_bond_atom_site_label_2
_ccdc_geom_bond_type
C1    C21   S    
C27   C29   A    
C49   H29   S    
C36   N1    A    
O8    Zn2   S    
C50   H26   S    
C54   H7    S    
C53   C54   A    
C26   C27   A    
C37   C38   A    
C13   C18   A    
C48   H21   S    
C20   H8    S    
C44   H19   S    
C24   N2    A    
C30   C31   A    
C53   H6    S    
C45   C51   A    
C23   C40   A    
C29   C33   A    
C34   H4    S    
C5    H5    S    
C47   H24   S    
C48   H20   S    
C12   C37   A    
C44   H18   S    
N1    Zn1   S    
C50   H27   S    
C6    C15   A    
C47   C48   S    
C8    C9    A    
C22   H33   S    
C5    C52   A    
C47   H25   S    
C10   Cl2   S    
C9    C10   A    
C17   Cl1   S    
O1    Zn1   S    
C35   H34   S    
C26   H35   S    
C25   H36   S    
C43   H11   S    
C27   C30   A    
C49   H30   S    
C46   H17   S    
C44   C46   S    
C8    C21   A    
C2    C45   A    
O5    Zn1   S    
O3    Zn1   S    
C22   C31   A    
C51   C52   A    
C18   H32   S    
C24   C25   A    
C36   Cl3   S    
C9    H31   S    
C39   C40   A    
C43   H10   S    
C25   C26   A    
C8    H23   S    
C12   C41   A    
C28   O8    A    
C31   C32   A    
C28   C38   S    
C23   C34   A    
C42   H14   S    
C17   C18   A    
C32   C44   S    
C13   C21   A    
O7    Zn1   S    
C34   C45   A    
C37   H1    S    
C30   C35   A    
C16   O6    A    
C7    C16   S    
C49   C50   S    
C33   H2    S    
C7    C19   A    
C4    O4    A    
C42   C43   S    
C1    O1    A    
C3    C4    S    
C46   H16   S    
C6    C20   A    
C52   C53   A    
C39   C47   S    
C24   C49   S    
C15   C17   A    
N2    Zn2   S    
C40   C41   A    
C14   C19   A    
C3    C5    A    
C1    O2    A    
C29   N2    A    
C2    Cl4   S    
C35   N1    A    
C22   C36   A    
O4    Zn2   S    
O2    Zn2   S    
C32   C33   A    
C48   H22   S    
C2    C3    A    
C11   C13   A    
C28   O7    A    
C38   C39   A    
C42   H13   S    
C11   C14   A    
O6    Zn2   S    
C10   C11   A    
C50   H28   S    
C16   O5    A    
C23   H3    S    
C43   H9    S    
C7    C20   A    
C6    C42   S    
C4    O3    A    
C14   C15   A    
C19   H12   S    
C41   C51   A    
C46   H15   S    
C12   C54   A    
