data_mof_unit_29248.cif
_audit_creation_date              2012-12-10T20:05:23-0500
_audit_creation_method            fapswitch 2.2
_symmetry_space_group_name_H-M    P1
_symmetry_Int_Tables_number       1
_space_group_crystal_system       triclinic
_cell_length_a                    15.875628
_cell_length_b                    15.865712
_cell_length_c                    34.452431
_cell_angle_alpha                 90.030566
_cell_angle_beta                  89.86734
_cell_angle_gamma                 89.967748
_cell_volume                      8677.7884202

loop_
_atom_site_label
_atom_site_type_symbol
_atom_type_description
_atom_site_fract_x
_atom_site_fract_y
_atom_site_fract_z
_atom_type_partial_charge
C1    C     C_R   0.500034 0.000020 0.355917 0.608394
C2    C     C_R   0.659999 0.839924 0.749992 0.531336
C3    C     C_R   0.849758 0.470198 0.019823 0.268256
C4    C     C_R   0.480688 0.150863 0.981646 0.244933
C5    C     C_R   0.523819 0.847520 0.019522 0.274112
C6    C     C_R   0.851837 0.461896 0.979308 0.266423
C7    C     C_R   0.150722 0.531837 0.019815 0.265755
C8    C     C_R   0.839934 0.339940 0.250005 0.528098
C9    C     C_R   0.160082 0.660049 0.750002 0.527486
C10   C     C_R   0.660069 0.839971 0.249994 0.524360
C11   C     C_R   0.339968 0.160072 0.750033 0.520021
C12   C     C_R   0.160006 0.660064 0.249995 0.527804
C13   C     C_R   0.839976 0.339947 0.750012 0.533466
C14   C     C_R   0.339940 0.839937 0.750008 0.523139
C15   C     C_R   0.660056 0.160073 0.249985 0.526807
C16   C     C_R   0.839989 0.660053 0.750019 0.511109
C17   C     C_R   0.500009 0.999981 0.643898 0.594437
C18   C     C_R   0.159999 0.339926 0.249993 0.530357
C19   C     C_R   0.660031 0.160041 0.749976 0.536223
C20   C     C_R   0.339968 0.839952 0.250018 0.531107
C21   C     C_R   0.160085 0.339983 0.750005 0.527722
C22   C     C_R   0.839941 0.660049 0.250014 0.530374
C23   C     C_1   0.276668 0.776658 0.250028 0.028401
C24   C     C_1   0.723312 0.223342 0.749967 0.032581
C25   C     C_1   0.223279 0.276616 0.249997 0.032731
C26   C     C_1   0.776701 0.723341 0.750030 0.031171
C27   C     C_1   0.723335 0.223343 0.249983 0.025489
C28   C     C_R   0.999921 0.500009 0.355909 0.607542
C29   C     C_1   0.276680 0.776658 0.750014 0.021575
C30   C     C_1   0.776661 0.723335 0.250019 0.026617
C31   C     C_1   0.223393 0.276737 0.750026 0.016117
C32   C     C_1   0.276702 0.223366 0.750055 0.015874
C33   C     C_1   0.723356 0.776709 0.249995 0.017237
C34   C     C_1   0.223369 0.723315 0.750004 0.030573
C35   C     C_1   0.776653 0.276679 0.249999 0.020987
C36   C     C_1   0.723284 0.776618 0.749989 0.036120
C37   C     C_1   0.276694 0.223337 0.250041 0.026842
C38   C     C_1   0.776693 0.276639 0.750004 0.033759
C39   C     C_R   0.000073 0.500499 0.643906 0.561372
C40   C     C_1   0.223281 0.723367 0.249997 0.021188
C41   C     C_R   0.008449 0.576911 0.418532 0.219616
C42   C     C_R   0.035766 0.432412 0.580572 0.226716
C43   C     C_R   0.423445 0.007806 0.418698 0.219258
C44   C     C_R   0.568037 0.036204 0.580529 0.218793
C45   C     C_R   0.991385 0.423735 0.418667 0.219347
C46   C     C_R   0.965127 0.569611 0.580618 0.190241
C47   C     C_R   0.576707 0.992281 0.418523 0.219390
C48   C     C_R   0.432068 0.963701 0.580647 0.218598
C49   C     C_R   0.483294 0.077086 0.918437 0.213841
C50   C     C_R   0.000460 0.500067 0.855880 0.611926
C51   C     C_R   0.530035 0.927286 0.081254 0.207294
C52   C     C_R   0.923844 0.505032 0.918508 0.223370
C53   C     C_R   0.066112 0.540228 0.080441 0.219561
C54   C     C_R   0.503441 0.923281 0.918135 0.216083
C55   C     C_R   0.480985 0.074433 0.082118 0.203749
C56   C     C_R   0.077564 0.496813 0.918422 0.215006
C57   C     C_R   0.933988 0.460901 0.080405 0.219333
C58   C     C_R   0.999802 0.500236 0.398244 0.023324
C59   C     C_R   0.000249 0.500896 0.601272 0.016316
C60   C     C_R   0.500068 0.000060 0.398257 0.023487
C61   C     C_R   0.000038 0.500025 0.143860 0.592121
C62   C     C_R   0.500046 0.999947 0.601256 0.019743
C63   C     C_R   0.497296 0.000684 0.898254 0.019603
C64   C     C_R   0.502556 0.999491 0.101763 0.015728
C65   C     C_R   0.000661 0.500393 0.898157 0.024866
C66   C     C_R   0.000120 0.500240 0.101152 0.018930
C67   C     C_R   0.009310 0.423657 0.458809 -0.028564
C68   C     C_R   0.982920 0.575964 0.540508 -0.025527
C69   C     C_R   0.576767 0.009954 0.458715 -0.028256
C70   C     C_R   0.425243 0.981363 0.540594 -0.029011
C71   C     C_R   0.990973 0.577298 0.458746 -0.028344
C72   C     C_R   0.499492 0.000477 0.855893 0.615285
C73   C     C_R   0.018141 0.425698 0.540527 -0.030293
C74   C     C_R   0.423402 0.990060 0.458870 -0.028483
C75   C     C_R   0.574898 0.018541 0.540453 -0.028753
C76   C     C_R   0.515819 0.924015 0.958721 -0.028931
C77   C     C_R   0.475862 0.072858 0.041131 -0.060939
C78   C     C_R   0.076655 0.514535 0.958626 -0.028533
C79   C     C_R   0.926347 0.478692 0.040382 -0.029885
C80   C     C_R   0.488079 0.076690 0.959439 -0.034729
C81   C     C_R   0.516679 0.923360 0.040808 -0.033087
C82   C     C_R   0.924464 0.487689 0.958679 -0.028045
C83   C     C_R   0.500507 0.997906 0.144105 0.618641
C84   C     C_R   0.073982 0.523009 0.040371 -0.028274
C85   C     C_R   0.000264 0.500566 0.479238 -0.083707
C86   C     C_R   0.000445 0.500739 0.520040 -0.080725
C87   C     C_R   0.500084 0.999990 0.479247 -0.082994
C88   C     C_R   0.500077 0.999959 0.520041 -0.081241
C89   C     C_R   0.499673 0.999388 0.979445 -0.090241
C90   C     C_R   0.498600 0.998671 0.020586 -0.096012
C91   C     C_R   0.000467 0.501069 0.979111 -0.082488
C92   C     C_R   0.000264 0.500935 0.019901 -0.080666
C93   C     C_R   0.031062 0.349741 0.479492 0.269054
C94   C     C_R   0.339984 0.160049 0.250024 0.523899
C95   C     C_R   0.978679 0.652939 0.519871 0.270461
C96   C     C_R   0.650498 0.032295 0.479340 0.268341
C97   C     C_R   0.348248 0.976402 0.520129 0.271097
C98   C     C_R   0.969465 0.651385 0.479419 0.267506
C99   C     C_R   0.022371 0.348534 0.520001 0.269992
C100  C     C_R   0.349680 0.967667 0.479628 0.268521
C101  C     C_R   0.651908 0.023526 0.519836 0.270500
C102  C     C_R   0.539961 0.851279 0.979707 0.271032
C103  C     C_R   0.450745 0.143649 0.019389 0.235071
C104  C     C_R   0.149089 0.540433 0.979308 0.265042
H1    H     H_    0.163685 0.681031 0.356288 0.374125
H2    H     H_    0.710653 0.870175 0.141627 0.375547
H3    H     H_    0.812574 0.655666 0.856777 0.374615
H4    H     H_    0.093664 0.732723 0.137256 0.375910
H5    H     H_    0.375817 0.798878 0.850171 0.367790
H6    H     H_    0.538218 0.220274 0.161161 0.359291
H7    H     H_    0.190935 0.349229 0.855558 0.368141
H8    H     H_    0.905804 0.267684 0.136480 0.377421
H9    H     H_    0.088053 0.139378 0.443706 0.403998
H10   H     H_    0.963873 0.870016 0.556334 0.366362
H11   H     H_    0.860020 0.091264 0.443326 0.404903
H12   H     H_    0.225544 0.392388 0.637433 0.377433
H13   H     H_    0.130433 0.960131 0.555467 0.366242
H14   H     H_    0.911237 0.861127 0.443405 0.404412
H15   H     H_    0.036889 0.130399 0.554964 0.366062
H16   H     H_    0.140334 0.908693 0.443791 0.405328
H17   H     H_    0.869644 0.040011 0.554828 0.366433
H18   H     H_    0.620195 0.650430 0.941875 0.411816
H19   H     H_    0.286401 0.082840 0.048405 0.346239
H20   H     H_    0.353806 0.608552 0.940824 0.407884
H21   H     H_    0.632210 0.442266 0.053764 0.387921
H22   H     H_    0.646408 0.176247 0.013219 0.351798
H23   H     H_    0.318102 0.162651 0.356935 0.374265
H24   H     H_    0.520514 0.624374 0.047505 0.372538
H25   H     H_    0.652185 0.399499 0.934881 0.409967
H26   H     H_    0.364882 0.560300 0.057908 0.376852
H27   H     H_    0.606153 0.226474 0.637583 0.377435
H28   H     H_    0.835310 0.319701 0.357172 0.374619
H29   H     H_    0.929580 0.670947 0.659756 0.331973
H30   H     H_    0.682005 0.837459 0.356427 0.374232
H31   H     H_    0.393731 0.773528 0.637726 0.377541
H32   H     H_    0.345049 0.184662 0.849202 0.362828
O1    O     O_3   0.500000 0.000000 0.250000 -0.493371
O2    O     O_R   0.500000 0.930770 0.662510 -0.477250
O3    O     O_3   0.941668 0.305847 0.120814 -0.469242
O4    O     O_2   0.133089 0.301179 0.420350 -0.223192
O5    O     O_2   0.169644 0.255086 0.485643 -0.158502
O6    O     O_3   0.044755 0.180807 0.451825 -0.413181
O7    O     O_2   0.059646 0.731702 0.578734 -0.215022
O8    O     O_2   0.077994 0.787964 0.513360 -0.177765
O9    O     O_3   0.936419 0.816930 0.548068 -0.379211
O10   O     O_2   0.697859 0.135039 0.420349 -0.222891
O11   O     O_2   0.743713 0.171768 0.485655 -0.158422
O12   O     O_3   0.819101 0.047577 0.451477 -0.412284
O13   O     O_R   0.930770 0.500000 0.337490 -0.480928
O14   O     O_2   0.268498 0.053638 0.580082 -0.221855
O15   O     O_2   0.213780 0.076774 0.514811 -0.176569
O16   O     O_3   0.183692 0.932961 0.547149 -0.382373
O17   O     O_2   0.866252 0.698987 0.420807 -0.222461
O18   O     O_2   0.830798 0.745810 0.486224 -0.158854
O19   O     O_3   0.954780 0.820012 0.451471 -0.412917
O20   O     O_2   0.944683 0.269540 0.579990 -0.222356
O21   O     O_2   0.920943 0.214983 0.514686 -0.176327
O22   O     O_3   0.064490 0.183498 0.546788 -0.383216
O23   O     O_2   0.302410 0.864956 0.420664 -0.222862
O24   O     O_R   0.069230 0.500000 0.662510 -0.477975
O25   O     O_2   0.256559 0.828136 0.486041 -0.158209
O26   O     O_3   0.181103 0.952316 0.452104 -0.411585
O27   O     O_2   0.731652 0.946373 0.579607 -0.216574
O28   O     O_2   0.786516 0.923295 0.514231 -0.176050
O29   O     O_3   0.816396 0.067127 0.546582 -0.383094
O30   O     O_2   0.659110 0.814792 0.925929 -0.227511
O31   O     O_2   0.683055 0.766634 0.992207 -0.167755
O32   O     O_3   0.573199 0.685928 0.951390 -0.390865
O33   O     O_2   0.367339 0.281045 0.044437 -0.088155
O34   O     O_2   0.303717 0.200936 0.991832 -0.197563
O35   O     O_R   0.000000 0.430770 0.837490 -0.479320
O36   O     O_3   0.296255 0.137951 0.061131 -0.441240
O37   O     O_2   0.190504 0.646365 0.920655 -0.226957
O38   O     O_2   0.236057 0.683849 0.985907 -0.163763
O39   O     O_3   0.316198 0.563782 0.950877 -0.379739
O40   O     O_2   0.765469 0.540925 0.080202 -0.223574
O41   O     O_2   0.710940 0.564629 0.014942 -0.177558
O42   O     O_3   0.687008 0.417967 0.045697 -0.362618
O43   O     O_2   0.604899 0.222244 0.938466 -0.218573
O44   O     O_2   0.509707 0.316572 0.974273 -0.127571
O45   O     O_3   0.620788 0.233196 0.013183 -0.400744
O46   O     O_R   0.000000 0.569230 0.162510 -0.478661
O47   O     O_2   0.435098 0.765097 0.075220 -0.219135
O48   O     O_2   0.414478 0.722801 0.007766 -0.182288
O49   O     O_3   0.552205 0.676399 0.041257 -0.378658
O50   O     O_2   0.810414 0.357709 0.920028 -0.230553
O51   O     O_2   0.766530 0.317658 0.985214 -0.155863
O52   O     O_3   0.684560 0.438305 0.951704 -0.390168
O53   O     O_2   0.233580 0.457728 0.079404 -0.220810
O54   O     O_2   0.291115 0.439881 0.014130 -0.151449
O55   O     O_3   0.311850 0.584161 0.047540 -0.378021
O56   O     O_R   0.569230 0.000000 0.837490 -0.513797
O57   O     O_R   0.430770 0.000000 0.162510 -0.513244
O58   O     O_R   0.000000 0.569230 0.837490 -0.478737
O59   O     O_R   0.000000 0.430770 0.162510 -0.477092
O60   O     O_R   0.430770 0.000000 0.837490 -0.444232
O61   O     O_3   0.500000 0.000000 0.750000 -0.494624
O62   O     O_R   0.569230 0.000000 0.162510 -0.445889
O63   O     O_R   0.402530 0.166640 0.272980 -0.526306
O64   O     O_R   0.597470 0.833360 0.727020 -0.519358
O65   O     O_R   0.833360 0.402530 0.272980 -0.521942
O66   O     O_R   0.166640 0.597470 0.727020 -0.526096
O67   O     O_R   0.597470 0.833360 0.272980 -0.519475
O68   O     O_R   0.402530 0.166640 0.727020 -0.520216
O69   O     O_R   0.166640 0.597470 0.272980 -0.520899
O70   O     O_R   0.833360 0.402530 0.727020 -0.517361
O71   O     O_R   0.402530 0.833360 0.727020 -0.525233
O72   O     O_3   0.000000 0.500000 0.250000 -0.494229
O73   O     O_R   0.597470 0.166640 0.272980 -0.521995
O74   O     O_R   0.833360 0.597470 0.727020 -0.519559
O75   O     O_R   0.166640 0.402530 0.272980 -0.519779
O76   O     O_R   0.597470 0.166640 0.727020 -0.525806
O77   O     O_R   0.402530 0.833360 0.272980 -0.517811
O78   O     O_R   0.166640 0.402530 0.727020 -0.520979
O79   O     O_R   0.833360 0.597470 0.272980 -0.518119
O80   O     O_R   0.902530 0.666640 0.772980 -0.524713
O81   O     O_R   0.097470 0.333360 0.227020 -0.520328
O82   O     O_R   0.333360 0.902530 0.772980 -0.514406
O83   O     O_3   0.000000 0.500000 0.750000 -0.494968
O84   O     O_R   0.666640 0.097470 0.227020 -0.512507
O85   O     O_R   0.097470 0.333360 0.772980 -0.519397
O86   O     O_R   0.902530 0.666640 0.227020 -0.524455
O87   O     O_R   0.666640 0.097470 0.772980 -0.517299
O88   O     O_R   0.333360 0.902530 0.227020 -0.526264
O89   O     O_R   0.902530 0.333360 0.227020 -0.521854
O90   O     O_R   0.097470 0.666640 0.772980 -0.517994
O91   O     O_R   0.333360 0.097470 0.227020 -0.511807
O92   O     O_R   0.666640 0.902530 0.772980 -0.520305
O93   O     O_R   0.097470 0.666640 0.227020 -0.522781
O94   O     O_R   0.500000 0.930770 0.337490 -0.480770
O95   O     O_R   0.902530 0.333360 0.772980 -0.515488
O96   O     O_R   0.666640 0.902530 0.227020 -0.528284
O97   O     O_R   0.333360 0.097470 0.772980 -0.521606
O98   O     O_2   0.998914 0.705350 0.367451 -0.252753
O99   O     O_2   0.087438 0.728357 0.424964 -0.180620
O100  O     O_3   0.144259 0.631339 0.371224 -0.479658
O101  O     O_2   0.077304 0.314579 0.633596 -0.249690
O102  O     O_2   0.158543 0.313162 0.572808 -0.162933
O103  O     O_3   0.189910 0.430639 0.621756 -0.470623
O104  O     O_2   0.294884 0.997685 0.367839 -0.252507
O105  O     O_R   0.500000 0.069230 0.662510 -0.479035
O106  O     O_2   0.271571 0.085877 0.425597 -0.179368
O107  O     O_3   0.367925 0.143480 0.371779 -0.480251
O108  O     O_2   0.685372 0.078827 0.633496 -0.252782
O109  O     O_2   0.685969 0.160092 0.572805 -0.162287
O110  O     O_3   0.568277 0.190485 0.621892 -0.472089
O111  O     O_2   0.000031 0.294825 0.367717 -0.252775
O112  O     O_2   0.912017 0.272604 0.425641 -0.180035
O113  O     O_3   0.855011 0.369410 0.372002 -0.479706
O114  O     O_2   0.821249 0.582421 0.622377 -0.232371
O115  O     O_2   0.840952 0.686439 0.572137 -0.134586
O116  O     O_R   0.069230 0.500000 0.337490 -0.480394
O117  O     O_3   0.930698 0.701384 0.634683 -0.452155
O118  O     O_2   0.705241 0.002423 0.367381 -0.252472
O119  O     O_2   0.728568 0.914175 0.425028 -0.179623
O120  O     O_3   0.632185 0.856635 0.371387 -0.480211
O121  O     O_2   0.314638 0.921246 0.633829 -0.253290
O122  O     O_2   0.314043 0.839901 0.573122 -0.161955
O123  O     O_3   0.431659 0.809485 0.621983 -0.468066
O124  O     O_2   0.413591 0.236561 0.917939 -0.158922
O125  O     O_2   0.509413 0.198063 0.864944 -0.265031
O126  O     O_3   0.358496 0.135720 0.865929 -0.477961
O127  O     O_R   0.930770 0.500000 0.662510 -0.504032
O128  O     O_2   0.556141 0.806878 0.135253 -0.262665
O129  O     O_2   0.642801 0.796424 0.076342 -0.157579
O130  O     O_3   0.680159 0.911379 0.125248 -0.474684
O131  O     O_2   0.796046 0.489560 0.867491 -0.251429
O132  O     O_2   0.769066 0.576712 0.925241 -0.204590
O133  O     O_3   0.863245 0.638129 0.871437 -0.479494
O134  O     O_2   0.181252 0.589863 0.133146 -0.249758
O135  O     O_2   0.176558 0.670702 0.072380 -0.168751
O136  O     O_3   0.057797 0.694602 0.121628 -0.473515
O137  O     O_2   0.538156 0.793666 0.869660 -0.245287
O138  O     O_R   0.500000 0.069230 0.337490 -0.480321
O139  O     O_2   0.438538 0.764750 0.922755 -0.191184
O140  O     O_3   0.385960 0.851370 0.865023 -0.488042
O141  O     O_2   0.510424 0.243528 0.082741 -0.176003
O142  O     O_2   0.395382 0.190510 0.123733 -0.203208
O143  O     O_3   0.549304 0.168290 0.146049 -0.518714
O144  O     O_2   0.206505 0.514878 0.867969 -0.250360
O145  O     O_2   0.232428 0.425226 0.924922 -0.151118
O146  O     O_3   0.139808 0.365953 0.870202 -0.488047
O147  O     O_2   0.819350 0.411312 0.133585 -0.251542
O148  O     O_2   0.821998 0.331663 0.072424 -0.169074
S1    S     S_3+6 0.058609 0.664667 0.395593 0.088649
S2    S     S_3+6 0.601951 0.856056 0.104475 0.091547
S3    S     S_3+6 0.833884 0.551010 0.895711 0.082547
S4    S     S_3+6 0.124803 0.624282 0.101964 0.097689
S5    S     S_3+6 0.468118 0.829481 0.894030 0.083505
S6    S     S_3+6 0.482188 0.172350 0.108382 0.092011
S7    S     S_3+6 0.168199 0.452055 0.895452 0.091688
S8    S     S_3+6 0.874824 0.377015 0.101869 0.099547
S9    S     S_3+6 0.097607 0.271493 0.458431 0.161112
S10   S     S_3+6 0.015906 0.748562 0.540884 0.151634
S11   S     S_3+6 0.727971 0.099647 0.458313 0.161344
S12   S     S_3+6 0.115540 0.368277 0.602239 0.102919
S13   S     S_3+6 0.252412 0.012621 0.541476 0.147789
S14   S     S_3+6 0.902354 0.729246 0.458607 0.160775
S15   S     S_3+6 0.985444 0.253026 0.541310 0.146851
S16   S     S_3+6 0.272259 0.900290 0.458715 0.161841
S17   S     S_3+6 0.747759 0.987405 0.540991 0.150020
S18   S     S_3+6 0.617097 0.779778 0.961565 0.159886
S19   S     S_3+6 0.353027 0.193797 0.028895 0.161511
S20   S     S_3+6 0.223021 0.611628 0.958325 0.161599
S21   S     S_3+6 0.752020 0.501042 0.041132 0.156560
S22   S     S_3+6 0.554654 0.233221 0.975149 0.140732
S23   S     S_3+6 0.335268 0.057528 0.396038 0.088691
S24   S     S_3+6 0.478494 0.751961 0.036877 0.147844
S25   S     S_3+6 0.778250 0.390904 0.958149 0.165596
S26   S     S_3+6 0.248119 0.500769 0.041118 0.162897
S27   S     S_3+6 0.631325 0.116601 0.602233 0.099450
S28   S     S_3+6 0.940758 0.335944 0.396061 0.088840
S29   S     S_3+6 0.886404 0.635598 0.602285 0.115975
S30   S     S_3+6 0.664862 0.942563 0.395632 0.088805
S31   S     S_3+6 0.368690 0.883386 0.602456 0.100476
S32   S     S_3+6 0.442468 0.166004 0.892097 0.090272
Zn1   Zn    Zn3+2 0.401050 0.000000 0.217300 1.036738
Zn2   Zn    Zn3+2 0.098950 0.500000 0.282700 1.045030
Zn3   Zn    Zn3+2 0.500000 0.901050 0.717300 1.040798
Zn4   Zn    Zn3+2 0.500000 0.098950 0.282700 1.040150
Zn5   Zn    Zn3+2 0.098950 0.500000 0.717300 1.024044
Zn6   Zn    Zn3+2 0.901050 0.500000 0.282700 1.044844
Zn7   Zn    Zn3+2 0.500000 0.098950 0.717300 1.038851
Zn8   Zn    Zn3+2 0.500000 0.901050 0.282700 1.046372
Zn9   Zn    Zn3+2 0.598950 0.000000 0.782700 1.041490
Zn10  Zn    Zn3+2 0.000000 0.401050 0.217300 1.040589
Zn11  Zn    Zn3+2 0.000000 0.598950 0.782700 1.035545
Zn12  Zn    Zn3+2 0.598950 0.000000 0.217300 1.048591
Zn13  Zn    Zn3+2 0.401050 0.000000 0.782700 1.052958
Zn14  Zn    Zn3+2 0.000000 0.598950 0.217300 1.036167
Zn15  Zn    Zn3+2 0.000000 0.401050 0.782700 1.050521
Zn16  Zn    Zn3+2 0.901050 0.500000 0.717300 1.029136

loop_
_geom_bond_atom_site_label_1
_geom_bond_atom_site_label_2
_ccdc_geom_bond_type
O115  S29   D    
O47   S24   D    
C3    C79   A    
C52   S3    S    
O1    Zn8   S    
C2    O92   A    
H20   O39   S    
O81   Zn10  S    
O112  S28   D    
C21   O85   A    
O57   Zn1   S    
O34   S19   D    
O121  S31   D    
C54   C63   A    
H9    O6    S    
C48   S31   S    
O52   S25   S    
O102  S12   D    
O8    S10   D    
O49   S24   S    
C9    O90   A    
O13   Zn6   S    
O1    Zn4   S    
O64   Zn3   S    
O92   Zn9   S    
C17   O105  A    
C104  S20   S    
O71   Zn3   S    
O32   S18   S    
C43   S23   S    
C18   C25   S    
O137  S5    D    
C41   S1    S    
C67   C85   A    
C68   C95   A    
H24   O49   S    
O126  S32   S    
C1    C60   S    
H29   O117  S    
C74   C100  A    
C27   C35   T    
H11   O12   S    
C82   C91   A    
C8    C35   S    
C12   C40   S    
C102  S18   S    
O75   Zn2   S    
C15   C27   S    
O10   S11   D    
C10   O96   A    
C20   O88   A    
O16   S13   S    
O90   Zn11  S    
O145  S7    D    
O120  S30   S    
C81   C90   A    
C42   S12   S    
O35   Zn15  S    
C9    C34   S    
O83   Zn5   S    
H7    O146  S    
C77   C103  A    
C45   C58   A    
O4    S9    D    
H6    O143  S    
C42   C73   A    
C51   C64   A    
C48   C70   A    
C53   S4    S    
C72   O60   A    
O109  S27   D    
O86   Zn14  S    
C28   C58   S    
O147  S8    D    
O83   Zn16  S    
C49   C80   A    
O93   Zn14  S    
O128  S2    D    
C12   O69   A    
C56   S7    S    
C11   O68   A    
C99   S15   S    
C9    O66   A    
O148  S8    D    
C75   C101  A    
C13   O70   A    
C14   O82   A    
O100  S1    S    
C52   C65   A    
C4    S22   S    
C11   O97   A    
C39   O24   A    
C51   S2    S    
O15   S13   D    
C57   C66   A    
C3    C6    A    
C12   O93   A    
C85   C86   A    
C46   C68   A    
C21   C31   S    
O19   S14   S    
C61   O46   A    
C53   C84   A    
O80   Zn11  S    
H27   O110  S    
C41   C58   A    
C4    C80   A    
C54   S5    S    
O30   S18   D    
O76   Zn7   S    
C56   C78   A    
C94   O63   A    
O48   S24   D    
C47   C69   A    
C48   C62   A    
O24   Zn5   S    
O77   Zn8   S    
C74   C87   A    
O43   S22   D    
C51   C81   A    
H19   O36   S    
O1    Zn12  S    
H16   O26   S    
C76   C89   A    
C41   C71   A    
O131  S3    D    
C28   O13   A    
C22   O79   A    
O96   Zn12  S    
O1    Zn1   S    
H28   O113  S    
C76   C102  A    
O44   S22   D    
O144  S7    D    
C78   C104  A    
C95   S10   S    
H23   O107  S    
C91   C92   A    
O103  S12   S    
C7    S26   S    
C83   O57   A    
O61   Zn13  S    
O68   Zn7   S    
O97   Zn13  S    
C31   C32   T    
C20   C23   S    
O45   S22   S    
O116  Zn2   S    
C1    O138  A    
C93   S9    S    
O21   S15   D    
C13   C38   S    
C50   O35   A    
C57   S8    S    
O113  S28   S    
O140  S5    S    
C43   C60   A    
O70   Zn16  S    
C11   C32   S    
O63   Zn4   S    
C14   C29   S    
O119  S30   D    
O12   S11   S    
C61   O59   A    
C22   C30   S    
C45   S28   S    
C42   C59   A    
C5    S24   S    
O98   S1    D    
H17   O29   S    
H31   O123  S    
C18   O75   A    
O33   S19   D    
O66   Zn5   S    
O56   Zn9   S    
O61   Zn9   S    
C10   C33   S    
O85   Zn15  S    
C50   C65   S    
H5    O140  S    
O18   S14   D    
O37   S20   D    
H21   O42   S    
C67   C93   A    
H22   O45   S    
C84   C92   A    
C14   O71   A    
O25   S16   D    
C72   O56   A    
O123  S31   S    
C87   C88   A    
O20   S15   D    
O59   Zn10  S    
C97   C100  A    
C22   O86   A    
H12   O103  S    
O50   S25   D    
C49   C63   A    
C8    O65   A    
O9    S10   S    
C46   S29   S    
C23   C40   T    
O117  S29   S    
C80   C89   A    
C16   O80   A    
C1    O94   A    
O72   Zn14  S    
O94   Zn8   S    
C45   C67   A    
C10   O67   A    
C93   C99   A    
C69   C87   A    
C70   C97   A    
O67   Zn8   S    
C96   C101  A    
C47   S30   S    
C44   S27   S    
O3    S8    S    
O111  S28   D    
C16   C26   S    
O142  S6    D    
O95   Zn15  S    
C77   C90   A    
H2    O130  S    
O14   S13   D    
H18   O32   S    
H32   O126  S    
O135  S4    D    
C97   S13   S    
H10   O9    S    
O122  S31   D    
C29   C34   T    
O83   Zn15  S    
C19   O76   A    
C28   O116  A    
C64   C83   S    
O101  S12   D    
C17   C62   S    
O54   S26   D    
C5    C81   A    
O130  S2    S    
O5    S9    D    
O36   S19   S    
H4    O136  S    
O143  S6    S    
O72   Zn10  S    
O124  S32   D    
C19   O87   A    
C83   O62   A    
C49   S32   S    
O69   Zn2   S    
C26   C36   T    
O132  S3    D    
H1    O100  S    
H26   O55   S    
C5    C102  A    
O125  S32   D    
C8    O89   A    
O127  Zn16  S    
O58   Zn11  S    
O82   Zn13  S    
O83   Zn11  S    
C16   O74   A    
C19   C24   S    
H30   O120  S    
O28   S17   D    
C50   O58   A    
O138  Zn4   S    
O11   S11   D    
O40   S21   D    
C96   S11   S    
O146  S7    S    
C63   C72   S    
C15   O73   A    
O106  S23   D    
H25   O52   S    
O91   Zn1   S    
C6    S25   S    
C89   C90   A    
O84   Zn12  S    
C55   S6    S    
O17   S14   D    
C6    C82   A    
C46   C59   A    
H3    O133  S    
C68   C86   A    
C57   C79   A    
O87   Zn9   S    
C69   C96   A    
C70   C88   A    
C95   C98   A    
O110  S27   S    
O6    S9    S    
C2    O64   A    
O31   S18   D    
C55   C77   A    
C56   C65   A    
C4    C103  A    
O51   S25   D    
O62   Zn12  S    
C25   C37   T    
C47   C60   A    
C71   C85   A    
C61   C66   S    
C24   C38   T    
C17   O2    A    
C100  S16   S    
C101  S17   S    
O2    Zn3   S    
C43   C74   A    
C103  S19   S    
C7    C84   A    
C39   C59   S    
O55   S26   S    
O74   Zn16  S    
O105  Zn7   S    
H8    O3    S    
O61   Zn3   S    
C3    S21   S    
C73   C86   A    
C71   C98   A    
O118  S30   D    
O42   S21   S    
O139  S5    D    
O114  S29   D    
O141  S6    D    
C44   C62   A    
O46   Zn14  S    
O107  S23   S    
O88   Zn1   S    
C44   C75   A    
O73   Zn4   S    
C13   O95   A    
C55   C64   A    
H14   O19   S    
C52   C82   A    
C53   C66   A    
C79   C92   A    
O129  S2    D    
O104  S23   D    
C54   C76   A    
C94   O91   A    
C7    C104  A    
O38   S20   D    
O23   S16   D    
C98   S14   S    
O108  S27   D    
O61   Zn7   S    
O26   S16   S    
O53   S26   D    
C2    C36   S    
C73   C99   A    
C30   C33   T    
O60   Zn13  S    
O72   Zn2   S    
O89   Zn10  S    
O133  S3    S    
O79   Zn6   S    
O134  S4    D    
O7    S10   D    
C78   C91   A    
O136  S4    S    
O72   Zn6   S    
O39   S20   S    
C20   O77   A    
O78   Zn5   S    
C39   O127  A    
O65   Zn6   S    
H15   O22   S    
O99   S1    D    
C37   C94   S    
H13   O16   S    
O41   S21   D    
O22   S15   S    
O29   S17   S    
O27   S17   D    
C75   C88   A    
C21   O78   A    
C15   O84   A    
C18   O81   A    
