data_mof_unit_5467.cif
_audit_creation_date              2013-03-05T16:43:42-0500
_audit_creation_method            fapswitch 2.2
_symmetry_space_group_name_H-M    P1
_symmetry_Int_Tables_number       1
_space_group_crystal_system       triclinic
_cell_length_a                    15.743332
_cell_length_b                    10.670555
_cell_length_c                    9.862903
_cell_angle_alpha                 89.958337
_cell_angle_beta                  90.059862
_cell_angle_gamma                 90.176074
_cell_volume                      1656.8608005

loop_
_atom_site_label
_atom_site_type_symbol
_atom_site_description
_atom_site_fract_x
_atom_site_fract_y
_atom_site_fract_z
_atom_type_partial_charge
O1    O     O_R   0.500010 0.316790 0.614690 -0.588413
O2    O     O_R   0.500000 0.316760 0.385350 -0.567875
C1    C     C_R   0.503534 0.260194 0.500110 0.988806
O3    O     O_R   0.376780 0.500010 0.614650 -0.614722
O4    O     O_R   0.376770 0.499970 0.385310 -0.618440
C2    C     C_R   0.337989 0.499695 0.499931 0.949268
Zn1   Zn    Zn3+2 0.500010 0.500020 0.653130 1.027051
Zn2   Zn    Zn3+2 0.499990 0.499980 0.346870 1.076369
O5    O     O_R   0.500000 0.683240 0.614650 -0.628453
O6    O     O_R   0.499990 0.683210 0.385310 -0.602775
O7    O     O_R   0.623230 0.500030 0.614690 -0.626054
O8    O     O_R   0.623220 0.499990 0.385350 -0.573191
C3    C     C_R   0.504128 0.739766 0.500055 0.995012
C4    C     C_R   0.662013 0.499967 0.500069 0.917016
C5    C     C_3   0.972776 0.422739 0.600287 0.327106
C6    C     C_3   0.028873 0.373669 0.483790 -0.311380
H1    H     H_    0.052517 0.276501 0.470873 0.233117
C7    C     C_1   0.249267 0.497435 0.499891 -0.074393
C8    C     C_1   0.750716 0.498196 0.500121 -0.026943
C9    C     C_3   0.028885 0.539723 0.619863 -0.234123
C10   C     C_3   0.083481 0.492941 0.500641 -0.061636
C11   C     C_3   0.972303 0.612201 0.516614 -0.291877
C12   C     C_3   0.916596 0.493751 0.499900 -0.125634
C13   C     C_3   0.028530 0.564756 0.399031 0.688741
C14   C     C_3   0.972862 0.448048 0.383840 0.192043
C15   C     C_1   0.174119 0.495186 0.500122 0.129065
C16   C     C_1   0.825855 0.496137 0.500035 0.162750
H2    H     H_    0.948418 0.709332 0.528681 0.222462
H3    H     H_    0.053378 0.575478 0.718139 0.220182
C17   C     C_R   0.491567 0.063444 0.617190 -0.103307
C18   C     C_R   0.517012 0.128842 0.502474 -0.221451
C19   C     C_R   0.559900 0.066125 0.396710 0.228021
C20   C     C_R   0.561155 0.934756 0.397394 0.217423
C21   C     C_R   0.518092 0.871179 0.502772 -0.163997
C22   C     C_R   0.491392 0.936216 0.616767 -0.185373
C23   C     C_3   0.411057 0.927291 0.697298 0.414375
C24   C     C_3   0.411341 0.069510 0.698058 1.089277
H4    H     H_    0.420071 0.883319 0.798484 0.103153
C25   C     C_R   0.447495 0.420917 0.071241 0.207443
N1    N     N_R   0.499430 0.499140 0.142800 -0.166177
C26   C     C_R   0.557445 0.568847 0.071989 -0.040356
H5    H     H_    0.602804 0.626152 0.126285 0.218984
C27   C     C_R   0.557344 0.569092 0.928016 -0.080922
H6    H     H_    0.602391 0.627074 0.873723 0.176568
N2    N     N_R   0.499430 0.499180 0.857150 -0.128297
C28   C     C_R   0.447365 0.421133 0.928629 0.218082
C29   C     C_3   0.352713 0.419314 0.922546 -0.501770
C30   C     C_3   0.352892 0.419060 0.076433 0.451478
H7    H     H_    0.325997 0.506752 0.878652 0.180538
H8    H     H_    0.327789 0.331227 0.877220 0.295520
H9    H     H_    0.324672 0.504196 0.122861 0.105400
F1    F     F_    0.344199 0.123050 0.628200 -0.612375
F2    F     F_    0.423900 0.120079 0.825692 -0.647862
F3    F     F_    0.322745 0.307554 0.129941 -0.556278
N3    N     N_R   0.943346 0.344737 0.712239 0.250036
O9    O     O_R   0.998345 0.290397 0.791021 -0.274231
O10   O     O_R   0.862611 0.328922 0.734359 -0.323904
N4    N     N_R   0.943950 0.399634 0.253529 0.258588
O11   O     O_R   0.999278 0.365483 0.163111 -0.255238
O12   O     O_R   0.863308 0.389817 0.226804 -0.296031
F4    F     F_    0.059227 0.636973 0.293316 -0.586557
N5    N     N_R   0.603325 0.134550 0.292427 0.248237
O13   O     O_R   0.668128 0.204823 0.323547 -0.338009
O14   O     O_R   0.570645 0.141796 0.171491 -0.264368
N6    N     N_R   0.607450 0.867402 0.295566 0.224458
O15   O     O_R   0.592538 0.886469 0.167491 -0.320258
O16   O     O_R   0.664851 0.786270 0.331124 -0.398950
F5    F     F_    0.344606 0.877166 0.622495 -0.604941

loop_
_geom_bond_atom_site_label_1
_geom_bond_atom_site_label_2
_geom_bond_distance
_ccdc_geom_bond_type
O4    Zn2   1.976983 S    
C1    C18   1.418383 S    
C27   H6    1.081712 S    
C23   F5    1.385773 S    
C6    C10   1.542652 S    
C21   C22   1.387922 A    
C12   C16   1.428876 S    
C26   C27   1.419994 A    
C26   H5    1.080560 S    
C5    C9    1.539167 S    
C18   C19   1.413205 A    
C7    C15   1.183245 T    
Zn2   O8    1.976437 S    
C24   F2    1.383747 S    
C19   C20   1.401990 A    
N5    O13   1.300884 A    
C23   H4    1.111621 S    
O2    C1    1.283601 A    
C20   N6    1.436044 S    
C3    C21   1.418980 S    
C29   H7    1.111886 S    
C11   H2    1.110164 S    
N2    C28   1.363304 A    
C13   C14   1.527965 S    
C30   F3    1.384054 S    
C27   N2    1.368059 A    
C13   F4    1.382779 S    
C17   C22   1.357589 A    
C25   C28   1.406570 A    
O1    Zn1   1.991856 S    
O4    C2    1.285394 A    
Zn1   N2    2.012273 S    
C6    H1    1.110171 S    
C5    C12   1.529026 S    
C23   C24   1.517575 S    
C10   C15   1.427084 S    
C9    C11   1.558780 S    
C20   C21   1.413391 A    
C29   H8    1.111429 S    
O1    C1    1.283052 A    
C9    H3    1.110236 S    
N3    O10   1.300311 A    
C17   C18   1.387686 A    
C2    C7    1.396915 S    
O7    C4    1.285407 A    
C11   C13   1.546146 S    
N3    O9    1.300274 A    
O3    C2    1.285191 A    
Zn2   N1    2.012759 S    
C14   N4    1.457469 S    
N4    O12   1.300306 A    
C5    C6    1.542774 S    
C29   C30   1.517773 S    
C25   N1    1.363380 A    
C12   C14   1.529180 S    
C8    C16   1.183219 T    
C9    C10   1.541514 S    
Zn2   O6    1.991856 S    
N6    O15   1.300559 A    
C10   C13   1.530082 S    
C6    C14   1.542930 S    
Zn1   O5    1.991286 S    
C24   F1    1.385662 S    
O5    C3    1.282334 A    
C11   C12   1.544998 S    
N1    C26   1.368079 A    
Zn1   O7    1.976981 S    
N5    O14   1.300860 A    
C19   N5    1.433761 S    
O3    Zn1   1.976435 S    
N4    O11   1.300320 A    
C28   C29   1.491348 S    
C4    C8    1.396663 S    
C30   H9    1.111691 S    
O2    Zn2   1.991284 S    
C22   C23   1.496918 S    
C17   C24   1.496085 S    
O8    C4    1.285202 A    
C25   C30   1.490372 S    
N6    O16   1.301083 A    
O6    C3    1.284457 A    
C5    N3    1.457392 S    
