data_mof_unit_28793.cif
_audit_creation_date              2012-12-11T15:35:35-0500
_audit_creation_method            fapswitch 2.2
_symmetry_space_group_name_H-M    P1
_symmetry_Int_Tables_number       1
_space_group_crystal_system       triclinic
_cell_length_a                    17.337932
_cell_length_b                    24.365328
_cell_length_c                    14.847057
_cell_angle_alpha                 90.659802
_cell_angle_beta                  125.150445
_cell_angle_gamma                 89.01578
_cell_volume                      5127.53692666

loop_
_atom_site_label
_atom_site_type_symbol
_atom_type_description
_atom_site_fract_x
_atom_site_fract_y
_atom_site_fract_z
_atom_type_partial_charge
C1    C     C_R   0.349782 0.151685 0.907398 -0.137217
C2    C     C_R   0.593293 0.128431 0.906943 -0.214226
C3    C     C_R   0.251923 0.545144 0.307295 -0.146497
C4    C     C_3   0.835099 0.118574 0.980507 -0.381092
C5    C     C_3   0.886471 0.088108 0.090107 -0.896594
C6    C     C_3   0.700176 0.852104 0.791821 -0.379879
C7    C     C_3   0.615063 0.822694 0.693880 -0.942257
C8    C     C_3   0.335128 0.618573 0.980547 -0.381071
C9    C     C_3   0.386471 0.588106 0.090146 -0.896598
C10   C     C_3   0.200173 0.352103 0.791819 -0.379878
C11   C     C_3   0.115059 0.322692 0.693879 -0.942255
C12   C     C_3   0.729607 0.167266 0.196167 -0.369462
C13   C     C_R   0.097569 0.374235 0.908101 -0.204445
C14   C     C_3   0.836589 0.159242 0.265385 -0.935210
C15   C     C_3   0.725921 0.831528 0.191587 -0.397612
C16   C     C_3   0.704198 0.770929 0.160183 -0.881921
C17   C     C_3   0.229605 0.667267 0.196165 -0.369447
C18   C     C_3   0.336587 0.659245 0.265387 -0.935212
C19   C     C_3   0.225922 0.331529 0.191587 -0.397613
C20   C     C_3   0.204200 0.270929 0.160183 -0.881921
C21   C     C_R   0.093296 0.628429 0.906944 -0.214230
C22   C     C_R   0.434966 0.000111 0.631821 0.043448
C23   C     C_R   0.934966 0.500111 0.631821 0.043448
C24   C     C_R   0.799038 0.999768 0.370091 -0.007645
C25   C     C_R   0.299039 0.499768 0.370090 -0.007643
C26   C     C_R   0.676694 0.146443 0.998229 0.018565
C27   C     C_R   0.686453 0.859109 0.999005 0.040714
C28   C     C_R   0.176698 0.646439 0.998231 0.018576
C29   C     C_R   0.347785 0.849885 0.906349 -0.143934
C30   C     C_R   0.186453 0.359109 0.999005 0.040714
C31   C     C_3   0.022250 0.951520 0.645466 -0.398124
C32   C     C_3   0.022202 0.054298 0.636689 -0.396560
C33   C     C_3   0.522251 0.451520 0.645465 -0.398122
C34   C     C_3   0.522202 0.554298 0.636690 -0.396559
C35   C     C_3   0.917251 0.951673 0.548041 -0.402952
C36   C     C_3   0.918597 0.054473 0.536665 -0.415365
C37   C     C_3   0.417251 0.451672 0.548039 -0.402954
C38   C     C_3   0.418596 0.554473 0.536666 -0.415364
C39   C     C_3   0.063655 0.997280 0.526142 -0.391456
C40   C     C_R   0.849782 0.651685 0.907398 -0.137218
C41   C     C_3   0.563655 0.497281 0.526142 -0.391457
C42   C     C_3   0.072619 0.001114 0.636115 0.392051
C43   C     C_3   0.572619 0.501114 0.636116 0.392051
C44   C     C_3   0.896212 0.000272 0.469888 0.400471
C45   C     C_3   0.396212 0.500272 0.469887 0.400472
C46   C     C_R   0.440974 0.848358 0.090444 -0.149931
C47   C     C_R   0.443027 0.153027 0.090805 -0.156842
C48   C     C_R   0.940976 0.348357 0.090444 -0.149934
C49   C     C_R   0.943027 0.653027 0.090805 -0.156842
C50   C     C_3   0.960534 0.995248 0.429178 -0.389503
C51   C     C_R   0.847787 0.349884 0.906349 -0.143929
C52   C     C_3   0.460534 0.495250 0.429178 -0.389504
C53   C     C_R   0.358202 0.720557 0.992414 -0.278573
C54   C     C_R   0.297004 0.269968 0.898087 -0.224460
C55   C     C_R   0.858192 0.220557 0.992395 -0.278560
C56   C     C_R   0.797005 0.769969 0.898087 -0.224461
C57   C     C_R   0.807173 0.176500 0.989810 0.222540
C58   C     C_R   0.750782 0.817895 0.895842 0.235530
C59   C     C_R   0.307187 0.676499 0.989831 0.222529
C60   C     C_R   0.250781 0.317895 0.895841 0.235529
C61   C     C_R   0.728513 0.188393 0.992105 0.112695
C62   C     C_R   0.680083 0.133937 0.091417 0.228056
C63   C     C_R   0.763751 0.834877 0.995464 0.040181
C64   C     C_R   0.228517 0.688390 0.992108 0.112715
C65   C     C_R   0.263751 0.334877 0.995463 0.040182
C66   C     C_R   0.697821 0.241811 0.990318 -0.243071
C67   C     C_R   0.847291 0.818507 0.094437 -0.192890
C68   C     C_R   0.197815 0.741808 0.990304 -0.243083
C69   C     C_R   0.347291 0.318508 0.094436 -0.192890
C70   C     C_R   0.248736 0.784641 0.993198 -0.173791
C71   C     C_R   0.392980 0.270845 0.096624 -0.190007
C72   C     C_R   0.748745 0.284643 0.993213 -0.173789
C73   C     C_R   0.683812 0.868028 0.091617 0.218174
C74   C     C_R   0.892980 0.770845 0.096624 -0.190006
C75   C     C_R   0.328890 0.773600 0.995961 0.118381
C76   C     C_R   0.359139 0.242713 0.997989 0.095101
C77   C     C_R   0.828892 0.273599 0.995961 0.118375
C78   C     C_R   0.859139 0.742713 0.997989 0.095100
C79   C     C_R   0.390365 0.951045 0.461445 -0.178100
C80   C     C_R   0.390367 0.050463 0.463800 -0.177089
C81   C     C_R   0.890365 0.451045 0.461445 -0.178100
C82   C     C_R   0.890367 0.550463 0.463800 -0.177086
C83   C     C_R   0.390202 0.951357 0.368163 -0.172445
C84   C     C_R   0.180085 0.633935 0.091418 0.228049
C85   C     C_R   0.390798 0.050704 0.370932 -0.171528
C86   C     C_R   0.890202 0.451357 0.368163 -0.172446
C87   C     C_R   0.890798 0.550704 0.370932 -0.171530
C88   C     C_R   0.402012 0.001069 0.330995 0.143797
C89   C     C_R   0.902012 0.501069 0.330995 0.143798
C90   C     C_R   0.478270 0.046293 0.247246 -0.127741
C91   C     C_R   0.479007 0.954793 0.247444 -0.126103
C92   C     C_R   0.978270 0.546293 0.247246 -0.127739
C93   C     C_R   0.979006 0.454793 0.247444 -0.126103
C94   C     C_R   0.400325 0.000542 0.515943 0.144384
C95   C     C_R   0.183812 0.368029 0.091617 0.218174
C96   C     C_R   0.900325 0.500542 0.515943 0.144383
C97   C     C_R   0.231017 0.954457 0.750814 -0.137917
C98   C     C_R   0.230795 0.046868 0.750477 -0.134724
C99   C     C_R   0.731017 0.454457 0.750815 -0.137918
C100  C     C_R   0.730796 0.546868 0.750478 -0.134724
C101  C     C_R   0.381286 0.184482 0.998830 0.072410
C102  C     C_R   0.377804 0.819207 0.997563 0.058987
C103  C     C_R   0.881286 0.684482 0.998830 0.072410
C104  C     C_R   0.877808 0.319206 0.997563 0.058986
C105  C     C_R   0.446523 0.000851 0.272237 0.038258
C106  C     C_R   0.597569 0.874235 0.908101 -0.204444
C107  C     C_R   0.946523 0.500851 0.272237 0.038258
C108  C     C_R   0.174453 0.001075 0.723758 -0.008450
C109  C     C_R   0.674453 0.501075 0.723759 -0.008450
C110  C     C_R   0.451233 0.045480 0.696553 -0.135598
C111  C     C_R   0.450760 0.954624 0.695460 -0.145493
C112  C     C_R   0.951233 0.545480 0.696553 -0.135597
C113  C     C_R   0.950760 0.454624 0.695460 -0.145493
C114  C     C_R   0.754725 0.954346 0.305963 -0.153869
C115  C     C_R   0.751922 0.045144 0.307296 -0.146493
C116  C     C_R   0.254725 0.454346 0.305963 -0.153870
H1    H     H_    0.311426 0.164932 0.822739 0.082626
H2    H     H_    0.871328 0.059448 0.564333 0.154378
H3    H     H_    0.731917 0.746214 0.235585 0.242005
H4    H     H_    0.802408 0.838007 0.252245 0.169265
H5    H     H_    0.691433 0.841977 0.233611 0.187404
H6    H     H_    0.356393 0.615125 0.278080 0.255791
H7    H     H_    0.366193 0.678574 0.224355 0.275201
H8    H     H_    0.368457 0.679076 0.347020 0.248146
H9    H     H_    0.213399 0.711454 0.175535 0.188874
H10   H     H_    0.200427 0.658222 0.243762 0.167470
H11   H     H_    0.126680 0.265113 0.103794 0.255659
H12   H     H_    0.237122 0.255245 0.119351 0.270379
H13   H     H_    0.372251 0.455268 0.579025 0.156700
H14   H     H_    0.231918 0.246214 0.235586 0.242005
H15   H     H_    0.302408 0.338007 0.252244 0.169266
H16   H     H_    0.191434 0.341977 0.233611 0.187404
H17   H     H_    0.371327 0.559447 0.564334 0.154378
H18   H     H_    0.901728 0.911698 0.504460 0.145194
H19   H     H_    0.907516 0.090589 0.485223 0.158292
H20   H     H_    0.401729 0.411698 0.504457 0.145194
H21   H     H_    0.407515 0.590589 0.485225 0.158290
H22   H     H_    0.100649 0.959857 0.524502 0.154377
H23   H     H_    0.097123 0.033386 0.516916 0.159082
H24   H     H_    0.600650 0.459858 0.524502 0.154377
H25   H     H_    0.303796 0.836520 0.821421 0.093634
H26   H     H_    0.597124 0.533387 0.516917 0.159082
H27   H     H_    0.947366 0.955900 0.383746 0.153273
H28   H     H_    0.945261 0.029118 0.371126 0.157606
H29   H     H_    0.447366 0.455902 0.383745 0.153273
H30   H     H_    0.445262 0.529120 0.371127 0.157607
H31   H     H_    0.419842 0.713946 0.991667 0.128645
H32   H     H_    0.282197 0.253631 0.821744 0.124014
H33   H     H_    0.919825 0.213943 0.991635 0.128646
H34   H     H_    0.782198 0.753632 0.821744 0.124014
H35   H     H_    0.635529 0.250094 0.989065 0.131408
H36   H     H_    0.811426 0.664933 0.822739 0.082626
H37   H     H_    0.871361 0.838403 0.171300 0.128020
H38   H     H_    0.135518 0.750089 0.989041 0.131411
H39   H     H_    0.371361 0.338404 0.171299 0.128020
H40   H     H_    0.226175 0.826382 0.993694 0.129192
H41   H     H_    0.448654 0.254263 0.175779 0.116019
H42   H     H_    0.726193 0.326385 0.993722 0.129192
H43   H     H_    0.948653 0.754262 0.175780 0.116019
H44   H     H_    0.392009 0.911783 0.495667 0.107731
H45   H     H_    0.391752 0.089583 0.499633 0.105617
H46   H     H_    0.892009 0.411783 0.495667 0.107731
H47   H     H_    0.803798 0.336520 0.821421 0.093633
H48   H     H_    0.891751 0.589583 0.499633 0.105616
H49   H     H_    0.481929 0.833785 0.174545 0.099378
H50   H     H_    0.490219 0.167415 0.174556 0.083248
H51   H     H_    0.981931 0.333784 0.174545 0.099379
H52   H     H_    0.990219 0.667415 0.174556 0.083248
H53   H     H_    0.391484 0.912281 0.333852 0.109130
H54   H     H_    0.392981 0.089884 0.339097 0.108163
H55   H     H_    0.891484 0.412281 0.333852 0.109130
H56   H     H_    0.892980 0.589884 0.339097 0.108163
H57   H     H_    0.467424 0.089070 0.256918 0.094500
H58   H     H_    0.029020 0.953545 0.724642 0.155506
H59   H     H_    0.469558 0.912321 0.257853 0.092661
H60   H     H_    0.967424 0.589070 0.256918 0.094499
H61   H     H_    0.969558 0.412321 0.257852 0.092661
H62   H     H_    0.209420 0.912244 0.733904 0.089756
H63   H     H_    0.209563 0.089476 0.734796 0.092420
H64   H     H_    0.709420 0.412244 0.733905 0.089756
H65   H     H_    0.709563 0.589476 0.734796 0.092420
H66   H     H_    0.433308 0.087684 0.670171 0.083466
H67   H     H_    0.432443 0.912702 0.667417 0.091257
H68   H     H_    0.933308 0.587684 0.670171 0.083466
H69   H     H_    0.026307 0.056972 0.714212 0.157948
H70   H     H_    0.932443 0.412702 0.667417 0.091257
H71   H     H_    0.768954 0.912739 0.334597 0.082829
H72   H     H_    0.759712 0.085926 0.338904 0.114475
H73   H     H_    0.268954 0.412739 0.334597 0.082829
H74   H     H_    0.259714 0.585926 0.338903 0.114478
H75   H     H_    0.568372 0.869954 0.822450 0.147963
H76   H     H_    0.564355 0.136310 0.821473 0.120154
H77   H     H_    0.068371 0.369954 0.822450 0.147964
H78   H     H_    0.064359 0.636307 0.821474 0.120158
H79   H     H_    0.054185 0.911963 0.643863 0.147238
H80   H     H_    0.529020 0.453544 0.724641 0.155506
H81   H     H_    0.055410 0.091603 0.631714 0.147752
H82   H     H_    0.554185 0.411963 0.643862 0.147237
H83   H     H_    0.555410 0.591603 0.631715 0.147751
H84   H     H_    0.946186 0.112764 0.156234 0.259438
H85   H     H_    0.837435 0.078980 0.112955 0.266298
H86   H     H_    0.914834 0.048469 0.082471 0.249660
H87   H     H_    0.771529 0.095411 0.916978 0.190115
H88   H     H_    0.882469 0.119421 0.952694 0.186678
H89   H     H_    0.638895 0.790046 0.662008 0.254771
H90   H     H_    0.571464 0.803490 0.717376 0.256777
H91   H     H_    0.526307 0.556971 0.714213 0.157947
H92   H     H_    0.570656 0.852578 0.626554 0.255855
H93   H     H_    0.679624 0.893148 0.805033 0.186843
H94   H     H_    0.750559 0.860658 0.770368 0.188967
H95   H     H_    0.446154 0.612771 0.156298 0.259439
H96   H     H_    0.337406 0.578959 0.112940 0.266293
H97   H     H_    0.414878 0.548478 0.082539 0.249657
H98   H     H_    0.271567 0.595409 0.917000 0.190106
H99   H     H_    0.382523 0.619420 0.952769 0.186677
H100  H     H_    0.138891 0.290043 0.662008 0.254771
H101  H     H_    0.071462 0.303489 0.717379 0.256776
H102  H     H_    0.872251 0.955270 0.579028 0.156700
H103  H     H_    0.070652 0.352575 0.626553 0.255854
H104  H     H_    0.179623 0.393147 0.805030 0.186842
H105  H     H_    0.250555 0.360656 0.770363 0.188967
H106  H     H_    0.856393 0.115122 0.278082 0.255783
H107  H     H_    0.866193 0.178566 0.224346 0.275207
H108  H     H_    0.868463 0.179076 0.347016 0.248149
H109  H     H_    0.713404 0.211454 0.175542 0.188875
H110  H     H_    0.700430 0.158221 0.243765 0.167472
H111  H     H_    0.626679 0.765113 0.103793 0.255658
H112  H     H_    0.737122 0.755245 0.119352 0.270379
N1    N     N_R   0.392140 0.102630 0.941800 -0.035073
N2    N     N_R   0.525160 0.972040 0.206160 -0.038115
N3    N     N_R   0.025160 0.527960 0.206160 -0.038663
N4    N     N_R   0.025160 0.472040 0.206160 -0.038115
N5    N     N_R   0.317870 0.971120 0.792790 -0.034964
N6    N     N_R   0.317870 0.028880 0.792790 -0.035279
N7    N     N_R   0.817870 0.471120 0.792790 -0.034964
N8    N     N_R   0.817870 0.528880 0.792790 -0.035279
N9    N     N_R   0.473480 0.027920 0.793480 -0.034158
N10   N     N_R   0.473480 0.972080 0.793480 -0.037228
N11   N     N_R   0.973480 0.527920 0.793480 -0.034158
N12   N     N_R   0.392140 0.897370 0.941800 -0.034971
N13   N     N_R   0.973480 0.472080 0.793480 -0.037228
N14   N     N_R   0.681610 0.971120 0.207570 -0.040889
N15   N     N_R   0.681610 0.028880 0.207570 -0.036081
N16   N     N_R   0.181610 0.471120 0.207570 -0.040890
N17   N     N_R   0.181610 0.528880 0.207570 -0.036083
N18   N     N_R   0.605410 0.102620 0.056870 -0.072017
N19   N     N_R   0.605410 0.897380 0.056870 -0.065080
N20   N     N_R   0.105410 0.602620 0.056870 -0.072020
N21   N     N_R   0.105410 0.397380 0.056870 -0.065080
N22   N     N_R   0.549680 0.896430 0.944180 -0.049619
N23   N     N_R   0.892140 0.602630 0.941800 -0.035073
N24   N     N_R   0.549680 0.103570 0.944180 -0.049009
N25   N     N_R   0.049680 0.396430 0.944180 -0.049619
N26   N     N_R   0.049680 0.603570 0.944180 -0.049011
N27   N     N_R   0.892140 0.397370 0.941800 -0.034972
N28   N     N_R   0.450890 0.896450 0.057150 -0.038787
N29   N     N_R   0.450890 0.103550 0.057150 -0.038558
N30   N     N_R   0.950890 0.396450 0.057150 -0.038787
N31   N     N_R   0.950890 0.603550 0.057150 -0.038557
N32   N     N_R   0.525160 0.027960 0.206160 -0.038663
Ni1   Ni    Ni4+2 0.433410 0.064680 0.868830 0.204360
Ni2   Ni    Ni4+2 0.433410 0.935320 0.868830 0.205632
Ni3   Ni    Ni4+2 0.933410 0.564680 0.868830 0.204359
Ni4   Ni    Ni4+2 0.933410 0.435320 0.868830 0.205631
Ni5   Ni    Ni4+2 0.565650 0.934380 0.131170 0.200010
Ni6   Ni    Ni4+2 0.565650 0.065620 0.131170 0.196057
Ni7   Ni    Ni4+2 0.065650 0.434380 0.131170 0.200009
Ni8   Ni    Ni4+2 0.065650 0.565620 0.131170 0.196055

loop_
_geom_bond_atom_site_label_1
_geom_bond_atom_site_label_2
_ccdc_geom_bond_type
C99   H64   S    
C79   C83   A    
N28   Ni5   S    
C116  N16   A    
C16   H111  S    
N21   N25   A    
C52   H29   S    
C47   C101  A    
C46   H49   S    
C1    C101  A    
C28   C84   A    
C22   C94   S    
C81   H46   S    
C6    C58   S    
C19   C20   S    
N15   Ni6   S    
C17   C84   S    
C7    H89   S    
C8    H99   S    
C51   N27   A    
C95   N21   A    
C80   C85   A    
N16   N17   A    
C53   C59   A    
C110  N9    A    
C10   H104  S    
C36   H19   S    
C112  H68   S    
C6    H93   S    
N18   N24   A    
C92   H60   S    
C24   C114  A    
C23   C112  A    
C46   C102  A    
C90   H57   S    
C48   N30   A    
C59   C64   A    
C69   H39   S    
C32   H69   S    
N10   Ni2   S    
C70   H40   S    
C64   C68   A    
C14   H108  S    
C99   N7    A    
C31   C42   S    
C26   C61   S    
C2    H76   S    
C20   H12   S    
C68   H38   S    
C17   H9    S    
C8    C59   S    
C5    H85   S    
C71   C76   A    
C55   C77   A    
N20   N26   A    
C17   H10   S    
C4    H88   S    
N20   Ni8   S    
C87   H56   S    
C9    H96   S    
C82   C87   A    
C99   C109  A    
C83   H53   S    
C53   H31   S    
C56   C78   A    
C23   C96   S    
C40   H36   S    
N14   Ni5   S    
C69   C71   A    
C91   C105  A    
N22   Ni2   S    
C38   C45   S    
N31   Ni8   S    
C10   H105  S    
N23   N31   A    
C21   N26   A    
C97   C108  A    
C61   C66   A    
N6    Ni1   S    
C66   C72   A    
C76   C101  S    
C33   H80   S    
C37   H13   S    
C8    C9    S    
C22   C110  A    
N13   Ni4   S    
N23   Ni3   S    
C4    C57   S    
C29   C102  A    
C75   C102  S    
N7    N8    A    
C51   H47   S    
C6    H94   S    
C21   H78   S    
C5    H84   S    
C36   H2    S    
N5    N6    A    
C11   H101  S    
C41   C52   S    
C81   C86   A    
N1    N29   A    
C18   H7    S    
C83   C88   A    
C26   C62   A    
C39   H22   S    
C90   N32   A    
C100  C109  A    
C13   H77   S    
N3    Ni8   S    
N3    N4    A    
C41   C43   S    
N11   Ni3   S    
C53   C75   A    
C106  H75   S    
C7    H90   S    
N30   Ni7   S    
C34   H83   S    
C35   H18   S    
C46   N28   A    
C11   H103  S    
C50   H28   S    
C55   H33   S    
C39   C42   S    
C39   H23   S    
N2    Ni5   S    
C19   H15   S    
C29   H25   S    
C71   H41   S    
C63   C67   A    
N12   N28   A    
C111  N10   A    
C82   C96   A    
C34   C43   S    
C91   N2    A    
N9    Ni1   S    
C86   H55   S    
C33   C43   S    
C13   C30   A    
C3    C25   A    
C79   C94   A    
C2    C26   A    
C49   H52   S    
C10   C11   S    
C3    H74   S    
N12   Ni2   S    
C79   H44   S    
C81   C96   A    
C93   H61   S    
C4    C5    S    
C4    H87   S    
C54   C60   A    
C45   C52   S    
C9    H97   S    
C51   C104  A    
C80   C94   A    
C33   C37   S    
C114  H71   S    
C10   C60   S    
C41   H24   S    
C49   C103  A    
C30   C95   A    
C35   C44   S    
C16   H3    S    
C2    N24   A    
C23   C113  A    
C12   C62   S    
C15   H4    S    
C14   H107  S    
C92   C107  A    
C12   H110  S    
C98   N6    A    
C112  N11   A    
C97   N5    A    
C89   C107  S    
C111  H67   S    
C17   C18   S    
C37   H20   S    
C91   H59   S    
N11   N13   A    
C67   C74   A    
C1    H1    S    
C57   C61   A    
C100  H65   S    
C27   C63   S    
N24   Ni1   S    
C20   H11   S    
C54   C76   A    
C74   H43   S    
N25   Ni4   S    
C15   C73   S    
C21   C28   A    
N2    N32   A    
N26   Ni3   S    
C113  N13   A    
C55   C57   A    
C24   C44   S    
N32   Ni6   S    
C31   C35   S    
C100  N8    A    
N17   Ni8   S    
C56   H34   S    
C35   H102  S    
C25   C45   S    
C5    H86   S    
C19   C95   S    
C50   H27   S    
C28   C64   S    
C116  H73   S    
C54   H32   S    
C72   H42   S    
C44   C50   S    
C19   H16   S    
C40   N23   A    
C13   N25   A    
C16   H112  S    
C52   H30   S    
C29   N12   A    
C114  N14   A    
C78   C103  S    
C34   C38   S    
C98   C108  A    
C14   H106  S    
N29   Ni6   S    
C58   C63   A    
C90   C105  A    
C20   H14   S    
C7    H92   S    
C86   C89   A    
C60   C65   A    
C72   C77   A    
C32   C36   S    
C25   C116  A    
C6    C7    S    
C73   N19   A    
N1    Ni1   S    
C34   H91   S    
C42   C108  S    
C3    N17   A    
C18   H6    S    
C11   H100  S    
C8    H98   S    
C85   H54   S    
C92   N3    A    
N4    Ni7   S    
C67   H37   S    
C84   N20   A    
N16   Ni7   S    
N21   Ni7   S    
C32   H81   S    
C12   C14   S    
C41   H26   S    
N18   Ni6   S    
C93   C107  A    
C40   C103  A    
C31   H79   S    
C115  H72   S    
C49   N31   A    
C106  N22   A    
C97   H62   S    
C115  N15   A    
C48   H51   S    
C82   H48   S    
C33   H82   S    
C9    H95   S    
N7    Ni4   S    
C65   C69   A    
C113  H70   S    
N14   N15   A    
C38   H21   S    
C56   C58   A    
C88   C105  S    
C27   C106  A    
C47   H50   S    
C85   C88   A    
C15   H5    S    
N9    N10   A    
C80   H45   S    
N27   N30   A    
C30   C65   S    
C36   C44   S    
C62   N18   A    
C24   C115  A    
N19   Ni5   S    
C1    N1    A    
C66   H35   S    
C39   C50   S    
N27   Ni4   S    
C110  H66   S    
N8    Ni3   S    
C68   C70   A    
C22   C111  A    
C74   C78   A    
C12   H109  S    
C70   C75   A    
C87   C89   A    
C32   C42   S    
C77   C104  S    
C43   C109  S    
C18   H8    S    
C98   H63   S    
C27   C73   A    
C37   C45   S    
C38   H17   S    
C47   N29   A    
C15   C16   S    
N19   N22   A    
C93   N4    A    
N5    Ni2   S    
C31   H58   S    
C48   C104  A    
