data_mof_unit_27041.cif
_audit_creation_date              2012-10-26T20:03:40-0400
_audit_creation_method            fapswitch 2.2
_symmetry_space_group_name_H-M    P1
_symmetry_Int_Tables_number       1
_space_group_crystal_system       triclinic
_cell_length_a                    12.30988
_cell_length_b                    12.942232
_cell_length_c                    15.83035
_cell_angle_alpha                 79.039008
_cell_angle_beta                  100.844603
_cell_angle_gamma                 116.57415
_cell_volume                      2199.14594967

loop_
_atom_site_label
_atom_site_type_symbol
_atom_type_description
_atom_site_fract_x
_atom_site_fract_y
_atom_site_fract_z
_atom_type_partial_charge
C1    C     C_R   0.854662 0.284912 0.512785 0.529617
C2    C     C_R   0.227457 0.837618 0.459636 0.001325
C3    C     C_R   0.805682 0.083647 0.593219 -0.005339
C4    C     C_R   0.998995 0.499543 0.659908 0.540094
C5    C     C_R   0.727042 0.964613 0.602037 -0.094604
C6    C     C_R   0.610374 0.920120 0.555734 0.007311
C7    C     C_R   0.568776 0.998909 0.499570 0.037945
C8    C     C_R   0.657331 0.113072 0.475352 -0.000767
C9    C     C_R   0.444494 0.969942 0.464450 0.028482
C10   C     C_R   0.416384 0.041929 0.393202 0.032463
C11   C     C_R   0.509500 0.143114 0.359420 -0.110075
C12   C     C_3   0.997505 0.497805 0.916931 -0.030693
C13   C     C_R   0.628068 0.179007 0.400353 -0.099195
C14   C     C_R   0.346709 0.875833 0.501362 -0.148966
C15   C     C_R   0.199557 0.909772 0.387646 0.003053
C16   C     C_R   0.144943 0.714604 0.483910 0.537539
C17   C     C_R   0.773107 0.158375 0.525759 -0.004655
C18   C     C_R   0.369710 0.367361 0.657439 -0.013028
C19   C     C_R   0.737746 0.601849 0.366042 0.020281
C20   C     C_R   0.622900 0.588964 0.325093 0.238960
C21   C     C_R   0.521942 0.535761 0.372079 0.230150
C22   C     C_R   0.541393 0.513922 0.463825 -0.064997
C23   C     C_3   0.061198 0.607677 0.020059 -0.165948
C24   C     C_R   0.663025 0.532503 0.502547 0.143050
C25   C     C_R   0.446153 0.471634 0.519121 -0.013221
C26   C     C_R   0.467538 0.424076 0.605578 0.019910
C27   C     C_R   0.589020 0.450078 0.641514 -0.148375
C28   C     C_R   0.999988 0.498656 0.340226 0.544996
C29   C     C_R   0.685739 0.525789 0.593878 0.071380
C30   C     C_R   0.335495 0.484605 0.495642 0.077905
C31   C     C_R   0.258919 0.375087 0.626434 0.047401
C32   C     C_3   0.052237 0.432196 0.045070 0.251692
C33   C     C_3   0.935929 0.387750 0.979647 -0.065734
C34   C     C_3   0.999923 0.498094 0.083276 0.058548
C35   C     C_1   0.997396 0.498728 0.749517 -0.043090
C36   C     C_1   0.001106 0.497973 0.250787 0.032241
C37   C     C_3   0.114544 0.541133 0.981196 -0.084238
C38   C     C_3   0.925229 0.130511 0.653530 -0.264525
C39   C     C_3   0.935953 0.050096 0.735962 -0.459229
C40   C     C_3   0.545631 0.788165 0.558094 -0.282310
C41   C     C_3   0.508891 0.726781 0.648002 -0.429953
C42   C     C_3   0.380818 0.303193 0.746762 -0.303774
C43   C     C_3   0.409027 0.380675 0.817050 -0.408467
C44   C     C_3   0.779776 0.628715 0.640902 -0.251706
C45   C     C_3   0.944346 0.564705 0.953980 -0.102679
C46   C     C_3   0.852230 0.739740 0.583856 -0.415214
C47   C     C_3   0.073085 0.880344 0.339003 -0.269651
C48   C     C_3   0.052689 0.813013 0.263842 -0.408767
C49   C     C_3   0.884587 0.455415 0.018285 0.238865
C50   C     C_1   0.996978 0.498192 0.825145 -0.053625
C51   C     C_1   0.000986 0.497952 0.175173 0.060453
C52   C     C_R   0.295186 0.012602 0.356592 -0.096698
Cl1   Cl    Cl    0.124490 0.344842 0.106482 -0.504106
Cl2   Cl    Cl    0.375269 0.482113 0.311738 -0.498899
Cl3   Cl    Cl    0.607070 0.629964 0.212411 -0.491551
Cl4   Cl    Cl    0.731906 0.399108 0.043585 -0.566250
Cu1   Cu    Cu3+1 0.098270 0.475420 0.519690 0.946217
Cu2   Cu    Cu3+1 0.901730 0.524580 0.480310 0.925689
H1    H     H_    0.884542 0.297639 0.962269 0.148592
H2    H     H_    0.112452 0.697606 0.037819 0.135333
H3    H     H_    0.209379 0.575732 0.964831 0.158767
H4    H     H_    0.489970 0.197142 0.303048 0.160169
H5    H     H_    0.275352 0.068436 0.301638 0.144311
H6    H     H_    0.855064 0.019094 0.771391 0.168605
H7    H     H_    0.945847 0.974937 0.720238 0.139260
H8    H     H_    0.019026 0.098852 0.779101 0.146791
H9    H     H_    0.002859 0.151901 0.617041 0.168371
H10   H     H_    0.935553 0.211403 0.675502 0.160992
H11   H     H_    0.590643 0.731305 0.693740 0.137340
H12   H     H_    0.361701 0.828558 0.562430 0.129710
H13   H     H_    0.462452 0.766865 0.675442 0.155924
H14   H     H_    0.446288 0.633760 0.643603 0.163131
H15   H     H_    0.466222 0.758795 0.507746 0.160137
H16   H     H_    0.608472 0.757324 0.540946 0.141085
H17   H     H_    0.495571 0.460310 0.808732 0.161632
H18   H     H_    0.333526 0.406488 0.814303 0.157907
H19   H     H_    0.418829 0.332310 0.881753 0.194333
H20   H     H_    0.293553 0.224634 0.756509 0.139031
H21   H     H_    0.452025 0.270720 0.753823 0.160076
H22   H     H_    0.792689 0.761183 0.528577 0.136565
H23   H     H_    0.756552 0.904022 0.644825 0.125607
H24   H     H_    0.897079 0.813759 0.623099 0.112958
H25   H     H_    0.925021 0.730906 0.559527 0.210287
H26   H     H_    0.730007 0.654139 0.678786 0.115094
H27   H     H_    0.842339 0.602766 0.690264 0.159782
H28   H     H_    0.066329 0.733077 0.287791 0.161563
H29   H     H_    0.958251 0.788725 0.230670 0.166234
H30   H     H_    0.118126 0.867513 0.216162 0.161644
H31   H     H_    0.000152 0.832647 0.381907 0.167790
H32   H     H_    0.062853 0.961834 0.312152 0.161834
H33   H     H_    0.696661 0.258436 0.371510 0.161311
H34   H     H_    0.185139 0.337009 0.666624 0.122933
H35   H     H_    0.610286 0.435049 0.710950 0.118848
H36   H     H_    0.323783 0.540391 0.438348 0.180837
H37   H     H_    0.812481 0.637893 0.327306 0.165047
H38   H     H_    0.899010 0.618630 0.915146 0.136342
N1    N     N_R   0.246280 0.438200 0.549540 -0.251936
N2    N     N_R   0.754330 0.561180 0.450980 -0.270268
O1    O     O_R   0.972510 0.318130 0.524770 -0.502095
O2    O     O_R   0.806530 0.359650 0.491510 -0.483952
O3    O     O_R   0.082970 0.479240 0.637550 -0.507260
O4    O     O_R   0.916990 0.520750 0.604290 -0.494190
O5    O     O_R   0.193470 0.640350 0.508490 -0.503755
O6    O     O_R   0.027490 0.681870 0.475230 -0.527069
O7    O     O_R   0.083010 0.479250 0.395710 -0.464701
O8    O     O_R   0.917030 0.520760 0.362450 -0.516182

loop_
_geom_bond_atom_site_label_1
_geom_bond_atom_site_label_2
_ccdc_geom_bond_type
Cu1   O7    S    
C8    C13   A    
C23   C45   S    
C27   C29   A    
C47   H31   S    
C19   C20   A    
Cu2   N2    S    
C15   C47   S    
C11   H4    S    
C10   C52   A    
C1    O1    A    
C7    C8    A    
C39   H6    S    
C30   N1    A    
C26   C27   A    
C24   N2    A    
C18   C42   S    
C21   Cl2   S    
C33   C49   S    
Cu1   O1    S    
C43   H18   S    
C40   H15   S    
C12   C37   S    
C24   C29   A    
C46   H24   S    
C18   C26   A    
C16   O6    A    
C3    C38   S    
C28   O8    A    
C22   C25   A    
C4    O4    A    
C48   H30   S    
Cu2   O4    S    
C2    C16   S    
C9    C10   A    
C41   H13   S    
C4    C35   S    
C42   H21   S    
C33   H1    S    
C21   C22   A    
C13   H33   S    
C39   H7    S    
C14   H12   S    
C20   Cl3   S    
C1    O2    A    
C19   N2    A    
C44   C46   S    
C43   H17   S    
C23   H2    S    
Cu1   O5    S    
C6    C40   S    
Cu2   O2    S    
C3    C5    A    
C25   C26   A    
C32   C37   S    
Cu2   O8    S    
C32   C34   S    
C9    C14   A    
C5    H23   S    
C16   O5    A    
C37   H3    S    
C47   C48   S    
C45   C49   S    
C28   O7    A    
C23   C34   S    
Cu1   N1    S    
C4    O3    A    
C35   C50   T    
C34   C51   S    
C48   H29   S    
C15   C52   A    
C38   H9    S    
C2    C15   A    
C36   C51   T    
C41   H14   S    
C40   C41   S    
C38   H10   S    
C42   H20   S    
C29   C44   S    
C39   H8    S    
C48   H28   S    
C27   H35   S    
Cu2   O6    S    
C42   C43   S    
C44   H27   S    
C32   Cl1   S    
C19   H37   S    
C41   H11   S    
C25   C30   A    
C7    C9    A    
C34   C49   S    
C38   C39   S    
C12   C45   S    
C44   H26   S    
C52   H5    S    
C12   C50   S    
C6    C7    A    
C43   H19   S    
C49   Cl4   S    
Cu1   O3    S    
C1    C17   S    
C8    C17   A    
C32   C33   S    
C30   H36   S    
C23   C37   S    
C46   H22   S    
C11   C13   A    
Cu1   Cu2   S    
C5    C6    A    
C47   H32   S    
C40   H16   S    
C3    C17   A    
C22   C24   A    
C31   N1    A    
C2    C14   A    
C10   C11   A    
C46   H25   S    
C20   C21   A    
C28   C36   S    
C31   H34   S    
C18   C31   A    
C12   C33   S    
C45   H38   S    
