data_mof_unit_62080.cif
_audit_creation_date              2013-03-05T16:08:25-0500
_audit_creation_method            fapswitch 2.2
_symmetry_space_group_name_H-M    P1
_symmetry_Int_Tables_number       1
_space_group_crystal_system       triclinic
_cell_length_a                    23.661045
_cell_length_b                    14.430892
_cell_length_c                    13.12938
_cell_angle_alpha                 90.040742
_cell_angle_beta                  90.089766
_cell_angle_gamma                 89.99988
_cell_volume                      4483.0199687

loop_
_atom_site_label
_atom_site_type_symbol
_atom_site_description
_atom_site_fract_x
_atom_site_fract_y
_atom_site_fract_z
_atom_type_partial_charge
O1    O     O_R   0.500000 0.376050 0.578280 -0.547682
O2    O     O_R   0.500000 0.623950 0.421720 -0.547682
O3    O     O_R   0.500000 0.623950 0.578280 -0.558640
O4    O     O_R   0.500000 0.376050 0.421720 -0.558640
C1    C     C_R   0.500000 0.328685 0.499976 0.847352
C2    C     C_R   0.500000 0.671315 0.500024 0.847353
O5    O     O_R   0.417880 0.500000 0.578280 -0.564741
O6    O     O_R   0.582120 0.500000 0.421720 -0.564741
O7    O     O_R   0.582120 0.500000 0.578280 -0.564770
O8    O     O_R   0.417880 0.500000 0.421720 -0.564770
C3    C     C_R   0.389461 0.500116 0.499901 0.825762
C4    C     C_R   0.610539 0.499884 0.500099 0.825762
Cu1   Cu    Cu3+1 0.500000 0.500000 0.592680 1.007886
Cu2   Cu    Cu3+1 0.500000 0.500000 0.407320 1.007886
C5    C     C_R   0.880619 0.581238 0.518114 0.605763
C6    C     C_R   0.119381 0.418761 0.481885 0.605765
C7    C     C_R   0.880647 0.418467 0.486997 0.571412
C8    C     C_R   0.119353 0.581532 0.513003 0.571412
N1    N     N_R   0.852578 0.499810 0.502584 -0.478042
N2    N     N_R   0.147422 0.500189 0.497415 -0.478042
C9    C     C_R   0.940198 0.415419 0.491692 -0.125194
C10   C     C_R   0.059802 0.584580 0.508309 -0.125194
C11   C     C_R   0.940241 0.584099 0.515148 -0.099641
C12   C     C_R   0.059759 0.415901 0.484852 -0.099640
C13   C     C_R   0.970130 0.499909 0.501515 -0.137003
C14   C     C_R   0.029870 0.500090 0.498485 -0.137002
C15   C     C_R   0.970442 0.330828 0.484171 0.310812
C16   C     C_R   0.029558 0.669172 0.515830 0.310813
C17   C     C_R   0.970167 0.668654 0.524026 0.415129
C18   C     C_R   0.029833 0.331346 0.475974 0.415127
O9    O     O_2   0.850462 0.658911 0.536015 -0.449741
O10   O     O_2   0.149538 0.341088 0.463983 -0.449742
O11   O     O_2   0.850685 0.341720 0.463795 -0.490397
O12   O     O_2   0.149314 0.658279 0.536206 -0.490399
C19   C     C_R   0.237737 0.543903 0.419914 -0.128965
C20   C     C_R   0.762263 0.456101 0.580089 -0.128966
C21   C     C_R   0.237376 0.456798 0.577315 -0.118367
C22   C     C_R   0.762625 0.543198 0.422682 -0.118368
H1    H     H_    0.214494 0.577656 0.359121 0.147141
H2    H     H_    0.785506 0.422351 0.640884 0.147139
H3    H     H_    0.213856 0.423087 0.637654 0.153238
H4    H     H_    0.786144 0.576905 0.362340 0.153236
C23   C     C_R   0.296737 0.544453 0.419785 -0.068919
C24   C     C_R   0.703263 0.455551 0.580218 -0.068919
C25   C     C_R   0.296388 0.456377 0.578749 -0.073454
C26   C     C_R   0.703612 0.543619 0.421248 -0.073454
C27   C     C_R   0.326954 0.500358 0.499542 -0.148820
C28   C     C_R   0.673046 0.499641 0.500458 -0.148821
C29   C     C_R   0.208064 0.500224 0.498206 0.306421
C30   C     C_R   0.791936 0.499775 0.501794 0.306426
C31   C     C_1   0.500001 0.227118 0.499947 -0.186330
C32   C     C_1   0.499999 0.772882 0.500053 -0.186330
C33   C     C_1   0.500001 0.142307 0.499961 0.020722
C34   C     C_1   0.499999 0.857693 0.500039 0.020722
C35   C     C_1   0.500000 0.042406 0.499988 0.031191
C36   C     C_1   0.500000 0.957594 0.500012 0.031191
N3    N     N_1   0.500000 0.500000 0.268070 -0.120256
N4    N     N_1   0.500000 0.500000 0.731930 -0.120257
C37   C     C_1   0.500000 0.500011 0.173594 0.182020
C38   C     C_1   0.500000 0.499989 0.826406 0.182020
C39   C     C_1   0.500000 0.500006 0.050685 -0.038436
C40   C     C_1   0.500000 0.499994 0.949315 -0.038436
O13   O     O_3   0.943366 0.246354 0.488691 -0.679471
H5    H     H_    0.918195 0.248094 0.548987 0.360071
O14   O     O_3   0.056634 0.753646 0.511310 -0.679470
H6    H     H_    0.081806 0.751905 0.451014 0.360070
O15   O     O_3   0.940343 0.750534 0.536055 -0.643246
H7    H     H_    0.966350 0.802633 0.550441 0.379985
O16   O     O_3   0.059657 0.249466 0.463946 -0.643246
H8    H     H_    0.033650 0.197366 0.449561 0.379985
C41   C     C_1   0.324937 0.593271 0.338321 0.282413
N5    N     N_1   0.347490 0.632406 0.273077 -0.256164
C42   C     C_1   0.675063 0.406738 0.661686 0.282415
N6    N     N_1   0.652510 0.367607 0.726933 -0.256164
C43   C     C_1   0.324248 0.407766 0.660889 0.285448
N7    N     N_1   0.346530 0.368797 0.726680 -0.254487
C44   C     C_1   0.675753 0.592225 0.339104 0.285450
N8    N     N_1   0.653471 0.631190 0.273311 -0.254487

loop_
_geom_bond_atom_site_label_1
_geom_bond_atom_site_label_2
_geom_bond_distance
_ccdc_geom_bond_type
C35   C36   1.223906 T    
C42   N6    1.157411 T    
C3    C27   1.478992 S    
C4    C28   1.478997 S    
O3    C2    1.234449 A    
C44   N8    1.157406 T    
O5    C3    1.228397 A    
O1    C1    1.234162 A    
C11   C17   1.415417 A    
C16   C17   1.409549 A    
C12   C14   1.417149 A    
C22   H4    1.084384 S    
O16   H8    0.989461 S    
C19   H1    1.084414 S    
N3    C37   1.240417 T    
N4    C38   1.240417 T    
C38   C40   1.613714 S    
C25   C27   1.417973 A    
O7    Cu1   1.952516 S    
C17   O15   1.385345 S    
C19   C29   1.396445 A    
O6    Cu2   1.951927 S    
C19   C23   1.396040 A    
O3    Cu1   1.798807 S    
C6    N2    1.364490 A    
C5    C11   1.411929 A    
C9    C15   1.418474 A    
C6    C12   1.411934 A    
C10   C16   1.418474 A    
Cu1   Cu2   2.433663 S    
C15   C18   1.409549 A    
O4    Cu2   1.798807 S    
O2    C2    1.234161 A    
C7    O11   1.349383 S    
C32   C34   1.223897 T    
C26   C28   1.417975 A    
C33   C35   1.441665 S    
C34   C36   1.441665 S    
C37   C39   1.613714 S    
O15   H7    0.989462 S    
C20   H2    1.084415 S    
O8    Cu2   1.952519 S    
Cu1   N4    1.828266 S    
C13   C14   1.414126 A    
C7    C9    1.410981 A    
C31   C33   1.223897 T    
C5    N1    1.364494 A    
C43   N7    1.157405 T    
N2    C29   1.434870 S    
C21   C29   1.396854 A    
O6    C4    1.228397 A    
C8    O12   1.349381 S    
C15   O13   1.378487 S    
C20   C24   1.396040 A    
O1    Cu1   1.798539 S    
C21   C25   1.396410 A    
C18   O16   1.385346 S    
C20   C30   1.396445 A    
C24   C42   1.445272 S    
Cu2   N3    1.828266 S    
C9    C13   1.415737 A    
C23   C41   1.445271 S    
C8    C10   1.410984 A    
O4    C1    1.234450 A    
C26   C44   1.445175 S    
C5    O9    1.349415 S    
C22   C30   1.396855 A    
C6    O10   1.349413 S    
C25   C43   1.445174 S    
C16   O14   1.378488 S    
C41   N5    1.157412 T    
N1    C30   1.434860 S    
C7    N1    1.364185 A    
C8    N2    1.364180 A    
C11   C13   1.417148 A    
C21   H3    1.084387 S    
C39   C40   1.330924 T    
O2    Cu2   1.798539 S    
O7    C4    1.227990 A    
C12   C18   1.415417 A    
C22   C26   1.396410 A    
O8    C3    1.227990 A    
O13   H5    0.991718 S    
O5    Cu1   1.951929 S    
O14   H6    0.991721 S    
C10   C14   1.415738 A    
C1    C31   1.465701 S    
C2    C32   1.465701 S    
C23   C27   1.418167 A    
C24   C28   1.418169 A    
