data_mof_unit_14625.cif
_audit_creation_date              2012-12-10T17:17:17-0500
_audit_creation_method            fapswitch 2.2
_symmetry_space_group_name_H-M    P1
_symmetry_Int_Tables_number       1
_space_group_crystal_system       triclinic
_cell_length_a                    21.754648
_cell_length_b                    21.754473
_cell_length_c                    21.754356
_cell_angle_alpha                 89.984887
_cell_angle_beta                  89.982313
_cell_angle_gamma                 90.038797
_cell_volume                      10295.4829452

loop_
_atom_site_label
_atom_site_type_symbol
_atom_type_description
_atom_site_fract_x
_atom_site_fract_y
_atom_site_fract_z
_atom_type_partial_charge
C1    C     C_R   0.500012 0.120637 0.999944 0.920845
C2    C     C_R   0.500009 0.999922 0.879359 0.922342
C3    C     C_R   0.279648 0.368029 0.103912 -0.053696
C4    C     C_R   0.900108 0.635064 0.718606 -0.056702
C5    C     C_R   0.720206 0.631287 0.105187 -0.053669
C6    C     C_R   0.101956 0.633516 0.281117 -0.056221
C7    C     C_R   0.280221 0.631523 0.895290 -0.054229
C8    C     C_R   0.632878 0.719798 0.897504 -0.054942
C9    C     C_R   0.635477 0.098960 0.718556 -0.056659
C10   C     C_R   0.632473 0.280097 0.103192 -0.054233
C11   C     C_R   0.635205 0.901055 0.281423 -0.057386
C12   C     C_R   0.367861 0.280172 0.896312 -0.054814
C13   C     C_R   0.000126 0.499995 0.120634 0.920816
C14   C     C_R   0.365166 0.900014 0.718609 -0.056879
C15   C     C_R   0.367166 0.719655 0.103078 -0.054435
C16   C     C_R   0.365182 0.100031 0.281245 -0.056531
C17   C     C_R   0.279575 0.108699 0.628531 -0.053304
C18   C     C_R   0.888759 0.278672 0.626666 -0.051632
C19   C     C_R   0.720448 0.890470 0.627787 -0.053224
C20   C     C_R   0.108750 0.720380 0.628419 -0.053459
C21   C     C_R   0.720985 0.109436 0.372265 -0.052549
C22   C     C_R   0.108181 0.279794 0.371541 -0.053777
C23   C     C_R   0.279457 0.891521 0.371681 -0.053372
C24   C     C_R   0.499989 0.000081 0.120639 0.922326
C25   C     C_R   0.892992 0.720023 0.370503 -0.054174
C26   C     C_R   0.458465 0.961583 0.718077 -0.118828
C27   C     C_R   0.281707 0.959367 0.460691 -0.122282
C28   C     C_R   0.541597 0.962000 0.281866 -0.118474
C29   C     C_R   0.718212 0.959098 0.539314 -0.122220
C30   C     C_R   0.458333 0.038350 0.281926 -0.118932
C31   C     C_R   0.281784 0.040692 0.539615 -0.122055
C32   C     C_R   0.541804 0.037971 0.718104 -0.118552
C33   C     C_R   0.718348 0.040873 0.460786 -0.122616
C34   C     C_R   0.040457 0.281701 0.460679 -0.121700
C35   C     C_R   0.000039 0.619830 0.500010 0.886174
C36   C     C_R   0.038999 0.541119 0.281898 -0.119202
C37   C     C_R   0.040817 0.718214 0.539474 -0.122213
C38   C     C_R   0.037532 0.458140 0.718130 -0.117860
C39   C     C_R   0.959805 0.718260 0.460274 -0.121510
C40   C     C_R   0.961646 0.458641 0.281833 -0.118709
C41   C     C_R   0.958571 0.281721 0.539098 -0.122997
C42   C     C_R   0.961648 0.541811 0.718020 -0.119151
C43   C     C_R   0.718148 0.540597 0.039713 -0.121222
C44   C     C_R   0.458907 0.718068 0.039096 -0.120644
C45   C     C_R   0.281752 0.459332 0.039276 -0.121189
C46   C     C_R   0.499929 0.619799 1.000000 0.887968
C47   C     C_R   0.540863 0.281838 0.039088 -0.120659
C48   C     C_R   0.281933 0.540561 0.960410 -0.121063
C49   C     C_R   0.540854 0.718191 0.961046 -0.120519
C50   C     C_R   0.718190 0.459669 0.960575 -0.121096
C51   C     C_R   0.459282 0.281863 0.960689 -0.120644
C52   C     C_R   0.979717 0.446941 0.221687 -0.112027
C53   C     C_R   0.778285 0.447614 0.978499 -0.111317
C54   C     C_R   0.019261 0.446663 0.778273 -0.112590
C55   C     C_R   0.221593 0.447462 0.021366 -0.111063
C56   C     C_R   0.979564 0.553283 0.778268 -0.111768
C57   C     C_R   0.999946 0.380160 0.500087 0.886292
C58   C     C_R   0.778394 0.552537 0.022051 -0.110915
C59   C     C_R   0.021161 0.552891 0.221695 -0.111897
C60   C     C_R   0.221739 0.552543 0.978134 -0.111105
C61   C     C_R   0.552663 0.778333 0.979036 -0.111312
C62   C     C_R   0.553294 0.019850 0.778280 -0.111900
C63   C     C_R   0.552692 0.221688 0.021161 -0.111069
C64   C     C_R   0.553162 0.980147 0.221710 -0.112032
C65   C     C_R   0.447394 0.221666 0.978507 -0.111150
C66   C     C_R   0.446883 0.979576 0.778269 -0.111868
C67   C     C_R   0.447158 0.778284 0.021274 -0.111002
C68   C     C_R   0.500021 0.380197 0.999999 0.887952
C69   C     C_R   0.446798 0.020376 0.221716 -0.111703
C70   C     C_R   0.221533 0.023276 0.552018 -0.111895
C71   C     C_R   0.975840 0.221479 0.551628 -0.111479
C72   C     C_R   0.778427 0.976484 0.551862 -0.111994
C73   C     C_R   0.023374 0.778414 0.551909 -0.112100
C74   C     C_R   0.778507 0.023360 0.448266 -0.111964
C75   C     C_R   0.022858 0.221570 0.448097 -0.112371
C76   C     C_R   0.221579 0.976959 0.448185 -0.112191
C77   C     C_R   0.977443 0.778436 0.447887 -0.112356
C78   C     C_R   0.500073 0.999882 0.685466 -0.093842
C79   C     C_R   0.380195 0.499982 0.999997 0.887596
C80   C     C_R   0.314451 0.999980 0.500166 -0.097371
C81   C     C_R   0.499924 0.000091 0.314527 -0.093900
C82   C     C_R   0.685561 0.000026 0.500058 -0.097656
C83   C     C_R   0.999732 0.314433 0.500038 -0.097586
C84   C     C_R   0.000167 0.499967 0.314510 -0.094362
C85   C     C_R   0.000180 0.685542 0.499960 -0.097157
C86   C     C_R   0.999797 0.500091 0.685464 -0.093689
C87   C     C_R   0.685485 0.500175 0.000050 -0.096299
C88   C     C_R   0.499863 0.685467 0.000017 -0.095377
C89   C     C_R   0.314520 0.499989 0.999943 -0.095971
C90   C     C_R   0.380167 0.999987 0.500080 0.886201
C91   C     C_R   0.500034 0.314523 0.999958 -0.095716
C92   C     C_R   0.000350 0.499958 0.187771 -0.079035
C93   C     C_R   0.812220 0.500043 0.000259 -0.077775
C94   C     C_R   0.999547 0.500007 0.812207 -0.079714
C95   C     C_R   0.187785 0.500035 0.999797 -0.077877
C96   C     C_R   0.499925 0.812204 0.000140 -0.078124
C97   C     C_R   0.500049 0.999778 0.812206 -0.079245
C98   C     C_R   0.500028 0.187787 0.999859 -0.077983
C99   C     C_R   0.499973 0.000211 0.187785 -0.079263
C100  C     C_R   0.187717 0.000133 0.500059 -0.078315
C101  C     C_R   0.619807 0.500096 0.000004 0.887526
C102  C     C_R   0.999509 0.187698 0.499917 -0.078174
C103  C     C_R   0.812296 0.999917 0.500056 -0.078186
C104  C     C_R   0.000302 0.812276 0.499953 -0.078443
C105  C     C_3   0.319848 0.998973 0.880840 -0.239686
C106  C     C_3   0.119360 0.991190 0.320127 -0.238924
C107  C     C_3   0.680090 0.000284 0.119120 -0.239723
C108  C     C_3   0.881011 0.989282 0.679752 -0.239007
C109  C     C_3   0.319934 0.000943 0.119007 -0.239073
C110  C     C_3   0.118651 0.009916 0.679635 -0.237377
C111  C     C_3   0.680112 0.999876 0.880937 -0.239006
C112  C     C_R   0.999829 0.120605 0.499984 0.914430
C113  C     C_R   0.619838 0.000015 0.500009 0.886201
C114  C     C_3   0.880845 0.009463 0.320198 -0.237674
C115  C     C_3   0.009227 0.119150 0.320176 -0.238773
C116  C     C_3   0.003155 0.680129 0.119115 -0.239487
C117  C     C_3   0.009832 0.880937 0.679767 -0.238799
C118  C     C_3   0.999226 0.320083 0.881201 -0.239830
C119  C     C_3   0.991652 0.881176 0.320259 -0.238133
C120  C     C_3   0.998588 0.319913 0.119076 -0.238851
C121  C     C_3   0.988638 0.119052 0.679771 -0.237161
C122  C     C_3   0.998371 0.679923 0.881313 -0.239197
C123  C     C_3   0.880452 0.680383 0.003856 -0.238885
C124  C     C_R   0.499944 0.000019 0.380205 0.888759
C125  C     C_3   0.319558 0.880202 0.001750 -0.239935
C126  C     C_3   0.119840 0.319620 0.001526 -0.238717
C127  C     C_3   0.680491 0.120063 0.001129 -0.240033
C128  C     C_3   0.120056 0.680523 0.996539 -0.240823
C129  C     C_3   0.680416 0.880077 0.999345 -0.239772
C130  C     C_3   0.879527 0.319382 0.997923 -0.241230
C131  C     C_3   0.319546 0.119806 0.997763 -0.239802
C132  C     C_3   0.845500 0.420149 0.391602 -0.126355
C133  C     C_3   0.607906 0.422232 0.844688 -0.132472
C134  C     C_3   0.153139 0.417874 0.608400 -0.124433
C135  C     C_R   0.000029 0.500003 0.380197 0.888352
C136  C     C_3   0.392263 0.420993 0.154592 -0.131687
C137  C     C_3   0.846275 0.581167 0.607841 -0.126067
C138  C     C_3   0.607424 0.577965 0.155209 -0.132588
C139  C     C_3   0.155043 0.578948 0.391919 -0.128035
C140  C     C_3   0.392529 0.577932 0.844689 -0.132658
C141  C     C_3   0.579527 0.607879 0.845619 -0.130006
C142  C     C_3   0.581533 0.153591 0.608197 -0.125139
C143  C     C_3   0.579200 0.392220 0.154568 -0.130196
C144  C     C_3   0.581002 0.846221 0.391639 -0.125279
C145  C     C_3   0.421476 0.392302 0.845061 -0.130735
C146  C     C_R   0.500026 0.999979 0.619793 0.888568
C147  C     C_3   0.419361 0.845871 0.608127 -0.126227
C148  C     C_3   0.420334 0.607443 0.154377 -0.130151
C149  C     C_3   0.419154 0.153894 0.391969 -0.125818
C150  C     C_3   0.392606 0.157054 0.574398 -0.138670
C151  C     C_3   0.842177 0.392540 0.573010 -0.140355
C152  C     C_3   0.607511 0.842367 0.573372 -0.139405
C153  C     C_3   0.157181 0.607518 0.574214 -0.139056
C154  C     C_3   0.607761 0.157331 0.426166 -0.139163
C155  C     C_3   0.157492 0.392035 0.426374 -0.138311
C156  C     C_3   0.392189 0.842819 0.425884 -0.138790
C157  C     C_R   0.999963 0.500089 0.619790 0.888625
C158  C     C_3   0.843240 0.607764 0.425021 -0.137331
C159  C     C_R   0.384198 0.977141 0.798047 0.548090
C160  C     C_R   0.201412 0.970872 0.385933 0.542420
C161  C     C_R   0.615861 0.978100 0.201969 0.549117
C162  C     C_R   0.798696 0.969804 0.614035 0.541126
C163  C     C_R   0.384158 0.022854 0.201869 0.547729
C164  C     C_R   0.499976 0.879360 0.000064 0.921276
C165  C     C_R   0.201203 0.029592 0.614227 0.541089
C166  C     C_R   0.615981 0.021943 0.798047 0.548589
C167  C     C_R   0.798822 0.029821 0.386090 0.541482
C168  C     C_R   0.029000 0.201462 0.385819 0.542418
C169  C     C_R   0.024438 0.615508 0.201839 0.546633
C170  C     C_R   0.029621 0.798646 0.614143 0.541596
C171  C     C_R   0.020767 0.383891 0.797925 0.549779
C172  C     C_R   0.971807 0.798576 0.385541 0.542826
C173  C     C_R   0.976964 0.384292 0.201898 0.547641
C174  C     C_R   0.968650 0.200989 0.613666 0.539458
C175  C     C_R   0.000105 0.879384 0.499999 0.915550
C176  C     C_R   0.977049 0.615933 0.798159 0.547236
C177  C     C_R   0.798567 0.614921 0.026415 0.545247
C178  C     C_R   0.384679 0.798269 0.024753 0.546867
C179  C     C_R   0.201507 0.385024 0.025085 0.546778
C180  C     C_R   0.615170 0.201743 0.024608 0.547318
C181  C     C_R   0.201765 0.614977 0.973967 0.546006
C182  C     C_R   0.615195 0.798264 0.975883 0.547994
C183  C     C_R   0.798158 0.385149 0.974611 0.547280
C184  C     C_R   0.384913 0.201661 0.974812 0.546865
C185  C     C_R   0.911877 0.424162 0.306840 0.506141
C186  C     C_R   0.879392 0.999951 0.500016 0.914561
C187  C     C_R   0.693491 0.426241 0.909864 0.508611
C188  C     C_R   0.086415 0.422703 0.692904 0.505170
C189  C     C_R   0.306422 0.425617 0.089815 0.507579
C190  C     C_R   0.912215 0.576606 0.692879 0.505607
C191  C     C_R   0.693396 0.573877 0.090521 0.508263
C192  C     C_R   0.089015 0.575236 0.306920 0.507076
C193  C     C_R   0.306761 0.573949 0.909684 0.508599
C194  C     C_R   0.574943 0.693403 0.910859 0.507315
C195  C     C_R   0.576831 0.087294 0.693000 0.505219
C196  C     C_R   0.574719 0.306603 0.089460 0.507304
C197  C     C_R   0.879365 0.499999 0.000108 0.919834
C198  C     C_R   0.576532 0.912664 0.306943 0.505677
C199  C     C_R   0.425604 0.306668 0.910220 0.507879
C200  C     C_R   0.423715 0.912068 0.692984 0.506051
C201  C     C_R   0.424941 0.693184 0.089380 0.507168
C202  C     C_R   0.423623 0.087870 0.306999 0.505696
C203  C     C_R   0.306480 0.092458 0.571606 0.510974
C204  C     C_R   0.906222 0.306154 0.570366 0.511723
C205  C     C_R   0.693558 0.907076 0.570970 0.511722
C206  C     C_R   0.092556 0.693543 0.571459 0.511333
C207  C     C_R   0.693861 0.092856 0.429012 0.511228
C208  C     C_R   0.120613 0.000066 0.500006 0.915244
C209  C     C_R   0.092248 0.306363 0.428714 0.511358
C210  C     C_R   0.306290 0.907604 0.428681 0.511330
C211  C     C_R   0.908379 0.693511 0.427850 0.510588
C212  C     C_R   0.342432 0.939255 0.764484 -0.073181
C213  C     C_R   0.233748 0.929473 0.346709 -0.074569
C214  C     C_R   0.657789 0.940500 0.235594 -0.073138
C215  C     C_R   0.766311 0.928120 0.652976 -0.074660
C216  C     C_R   0.342438 0.060837 0.235325 -0.073106
C217  C     C_R   0.233602 0.070961 0.653442 -0.074531
C218  C     C_R   0.657974 0.059563 0.764431 -0.073236
C219  C     C_R   0.120636 0.500021 0.999910 0.920181
C220  C     C_R   0.766748 0.071662 0.347123 -0.074830
C221  C     C_R   0.070224 0.234048 0.346559 -0.074557
C222  C     C_R   0.063040 0.656750 0.235225 -0.073349
C223  C     C_R   0.070960 0.766232 0.653360 -0.074406
C224  C     C_R   0.057535 0.341551 0.763927 -0.072976
C225  C     C_R   0.931097 0.765868 0.345890 -0.074311
C226  C     C_R   0.938755 0.342737 0.235386 -0.073428
C227  C     C_R   0.926152 0.232801 0.652146 -0.075134
C228  C     C_R   0.939225 0.657718 0.764620 -0.073003
C229  C     C_R   0.766126 0.655253 0.066714 -0.073900
C230  C     C_R   0.999832 0.500009 0.879358 0.922474
C231  C     C_R   0.343725 0.765498 0.064229 -0.073689
C232  C     C_R   0.233883 0.344351 0.065095 -0.073894
C233  C     C_R   0.656027 0.234384 0.064253 -0.073734
C234  C     C_R   0.234436 0.655439 0.933907 -0.073897
C235  C     C_R   0.656257 0.765521 0.936560 -0.073624
C236  C     C_R   0.765578 0.344658 0.934536 -0.073963
C237  C     C_R   0.344186 0.234353 0.935106 -0.073598
C238  C     C_R   0.899556 0.365679 0.281209 -0.056384
C239  C     C_R   0.720007 0.368600 0.895681 -0.054132
C240  C     C_R   0.097155 0.363704 0.718048 -0.058606
H1    H     H_    0.737289 0.100994 0.791408 0.175205
H2    H     H_    0.745597 0.952858 0.264459 0.226243
H3    H     H_    0.113228 0.940517 0.323954 0.171004
H4    H     H_    0.131736 0.004256 0.272371 0.156801
H5    H     H_    0.074143 0.011350 0.330237 0.141936
H6    H     H_    0.681520 0.949238 0.116205 0.158821
H7    H     H_    0.726537 0.018714 0.129478 0.155580
H8    H     H_    0.666953 0.016213 0.072944 0.146949
H9    H     H_    0.887124 0.938672 0.675204 0.172251
H10   H     H_    0.868758 0.001664 0.727709 0.156956
H11   H     H_    0.926216 0.009666 0.669855 0.141453
H12   H     H_    0.319290 0.051985 0.115620 0.160329
H13   H     H_    0.204891 0.881852 0.271626 0.176689
H14   H     H_    0.273242 0.983280 0.129627 0.155724
H15   H     H_    0.332736 0.984369 0.072974 0.146390
H16   H     H_    0.112635 0.060561 0.675290 0.170466
H17   H     H_    0.130664 0.997278 0.727584 0.156542
H18   H     H_    0.073464 0.989665 0.669462 0.142294
H19   H     H_    0.681368 0.050917 0.883969 0.158783
H20   H     H_    0.726610 0.981693 0.870462 0.155723
H21   H     H_    0.667089 0.983753 0.927088 0.146708
H22   H     H_    0.887417 0.060031 0.324544 0.171545
H23   H     H_    0.868290 0.997024 0.272339 0.156787
H24   H     H_    0.261116 0.934160 0.257595 0.221072
H25   H     H_    0.925887 0.988751 0.329991 0.141511
H26   H     H_    0.059937 0.113423 0.324035 0.170209
H27   H     H_    0.996153 0.131261 0.272369 0.156802
H28   H     H_    0.989328 0.073798 0.330416 0.142034
H29   H     H_    0.054179 0.679883 0.115348 0.162459
H30   H     H_    0.986434 0.727059 0.130077 0.156137
H31   H     H_    0.985952 0.667898 0.073162 0.145180
H32   H     H_    0.060487 0.887047 0.675554 0.171444
H33   H     H_    0.997075 0.868691 0.727639 0.156889
H34   H     H_    0.989613 0.926128 0.669721 0.141811
H35   H     H_    0.263392 0.897309 0.791547 0.175363
H36   H     H_    0.050310 0.318288 0.883438 0.157430
H37   H     H_    0.980333 0.273710 0.871356 0.155315
H38   H     H_    0.984042 0.333558 0.927531 0.147694
H39   H     H_    0.940872 0.886590 0.323731 0.168716
H40   H     H_    0.005202 0.869395 0.272501 0.156531
H41   H     H_    0.011161 0.926593 0.330873 0.142805
H42   H     H_    0.947548 0.319475 0.115714 0.160319
H43   H     H_    0.015965 0.273164 0.129794 0.155887
H44   H     H_    0.015266 0.332538 0.072996 0.145987
H45   H     H_    0.938262 0.111828 0.674358 0.173793
H46   H     H_    0.254494 0.951067 0.735784 0.225777
H47   H     H_    0.999925 0.131993 0.727807 0.157241
H48   H     H_    0.010175 0.074247 0.670705 0.140151
H49   H     H_    0.947303 0.680295 0.884558 0.160763
H50   H     H_    0.015855 0.726734 0.870923 0.155590
H51   H     H_    0.014858 0.667067 0.927352 0.146607
H52   H     H_    0.886006 0.678904 0.054667 0.166201
H53   H     H_    0.868282 0.727519 0.988595 0.156406
H54   H     H_    0.925868 0.669226 0.984678 0.143509
H55   H     H_    0.319728 0.885014 0.052655 0.163769
H56   H     H_    0.272760 0.868414 0.985170 0.156280
H57   H     H_    0.795173 0.879765 0.727588 0.176531
H58   H     H_    0.331451 0.925875 0.983607 0.144823
H59   H     H_    0.114350 0.320163 0.052352 0.164132
H60   H     H_    0.132011 0.272762 0.985441 0.156209
H61   H     H_    0.074386 0.331164 0.982677 0.144598
H62   H     H_    0.680511 0.115109 0.052006 0.163523
H63   H     H_    0.727209 0.132008 0.984408 0.156291
H64   H     H_    0.668619 0.074413 0.982923 0.144900
H65   H     H_    0.114826 0.679540 0.945680 0.166213
H66   H     H_    0.132230 0.727507 0.012298 0.156630
H67   H     H_    0.074486 0.669208 0.015272 0.143666
H68   H     H_    0.739172 0.932064 0.742191 0.220583
H69   H     H_    0.680693 0.884847 0.948446 0.162772
H70   H     H_    0.727056 0.868285 0.016319 0.156163
H71   H     H_    0.668423 0.925776 0.017305 0.145100
H72   H     H_    0.884764 0.319788 0.947076 0.165447
H73   H     H_    0.867219 0.272597 0.014188 0.156580
H74   H     H_    0.925135 0.330814 0.016482 0.143969
H75   H     H_    0.320018 0.114814 0.946883 0.164369
H76   H     H_    0.272687 0.131735 0.014040 0.156280
H77   H     H_    0.331175 0.074180 0.016160 0.144285
H78   H     H_    0.877925 0.383778 0.407289 0.183685
H79   H     H_    0.876579 0.203125 0.725683 0.177120
H80   H     H_    0.800161 0.399951 0.379825 0.163043
H81   H     H_    0.837553 0.451481 0.430962 0.146606
H82   H     H_    0.593429 0.384808 0.876554 0.179169
H83   H     H_    0.619115 0.403321 0.798671 0.163007
H84   H     H_    0.567802 0.452954 0.838220 0.147435
H85   H     H_    0.120136 0.382141 0.592413 0.183414
H86   H     H_    0.198008 0.396817 0.620378 0.163052
H87   H     H_    0.161880 0.449253 0.569214 0.147761
H88   H     H_    0.406381 0.383645 0.122523 0.178084
H89   H     H_    0.381199 0.401923 0.200594 0.162958
H90   H     H_    0.928456 0.259232 0.741635 0.219076
H91   H     H_    0.432551 0.451550 0.160978 0.149127
H92   H     H_    0.878906 0.617560 0.592512 0.181821
H93   H     H_    0.800929 0.601417 0.619424 0.162714
H94   H     H_    0.838495 0.550006 0.568303 0.148347
H95   H     H_    0.593363 0.615559 0.123389 0.178313
H96   H     H_    0.618373 0.596672 0.201369 0.162809
H97   H     H_    0.567124 0.547362 0.161308 0.148392
H98   H     H_    0.122813 0.615603 0.407360 0.182797
H99   H     H_    0.200599 0.598779 0.380317 0.162850
H100  H     H_    0.162538 0.547655 0.431414 0.146311
H101  H     H_    0.896348 0.264007 0.208204 0.175239
H102  H     H_    0.406859 0.615432 0.876501 0.178785
H103  H     H_    0.381469 0.596751 0.798594 0.162817
H104  H     H_    0.432685 0.547233 0.838408 0.147793
H105  H     H_    0.616521 0.593314 0.877884 0.179346
H106  H     H_    0.599036 0.619145 0.799850 0.163005
H107  H     H_    0.548743 0.567850 0.838728 0.148564
H108  H     H_    0.617654 0.120853 0.592590 0.182761
H109  H     H_    0.602117 0.198762 0.619963 0.162893
H110  H     H_    0.550300 0.161767 0.568802 0.148179
H111  H     H_    0.616400 0.406677 0.122438 0.179251
H112  H     H_    0.745823 0.047202 0.735666 0.226243
H113  H     H_    0.949937 0.254680 0.264029 0.225645
H114  H     H_    0.598445 0.381022 0.200448 0.162945
H115  H     H_    0.548497 0.432307 0.161254 0.148779
H116  H     H_    0.617119 0.878945 0.407361 0.183186
H117  H     H_    0.601563 0.801084 0.379806 0.163035
H118  H     H_    0.549684 0.837957 0.430973 0.147481
H119  H     H_    0.384237 0.406793 0.877098 0.179532
H120  H     H_    0.402318 0.381128 0.799141 0.162905
H121  H     H_    0.452283 0.432362 0.838436 0.147954
H122  H     H_    0.383089 0.878463 0.592561 0.182704
H123  H     H_    0.398991 0.800582 0.619846 0.162899
H124  H     H_    0.884438 0.794212 0.270028 0.175986
H125  H     H_    0.450636 0.837909 0.568706 0.147326
H126  H     H_    0.383141 0.593097 0.122222 0.178758
H127  H     H_    0.401060 0.618538 0.200276 0.162789
H128  H     H_    0.451006 0.567317 0.160981 0.149346
H129  H     H_    0.382756 0.121300 0.407363 0.182242
H130  H     H_    0.398924 0.199235 0.380332 0.162815
H131  H     H_    0.450336 0.161720 0.431480 0.148170
H132  H     H_    0.406529 0.126056 0.612729 0.177981
H133  H     H_    0.381786 0.203673 0.591981 0.162773
H134  H     H_    0.433032 0.162330 0.543833 0.145517
H135  H     H_    0.937217 0.738284 0.256961 0.221882
H136  H     H_    0.872727 0.405949 0.611895 0.176983
H137  H     H_    0.795220 0.381894 0.589849 0.162592
H138  H     H_    0.837643 0.433268 0.542748 0.145761
H139  H     H_    0.593505 0.873117 0.611867 0.178496
H140  H     H_    0.618370 0.795650 0.590689 0.162836
H141  H     H_    0.567114 0.837231 0.542778 0.144606
H142  H     H_    0.126188 0.593497 0.612544 0.177519
H143  H     H_    0.203795 0.618421 0.591807 0.162707
H144  H     H_    0.162484 0.567127 0.543635 0.145444
H145  H     H_    0.593952 0.126454 0.387685 0.177735
H146  H     H_    0.897131 0.736539 0.791888 0.175140
H147  H     H_    0.618640 0.204035 0.408768 0.162888
H148  H     H_    0.567227 0.162452 0.456601 0.145408
H149  H     H_    0.126539 0.406546 0.388234 0.179929
H150  H     H_    0.203972 0.380878 0.408602 0.163107
H151  H     H_    0.163222 0.432180 0.457194 0.143639
H152  H     H_    0.406284 0.873814 0.387580 0.178057
H153  H     H_    0.381187 0.796240 0.408257 0.162908
H154  H     H_    0.432567 0.837407 0.456455 0.145077
H155  H     H_    0.874511 0.593322 0.387110 0.179387
H156  H     H_    0.796896 0.618874 0.406891 0.163020
H157  H     H_    0.950975 0.745808 0.736253 0.225700
H158  H     H_    0.837314 0.567605 0.455818 0.144551
H159  H     H_    0.118738 0.795063 0.728357 0.176471
H160  H     H_    0.066257 0.739021 0.742525 0.220884
H161  H     H_    0.106275 0.734992 0.207856 0.175403
H162  H     H_    0.052700 0.744986 0.263640 0.224882
H163  H     H_    0.117663 0.205607 0.271195 0.176280
H164  H     H_    0.204678 0.118853 0.728316 0.176246
H165  H     H_    0.065156 0.261647 0.257551 0.221446
H166  H     H_    0.097589 0.261380 0.790326 0.174944
H167  H     H_    0.043512 0.254141 0.734694 0.227012
H168  H     H_    0.794146 0.267890 0.889612 0.177150
H169  H     H_    0.737488 0.255966 0.941852 0.223678
H170  H     H_    0.733795 0.793889 0.892744 0.176639
H171  H     H_    0.744767 0.737481 0.945444 0.224110
H172  H     H_    0.205963 0.732059 0.888628 0.176877
H173  H     H_    0.262241 0.744220 0.941207 0.223391
H174  H     H_    0.267202 0.205839 0.890470 0.176750
H175  H     H_    0.260570 0.066363 0.742665 0.220775
H176  H     H_    0.255499 0.262142 0.943107 0.223673
H177  H     H_    0.204902 0.267675 0.110021 0.176906
H178  H     H_    0.261372 0.255519 0.057626 0.223101
H179  H     H_    0.266504 0.793866 0.108528 0.176499
H180  H     H_    0.255077 0.737643 0.055747 0.224079
H181  H     H_    0.795080 0.731435 0.112448 0.176854
H182  H     H_    0.738846 0.744219 0.059968 0.222670
H183  H     H_    0.733119 0.205800 0.108599 0.176665
H184  H     H_    0.744697 0.262313 0.056138 0.224111
H185  H     H_    0.138243 0.710393 0.320090 0.192573
H186  H     H_    0.263665 0.102982 0.208014 0.175306
H187  H     H_    0.181762 0.678486 0.263495 0.193983
H188  H     H_    0.682591 0.707336 0.144466 0.192225
H189  H     H_    0.739092 0.673156 0.186338 0.194877
H190  H     H_    0.865167 0.712464 0.679485 0.193332
H191  H     H_    0.820970 0.681189 0.735958 0.193710
H192  H     H_    0.318123 0.707658 0.856314 0.192325
H193  H     H_    0.261452 0.673835 0.814339 0.194701
H194  H     H_    0.129960 0.285884 0.677976 0.195336
H195  H     H_    0.175042 0.315265 0.734721 0.193334
H196  H     H_    0.682098 0.292487 0.856740 0.192585
H197  H     H_    0.254358 0.049309 0.263799 0.225757
H198  H     H_    0.739055 0.326078 0.814922 0.194741
H199  H     H_    0.864051 0.288517 0.320396 0.193130
H200  H     H_    0.820244 0.319832 0.263705 0.193818
H201  H     H_    0.317313 0.291678 0.142561 0.192250
H202  H     H_    0.260594 0.325303 0.184608 0.194701
H203  H     H_    0.290556 0.681611 0.140968 0.192660
H204  H     H_    0.323763 0.738234 0.183495 0.194445
H205  H     H_    0.287826 0.865027 0.679367 0.193464
H206  H     H_    0.318848 0.820931 0.736001 0.193644
H207  H     H_    0.291485 0.318225 0.858122 0.193480
H208  H     H_    0.796027 0.120005 0.272626 0.176821
H209  H     H_    0.324754 0.261546 0.815757 0.194737
H210  H     H_    0.287861 0.135200 0.320315 0.193604
H211  H     H_    0.319193 0.179208 0.263728 0.193811
H212  H     H_    0.708965 0.318084 0.141304 0.192932
H213  H     H_    0.675731 0.261280 0.183613 0.194586
H214  H     H_    0.713033 0.133423 0.679213 0.193351
H215  H     H_    0.682338 0.177725 0.735858 0.193466
H216  H     H_    0.709554 0.681586 0.860065 0.193222
H217  H     H_    0.676898 0.738410 0.817405 0.194447
H218  H     H_    0.712664 0.866649 0.320857 0.194505
H219  H     H_    0.739800 0.067922 0.257853 0.220299
H220  H     H_    0.682097 0.822369 0.264107 0.193688
H221  H     H_    0.316828 0.850031 0.296671 0.189781
H222  H     H_    0.260160 0.809321 0.332082 0.195525
H223  H     H_    0.149348 0.317515 0.296474 0.190121
H224  H     H_    0.190282 0.260880 0.331556 0.195506
H225  H     H_    0.684079 0.151757 0.297484 0.189203
H226  H     H_    0.740607 0.192011 0.333569 0.195819
H227  H     H_    0.852804 0.682131 0.295047 0.190291
H228  H     H_    0.811305 0.738672 0.329600 0.195292
H229  H     H_    0.683189 0.848309 0.702537 0.189682
H230  H     H_    0.737110 0.899181 0.208600 0.175256
H231  H     H_    0.739637 0.807872 0.666588 0.195789
H232  H     H_    0.844999 0.314879 0.700979 0.188011
H233  H     H_    0.805499 0.258654 0.663634 0.196261
H234  H     H_    0.316898 0.150168 0.703584 0.189705
H235  H     H_    0.260576 0.191036 0.667949 0.195771
H236  H     H_    0.150161 0.682953 0.703442 0.189354
H237  H     H_    0.191030 0.739462 0.667958 0.195568
H238  H     H_    0.319044 0.947927 0.884126 0.160267
H239  H     H_    0.273229 0.016720 0.870174 0.155912
H240  H     H_    0.332584 0.015435 0.926923 0.146120
N1    N     N_3   0.722837 0.057657 0.776525 -0.469514
N2    N     N_3   0.939839 0.277872 0.223195 -0.469837
N3    N     N_3   0.928545 0.778837 0.281208 -0.471315
N4    N     N_3   0.940603 0.722545 0.776991 -0.469489
N5    N     N_3   0.074497 0.779484 0.717931 -0.472089
N6    N     N_3   0.062634 0.721599 0.222876 -0.470028
N7    N     N_3   0.073469 0.221077 0.281914 -0.471793
N8    N     N_3   0.054484 0.276661 0.775662 -0.468415
N9    N     N_3   0.778280 0.279899 0.933337 -0.473064
N10   N     N_3   0.721039 0.778232 0.936349 -0.472367
N11   N     N_3   0.221573 0.720163 0.932476 -0.472780
N12   N     N_3   0.220188 0.074587 0.717984 -0.472065
N13   N     N_3   0.279441 0.221472 0.934214 -0.472701
N14   N     N_3   0.220762 0.279658 0.066270 -0.473134
N15   N     N_3   0.278982 0.778324 0.064817 -0.472421
N16   N     N_3   0.779368 0.719908 0.068539 -0.473140
N17   N     N_3   0.720773 0.221575 0.064935 -0.472791
N18   N     N_3   0.153762 0.668967 0.301390 -0.462312
N19   N     N_3   0.700844 0.665141 0.158371 -0.459564
N20   N     N_3   0.848932 0.671267 0.698154 -0.462844
N21   N     N_3   0.299689 0.665581 0.842240 -0.459925
N22   N     N_3   0.147327 0.326405 0.697084 -0.463647
N23   N     N_3   0.277602 0.059526 0.223011 -0.469959
N24   N     N_3   0.700704 0.334489 0.842637 -0.459828
N25   N     N_3   0.848110 0.329734 0.301578 -0.462804
N26   N     N_3   0.298917 0.333692 0.156823 -0.459730
N27   N     N_3   0.332425 0.700056 0.155635 -0.460409
N28   N     N_3   0.328937 0.848814 0.698169 -0.462836
N29   N     N_3   0.333378 0.299742 0.843616 -0.459905
N30   N     N_3   0.329080 0.151318 0.301594 -0.462602
N31   N     N_3   0.667085 0.299547 0.155856 -0.460187
N32   N     N_3   0.672041 0.149916 0.698050 -0.463432
N33   N     N_3   0.667867 0.700199 0.845144 -0.460329
N34   N     N_3   0.780220 0.075738 0.282621 -0.472893
N35   N     N_3   0.671714 0.850121 0.301933 -0.462777
N36   N     N_3   0.298542 0.837358 0.339262 -0.459405
N37   N     N_3   0.162197 0.299149 0.338962 -0.459868
N38   N     N_3   0.702146 0.163957 0.340286 -0.458969
N39   N     N_3   0.839410 0.700492 0.337364 -0.460243
N40   N     N_3   0.701310 0.836026 0.659779 -0.459170
N41   N     N_3   0.833634 0.297194 0.657795 -0.458453
N42   N     N_3   0.298831 0.162839 0.660924 -0.459440
N43   N     N_3   0.162870 0.701160 0.660828 -0.459604
N44   N     N_3   0.722668 0.942479 0.223557 -0.469516
N45   N     N_3   0.220585 0.926038 0.282116 -0.472376
N46   N     N_3   0.277560 0.940738 0.776626 -0.469639
N47   N     N_3   0.779612 0.924074 0.717509 -0.472306
N48   N     N_3   0.921006 0.218969 0.716499 -0.473550
O1    O     O_R   0.551740 0.091630 0.999970 -0.595767
O2    O     O_R   0.908370 0.448260 0.000030 -0.595264
O3    O     O_R   0.908370 0.999970 0.448260 -0.594376
O4    O     O_R   0.908370 0.551740 0.999970 -0.595332
O5    O     O_R   0.091630 0.999970 0.551740 -0.594473
O6    O     O_R   0.091630 0.551740 0.000030 -0.595015
O7    O     O_R   0.091630 0.000030 0.448260 -0.594221
O8    O     O_R   0.091630 0.448260 0.999970 -0.595841
O9    O     O_R   0.999970 0.448260 0.908370 -0.596105
O10   O     O_R   0.551740 0.999970 0.908370 -0.596062
O11   O     O_R   0.000030 0.551740 0.908370 -0.595664
O12   O     O_R   0.000030 0.091630 0.551740 -0.593986
O13   O     O_R   0.448260 0.000030 0.908370 -0.595638
O14   O     O_R   0.000030 0.448260 0.091630 -0.595832
O15   O     O_R   0.448260 0.999970 0.091630 -0.595871
O16   O     O_R   0.999970 0.551740 0.091630 -0.595268
O17   O     O_R   0.551740 0.000030 0.091630 -0.596147
O18   O     O_R   0.051740 0.591630 0.499970 -0.611843
O19   O     O_R   0.500030 0.591630 0.051740 -0.612028
O20   O     O_R   0.948260 0.591630 0.500030 -0.612744
O21   O     O_R   0.499970 0.591630 0.948260 -0.612306
O22   O     O_R   0.051740 0.408370 0.500030 -0.612814
O23   O     O_R   0.448260 0.091630 0.000030 -0.595483
O24   O     O_R   0.500030 0.408370 0.948260 -0.612010
O25   O     O_R   0.948260 0.408370 0.499970 -0.611561
O26   O     O_R   0.499970 0.408370 0.051740 -0.612240
O27   O     O_R   0.408370 0.500030 0.051740 -0.612371
O28   O     O_R   0.408370 0.948260 0.500030 -0.612327
O29   O     O_R   0.408370 0.499970 0.948260 -0.612144
O30   O     O_R   0.408370 0.051740 0.499970 -0.612239
O31   O     O_R   0.591630 0.499970 0.051740 -0.612026
O32   O     O_R   0.591630 0.051740 0.500030 -0.612272
O33   O     O_R   0.591630 0.500030 0.948260 -0.612459
O34   O     O_R   0.999970 0.091630 0.448260 -0.594451
O35   O     O_R   0.591630 0.948260 0.499970 -0.612228
O36   O     O_R   0.499970 0.948260 0.408370 -0.611786
O37   O     O_R   0.051740 0.499970 0.408370 -0.611430
O38   O     O_R   0.500030 0.051740 0.408370 -0.611415
O39   O     O_R   0.948260 0.500030 0.408370 -0.611961
O40   O     O_R   0.500030 0.948260 0.591630 -0.611585
O41   O     O_R   0.948260 0.499970 0.591630 -0.611201
O42   O     O_R   0.499970 0.051740 0.591630 -0.611811
O43   O     O_R   0.051740 0.500030 0.591630 -0.612036
O44   O     O_3   0.362626 0.022388 0.837749 -0.589353
O45   O     O_R   0.551740 0.908370 0.000030 -0.595813
O46   O     O_3   0.162909 0.015806 0.361663 -0.594385
O47   O     O_3   0.637217 0.023455 0.162215 -0.588927
O48   O     O_3   0.837378 0.014433 0.638647 -0.595228
O49   O     O_3   0.362547 0.977557 0.162223 -0.589444
O50   O     O_3   0.162431 0.984881 0.638595 -0.594485
O51   O     O_3   0.637273 0.976632 0.837846 -0.588905
O52   O     O_3   0.837123 0.984836 0.361574 -0.594566
O53   O     O_3   0.984284 0.162671 0.361539 -0.594269
O54   O     O_3   0.979335 0.637688 0.162311 -0.590289
O55   O     O_3   0.984888 0.837323 0.638488 -0.594655
O56   O     O_R   0.000030 0.908370 0.448260 -0.594581
O57   O     O_3   0.975719 0.362899 0.838201 -0.588251
O58   O     O_3   0.016537 0.837595 0.361615 -0.593517
O59   O     O_3   0.022164 0.362502 0.162234 -0.589593
O60   O     O_3   0.013522 0.162858 0.638662 -0.595630
O61   O     O_3   0.022122 0.637556 0.838039 -0.589597
O62   O     O_3   0.837051 0.637869 0.980714 -0.591829
O63   O     O_3   0.362426 0.836994 0.978959 -0.591035
O64   O     O_3   0.163214 0.362533 0.979028 -0.591202
O65   O     O_3   0.637468 0.163260 0.978629 -0.591059
O66   O     O_3   0.163194 0.637760 0.019631 -0.591995
O67   O     O_R   0.448260 0.908370 0.999970 -0.595575
O68   O     O_3   0.637298 0.836890 0.021838 -0.590607
O69   O     O_3   0.836479 0.362479 0.020543 -0.591764
O70   O     O_3   0.362410 0.163029 0.020605 -0.591101
O71   O     O_3   0.867910 0.455219 0.341584 -0.603042
O72   O     O_3   0.657817 0.457654 0.866908 -0.602927
O73   O     O_3   0.131113 0.453090 0.658423 -0.602833
O74   O     O_3   0.342408 0.456686 0.132767 -0.603071
O75   O     O_3   0.868212 0.545868 0.657874 -0.602196
O76   O     O_3   0.657340 0.542452 0.133201 -0.602862
O77   O     O_3   0.132644 0.543941 0.341869 -0.602408
O78   O     O_R   0.999970 0.908370 0.551740 -0.594092
O79   O     O_3   0.342559 0.542516 0.866841 -0.602570
O80   O     O_3   0.543987 0.657797 0.867505 -0.602791
O81   O     O_3   0.546232 0.131537 0.658203 -0.602773
O82   O     O_3   0.543630 0.342307 0.132622 -0.602972
O83   O     O_3   0.545816 0.868364 0.341637 -0.602715
O84   O     O_3   0.456881 0.342353 0.867119 -0.602667
O85   O     O_3   0.454543 0.868013 0.658151 -0.602406
O86   O     O_3   0.455940 0.657402 0.132543 -0.602647
O87   O     O_3   0.454426 0.131862 0.341958 -0.602491
O88   O     O_3   0.342676 0.134346 0.539261 -0.603308
O89   O     O_R   0.908370 0.000030 0.551740 -0.594180
O90   O     O_3   0.865006 0.342765 0.537732 -0.603170
O91   O     O_3   0.657439 0.865358 0.538366 -0.603370
O92   O     O_3   0.134446 0.657439 0.539098 -0.602682
O93   O     O_3   0.657569 0.134547 0.461406 -0.603668
O94   O     O_3   0.134349 0.342102 0.461248 -0.603874
O95   O     O_3   0.342322 0.865640 0.461022 -0.603251
O96   O     O_3   0.866025 0.657720 0.460045 -0.603566
Zn1   Zn    Zn3+2 0.569090 0.000000 0.000000 0.927544
Zn2   Zn    Zn3+2 0.500000 0.500000 0.930910 0.890159
Zn3   Zn    Zn3+2 0.500000 0.930910 0.500000 0.890431
Zn4   Zn    Zn3+2 0.500000 0.069090 0.500000 0.890478
Zn5   Zn    Zn3+2 0.000000 1.000000 0.569090 0.928090
Zn6   Zn    Zn3+2 0.430910 0.000000 0.000000 0.928015
Zn7   Zn    Zn3+2 0.000000 1.000000 0.430910 0.927832
Zn8   Zn    Zn3+2 0.000000 0.430910 0.000000 0.927650
Zn9   Zn    Zn3+2 1.000000 0.569090 0.000000 0.928297
Zn10  Zn    Zn3+2 0.069090 0.500000 0.500000 0.890398
Zn11  Zn    Zn3+2 0.500000 0.500000 0.069090 0.890250
Zn12  Zn    Zn3+2 0.930910 0.500000 0.500000 0.890468

loop_
_geom_bond_atom_site_label_1
_geom_bond_atom_site_label_2
_ccdc_geom_bond_type
C9    C218  A    
H226  N38   S    
C172  O58   S    
C127  H63   S    
C139  H100  S    
C37   C206  A    
H46   N46   S    
C140  H102  S    
C106  H3    S    
C161  C214  A    
C145  H119  S    
C140  O79   S    
C122  H49   S    
C122  O61   S    
O25   Zn12  S    
C231  N15   S    
C63   C98   A    
C3    C189  A    
C119  H39   S    
C219  O8    A    
O78   Zn5   S    
C124  O36   A    
H68   N47   S    
C158  H156  S    
C168  O53   S    
C141  O80   S    
C155  H149  S    
C147  H122  S    
C156  H154  S    
C107  O47   S    
C25   C211  A    
C132  H80   S    
C111  H21   S    
C12   N29   S    
C13   O16   A    
C43   C58   A    
H201  N26   S    
C163  O49   S    
C153  H144  S    
C31   C70   A    
C185  O71   S    
C111  O51   S    
C21   C220  A    
O38   Zn4   S    
C176  O61   S    
C18   N41   S    
C95   C219  S    
C57   C83   S    
C42   C86   A    
C212  N46   S    
C7    N21   S    
C34   C75   A    
H169  N9    S    
C165  O50   S    
H157  N4    S    
C162  O48   S    
C130  H73   S    
O89   Zn5   S    
C154  H145  S    
C113  O32   A    
C16   C202  A    
C74   C167  A    
C125  H55   S    
O11   Zn9   S    
C30   C202  A    
C22   C221  A    
O8    Zn8   S    
C50   C53   A    
C136  O74   S    
H165  N7    S    
C189  O74   S    
C117  H33   S    
C118  H38   S    
H90   N48   S    
C6    N18   S    
C143  O82   S    
H171  N10   S    
C156  H152  S    
C4    N20   S    
C223  N5    S    
C108  H10   S    
H204  N27   S    
C174  C227  A    
C188  C240  A    
C4    C190  A    
C134  O73   S    
C163  C216  A    
C42   C190  A    
O31   Zn11  S    
H167  N8    S    
H197  N23   S    
C216  N23   S    
C123  H52   S    
C147  O85   S    
C16   N30   S    
C46   O21   A    
C71   C102  A    
C151  H138  S    
C224  N8    S    
C139  H98   S    
C134  H87   S    
C25   N39   S    
C101  O33   A    
C140  H104  S    
C116  H29   S    
C149  O87   S    
O9    Zn8   S    
C111  H20   S    
C30   C69   A    
C115  H28   S    
C66   C97   A    
C149  H129  S    
H162  N6    S    
C37   C73   A    
H222  N36   S    
O39   Zn12  S    
C10   C233  A    
C19   N40   S    
C49   C88   A    
C123  O62   S    
H13   N45   S    
C202  O87   S    
C65   C98   A    
C219  O6    A    
C153  H142  S    
C9    C195  A    
C124  O38   A    
H177  N14   S    
C72   C103  A    
H230  N44   S    
C76   C100  A    
C116  O54   S    
C167  O52   S    
H227  N39   S    
O30   Zn4   S    
C182  O68   S    
C114  H22   S    
C32   C62   A    
C29   C82   A    
C137  H93   S    
O41   Zn12  S    
C232  N14   S    
C125  H58   S    
C126  H61   S    
C148  H126  S    
C217  N12   S    
C25   C225  A    
C107  H6    S    
C19   C215  A    
C18   C227  A    
C78   C146  S    
C164  O67   A    
C8    C235  A    
C177  O62   S    
C130  O69   S    
C206  O92   S    
C234  N11   S    
C150  H134  S    
C179  O64   S    
C73   C170  A    
C59   C169  A    
C133  O72   S    
H199  N25   S    
C133  H82   S    
C6    C222  A    
H221  N36   S    
C110  O50   S    
H161  N6    S    
C84   C135  S    
C109  O49   S    
C17   N42   S    
C48   C193  A    
H235  N42   S    
H175  N12   S    
C90   O30   A    
C122  H50   S    
H185  N18   S    
C118  H36   S    
C61   C96   A    
H135  N3    S    
H216  N33   S    
C119  H41   S    
C130  H72   S    
C61   C182  A    
C26   C78   A    
C56   C176  A    
C233  N17   S    
H208  N34   S    
C110  H18   S    
C10   C196  A    
O37   Zn10  S    
C156  O95   S    
H178  N14   S    
C38   C188  A    
H215  N32   S    
C9    N32   S    
C109  H14   S    
C29   C205  A    
C17   C203  A    
C63   C180  A    
H194  N22   S    
C181  C234  A    
O40   Zn3   S    
C64   C99   A    
C185  C238  A    
C181  O66   S    
C147  H123  S    
C134  H85   S    
C141  H106  S    
C116  H31   S    
C26   C200  A    
C184  O70   S    
C115  H26   S    
C165  C217  A    
C149  H131  S    
C51   C91   A    
H113  N2    S    
C7    C234  A    
C152  O91   S    
O42   Zn4   S    
C68   O24   A    
H206  N28   S    
C201  O86   S    
C15   C201  A    
C235  N10   S    
C157  O41   A    
O26   Zn11  S    
C46   O19   A    
C203  O88   S    
C176  C228  A    
H229  N40   S    
C39   C211  A    
O34   Zn7   S    
C26   C66   A    
C132  H78   S    
H160  N5    S    
C154  H148  S    
C5    C191  A    
C194  O80   S    
C27   C80   A    
C70   C165  A    
C213  N45   S    
C127  H64   S    
C129  H69   S    
C126  H59   S    
H174  N13   S    
C215  N47   S    
C148  H128  S    
H159  N5    S    
H224  N37   S    
C96   C164  S    
H164  N12   S    
C121  H48   S    
H209  N29   S    
C93   C197  S    
C60   C95   A    
O15   Zn6   S    
H237  N43   S    
C237  N13   S    
C62   C97   A    
C142  H109  S    
C169  C222  A    
C3    N26   S    
C131  H76   S    
H170  N10   S    
C150  H132  S    
C41   C204  A    
C224  C240  A    
C119  O58   S    
C110  H16   S    
C50   C87   A    
C133  H84   S    
C62   C166  A    
C57   O25   A    
H187  N18   S    
O45   Zn1   S    
C145  O84   S    
C22   N37   S    
C123  H53   S    
O2    Zn8   S    
C94   C230  S    
C112  O12   A    
C60   C181  A    
C211  O96   S    
C144  H116  S    
C139  H99   S    
C36   C192  A    
C55   C179  A    
H231  N40   S    
C152  H139  S    
C82   C113  S    
C106  H4    S    
C169  O54   S    
C67   C178  A    
C1    C98   S    
C23   C210  A    
O13   Zn6   S    
C79   O29   A    
C218  N1    S    
O17   Zn1   S    
C71   C174  A    
H200  N25   S    
C137  O75   S    
O19   Zn11  S    
C11   C198  A    
C105  H239  S    
C106  O46   S    
C129  O68   S    
C13   O14   A    
C35   C85   S    
C44   C201  A    
C105  O44   S    
C192  O77   S    
C196  O82   S    
C106  H5    S    
H203  N27   S    
C175  O56   A    
C86   C157  S    
H217  N33   S    
H232  N41   S    
C79   C89   S    
C148  O86   S    
C1    O23   A    
C227  N48   S    
O3    Zn7   S    
C10   N31   S    
C45   C55   A    
H211  N30   S    
C40   C185  A    
C72   C162  A    
C187  O72   S    
C44   C67   A    
C18   C204  A    
H101  N2    S    
C68   O26   A    
C230  O11   A    
C157  O43   A    
C239  N24   S    
C65   C184  A    
C11   N35   S    
C191  O76   S    
C220  N34   S    
C138  H95   S    
C130  H74   S    
H228  N39   S    
O27   Zn11  S    
C40   C84   A    
C138  H97   S    
C102  C112  S    
C117  O55   S    
C146  O40   A    
C128  H65   S    
C36   C59   A    
C221  N7    S    
C127  H62   S    
C129  H71   S    
C31   C80   A    
C209  O94   S    
C229  N16   S    
C56   C94   A    
H212  N31   S    
C23   C213  A    
O20   Zn12  S    
C58   C93   A    
C23   N36   S    
H166  N8    S    
C238  N25   S    
C47   C63   A    
C49   C194  A    
H172  N11   S    
H182  N16   S    
C144  H117  S    
C205  O91   S    
C51   C65   A    
C16   C216  A    
C120  O59   S    
C108  O48   S    
O5    Zn5   S    
C42   C56   A    
C151  O90   S    
H163  N7    S    
C33   C207  A    
H188  N19   S    
C158  O96   S    
C8    C194  A    
C75   C168  A    
C45   C89   A    
C33   C82   A    
C168  C221  A    
C161  O47   S    
C15   C231  A    
C190  O75   S    
C53   C183  A    
C120  H42   S    
O33   Zn2   S    
H146  N4    S    
C151  H137  S    
C197  O2    A    
C115  O53   S    
C154  O93   S    
C132  H81   S    
C15   N27   S    
C32   C195  A    
C116  H30   S    
C111  H19   S    
C113  O35   A    
C145  H120  S    
C115  H27   S    
H35   N46   S    
C143  H111  S    
H191  N20   S    
H223  N37   S    
C49   C61   A    
H176  N13   S    
O1    Zn1   S    
C47   C196  A    
H225  N38   S    
C128  H66   S    
C153  O92   S    
C142  O81   S    
C119  H40   S    
C236  N9    S    
C64   C161  A    
C204  O90   S    
C158  H155  S    
C128  O66   S    
C155  H150  S    
C14   C200  A    
C127  O65   S    
C27   C210  A    
C28   C198  A    
C156  H153  S    
C114  H23   S    
C144  O83   S    
H24   N45   S    
C137  H92   S    
C21   N38   S    
C38   C54   A    
C173  O59   S    
C186  O89   A    
C41   C71   A    
H207  N29   S    
C198  O83   S    
C230  O9    A    
O22   Zn10  S    
C182  C235  A    
C28   C64   A    
C112  O34   A    
C12   C237  A    
C38   C86   A    
C180  C233  A    
C145  H121  S    
C131  H77   S    
C13   C92   S    
C52   C92   A    
C27   C76   A    
C184  C237  A    
C193  O79   S    
C125  H56   S    
H179  N15   S    
O6    Zn9   S    
C126  O64   S    
O36   Zn3   S    
H214  N32   S    
C8    N33   S    
C57   O22   A    
C47   C91   A    
O16   Zn9   S    
H173  N11   S    
C122  H51   S    
C117  H34   S    
C226  N2    S    
C118  H37   S    
C187  C239  A    
C236  C239  A    
O21   Zn2   S    
H2    N44   S    
O23   Zn6   S    
C14   N28   S    
C1    O1    A    
C135  O39   A    
C108  H9    S    
O12   Zn5   S    
C178  O63   S    
C183  C236  A    
C30   C81   A    
O10   Zn1   S    
C178  C231  A    
C132  O71   S    
H218  N35   S    
O7    Zn7   S    
C11   C214  A    
O14   Zn8   S    
C77   C172  A    
C20   N43   S    
C174  O60   S    
H234  N42   S    
C20   C223  A    
C59   C92   A    
C4    C228  A    
C208  O5    A    
O35   Zn3   S    
C200  O85   S    
C159  C212  A    
C143  H114  S    
C170  C223  A    
C33   C74   A    
C120  H44   S    
C6    C192  A    
C134  H86   S    
C197  O4    A    
C186  O3    A    
C77   C104  A    
C140  H103  S    
C141  H105  S    
C179  C232  A    
C146  O42   A    
C155  O94   S    
C149  H130  S    
C109  H12   S    
C226  C238  A    
C2    O13   A    
C24   C99   S    
C35   O20   A    
C20   C206  A    
C139  O77   S    
C171  C224  A    
C153  H143  S    
C138  O76   S    
C14   C212  A    
C5    N19   S    
C131  O70   S    
H205  N28   S    
C39   C77   A    
O67   Zn6   S    
C37   C85   A    
C136  H89   S    
C137  H94   S    
C177  C229  A    
H220  N35   S    
C126  H60   S    
C207  O93   S    
H196  N24   S    
C41   C83   A    
C22   C209  A    
C117  H32   S    
C68   C91   S    
C107  H7    S    
C121  H47   S    
C90   O28   A    
H189  N19   S    
C173  C226  A    
O29   Zn2   S    
C142  H110  S    
C73   C104  A    
O24   Zn2   S    
O28   Zn3   S    
H183  N17   S    
C131  H75   S    
C159  O44   S    
C183  O69   S    
C75   C102  A    
C7    C193  A    
C105  H240  S    
C166  C218  A    
C31   C203  A    
H219  N34   S    
H190  N20   S    
O32   Zn4   S    
C29   C72   A    
O43   Zn10  S    
C66   C159  A    
O18   Zn10  S    
C128  H67   S    
C87   C101  S    
C103  C186  S    
C164  O45   A    
C2    C97   S    
C50   C187  A    
C225  N3    S    
C70   C100  A    
C48   C60   A    
C104  C175  S    
C46   C88   S    
C162  C215  A    
C120  H43   S    
H193  N21   S    
C101  O31   A    
C118  O57   S    
C54   C94   A    
C135  O37   A    
C81   C124  S    
C53   C93   A    
C108  H11   S    
C152  H140  S    
C222  N6    S    
C110  H17   S    
C55   C95   A    
C114  H25   S    
C100  C208  S    
C121  H45   S    
H168  N9    S    
C40   C52   A    
C32   C78   A    
C109  H15   S    
H210  N30   S    
C121  O60   S    
C208  O7    A    
H79   N48   S    
C34   C209  A    
H198  N24   S    
C150  H133  S    
C199  O84   S    
H184  N17   S    
C158  H158  S    
C155  H151  S    
C210  O95   S    
H180  N15   S    
C160  O46   S    
C2    O10   A    
C141  H107  S    
C172  C225  A    
H213  N31   S    
O4    Zn9   S    
C51   C199  A    
C45   C189  A    
C170  O55   S    
C175  O78   A    
H233  N41   S    
C48   C89   A    
C67   C96   A    
C5    C229  A    
H186  N23   S    
C35   O18   A    
C125  O63   S    
C34   C83   A    
C195  O81   S    
C69   C99   A    
C167  C220  A    
H195  N22   S    
C17   C217  A    
C166  O51   S    
C228  N4    S    
C151  H136  S    
C138  H96   S    
C76   C160  A    
H181  N16   S    
C28   C81   A    
H1    N1    S    
C54   C171  A    
C136  H91   S    
C154  H147  S    
C69   C163  A    
C3    C232  A    
C171  O57   S    
C129  H70   S    
H192  N21   S    
H124  N3    S    
C214  N44   S    
C148  H127  S    
C24   O17   A    
C133  H83   S    
C43   C87   A    
H112  N1    S    
C21   C207  A    
C147  H125  S    
C24   O15   A    
C188  O73   S    
C240  N22   S    
H236  N43   S    
C142  H108  S    
C180  O65   S    
C114  O52   S    
C36   C84   A    
C160  C213  A    
O56   Zn7   S    
C144  H118  S    
C12   C199  A    
H57   N47   S    
C58   C177  A    
C80   C90   S    
C152  H141  S    
H202  N26   S    
C136  H88   S    
C43   C191  A    
C107  H8    S    
C150  O88   S    
C79   O27   A    
C19   C205  A    
C39   C85   A    
C44   C88   A    
C123  H54   S    
C52   C173  A    
C105  H238  S    
C143  H115  S    
C74   C103  A    
