data_mof_unit_46530.cif
_audit_creation_date              2012-12-10T21:07:41-0500
_audit_creation_method            fapswitch 2.2
_symmetry_space_group_name_H-M    P1
_symmetry_Int_Tables_number       1
_space_group_crystal_system       triclinic
_cell_length_a                    8.582358
_cell_length_b                    17.479513
_cell_length_c                    16.749959
_cell_angle_alpha                 89.122252
_cell_angle_beta                  98.526175
_cell_angle_gamma                 90.170481
_cell_volume                      2484.68986552

loop_
_atom_site_label
_atom_site_type_symbol
_atom_type_description
_atom_site_fract_x
_atom_site_fract_y
_atom_site_fract_z
_atom_type_partial_charge
C1    C     C_R   0.499658 0.352908 0.500810 0.883560
C2    C     C_R   0.495625 0.647223 0.498948 0.878594
C3    C     C_1   0.393388 0.966456 0.502873 -0.044973
C4    C     C_1   0.392357 0.034402 0.501485 -0.042879
C5    C     C_R   0.405748 0.447925 0.825848 -0.407569
C6    C     C_R   0.608524 0.542408 0.174651 -0.405592
C7    C     C_R   0.404369 0.449505 0.740360 0.538664
C8    C     C_R   0.607575 0.543561 0.259625 0.551686
C9    C     C_R   0.595127 0.549650 0.754828 0.534109
C10   C     C_R   0.388931 0.457054 0.245804 0.569492
C11   C     C_R   0.590864 0.551751 0.839043 -0.379736
C12   C     C_R   0.386044 0.457588 0.160106 -0.408139
C13   C     C_R   0.497491 0.499971 0.875424 0.057772
C14   C     C_R   0.496518 0.500130 0.124450 0.055202
C15   C     C_1   0.496558 0.499915 0.963300 -0.002106
C16   C     C_1   0.496187 0.499916 0.036449 -0.008380
C17   C     C_R   0.200633 0.499763 0.479022 0.966065
C18   C     C_R   0.799332 0.499584 0.520925 0.960938
C19   C     C_2   0.035894 0.499404 0.467411 -0.368375
C20   C     C_2   0.964009 0.498763 0.532296 -0.414935
C21   C     C_R   0.473430 0.846452 0.575142 0.227743
C22   C     C_R   0.355155 0.159513 0.431988 0.231357
C23   C     C_R   0.504721 0.768774 0.570609 -0.262977
C24   C     C_R   0.391533 0.237160 0.432927 -0.264566
C25   C     C_R   0.473149 0.730256 0.496964 -0.111678
C26   C     C_R   0.478075 0.270246 0.501473 -0.091591
C27   C     C_R   0.409211 0.770947 0.425643 0.186158
C28   C     C_R   0.531659 0.224662 0.570580 0.196530
C29   C     C_R   0.378578 0.848825 0.430632 -0.215325
C30   C     C_R   0.495150 0.147038 0.569294 -0.221274
C31   C     C_R   0.409823 0.886005 0.504175 0.102145
C32   C     C_R   0.407929 0.114894 0.501154 0.101775
H1    H     H_    0.974283 0.499939 0.405763 0.200288
H2    H     H_    0.025680 0.497939 0.593826 0.179181
H3    H     H_    0.553785 0.738211 0.625389 0.205693
H4    H     H_    0.349310 0.272191 0.380251 0.188552
H5    H     H_    0.331944 0.881281 0.376646 0.146022
H6    H     H_    0.537372 0.110842 0.621189 0.147689
H7    H     H_    0.336858 0.406807 0.854510 0.165645
H8    H     H_    0.695922 0.573575 0.146976 0.165436
H9    H     H_    0.660195 0.593624 0.875864 0.160255
H10   H     H_    0.300003 0.425933 0.119959 0.160823
N1    N     N_R   0.500040 0.500030 0.707230 -0.152755
N2    N     N_R   0.499960 0.499970 0.292770 -0.151206
O1    O     O_R   0.500000 0.389130 0.566570 -0.575601
O2    O     O_R   0.500000 0.610870 0.433430 -0.600410
O3    O     O_R   0.499990 0.389100 0.433480 -0.598390
O4    O     O_R   0.500010 0.610900 0.566520 -0.586283
O5    O     O_R   0.271750 0.500010 0.550980 -0.589117
O6    O     O_R   0.728250 0.499990 0.449020 -0.565477
O7    O     O_R   0.271740 0.499980 0.417890 -0.594156
O8    O     O_R   0.728260 0.500020 0.582110 -0.626243
Zn1   Zn    Zn3+2 0.500010 0.500020 0.588860 0.998579
Zn2   Zn    Zn3+2 0.499990 0.499980 0.411140 1.007861
C33   C     C_3   0.511102 0.884288 0.656120 -0.923189
H11   H     H_    0.478552 0.945681 0.654307 0.242945
H12   H     H_    0.445796 0.854934 0.700254 0.243583
H13   H     H_    0.639401 0.879595 0.677953 0.241735
C34   C     C_3   0.261805 0.127227 0.356569 -0.935398
H14   H     H_    0.235630 0.065414 0.362415 0.247318
H15   H     H_    0.147819 0.158036 0.342476 0.237615
H16   H     H_    0.328820 0.135231 0.305208 0.240982
C35   C     C_3   0.369760 0.733819 0.344431 -0.886217
H17   H     H_    0.316477 0.775055 0.297142 0.225002
H18   H     H_    0.478274 0.711343 0.324721 0.249073
H19   H     H_    0.283810 0.686826 0.347956 0.252499
C36   C     C_3   0.631192 0.256169 0.644678 -0.892801
H20   H     H_    0.681231 0.209781 0.686776 0.224075
H21   H     H_    0.731100 0.289664 0.626949 0.226664
H22   H     H_    0.558682 0.292955 0.678070 0.279583
O9    O     O_3   0.318382 0.398276 0.688009 -0.613366
C37   C     C_3   0.177725 0.371494 0.713438 0.060282
H23   H     H_    0.086680 0.368357 0.659038 0.161711
H24   H     H_    0.128126 0.411112 0.754694 0.113137
C38   C     C_3   0.202297 0.290322 0.748917 -0.349352
H25   H     H_    0.223313 0.250695 0.700315 0.232448
H26   H     H_    0.307659 0.288167 0.796147 0.218126
C39   C     C_3   0.059194 0.263016 0.785566 -0.966381
H27   H     H_    0.039215 0.300575 0.835984 0.262826
H28   H     H_    0.079336 0.203675 0.809371 0.267636
H29   H     H_    0.952868 0.263563 0.739030 0.268339
O10   O     O_3   0.720174 0.582299 0.312581 -0.620713
C40   C     C_3   0.772099 0.651859 0.281071 0.057873
H30   H     H_    0.779734 0.694808 0.329723 0.167708
H31   H     H_    0.688342 0.676579 0.230028 0.120647
C41   C     C_3   0.937595 0.641745 0.258846 -0.353638
H32   H     H_    0.021391 0.628300 0.314424 0.223275
H33   H     H_    0.939765 0.593185 0.217214 0.214202
C42   C     C_3   0.991897 0.713856 0.218563 -0.971947
H34   H     H_    0.908885 0.728299 0.163029 0.265427
H35   H     H_    0.110173 0.704015 0.201360 0.267576
H36   H     H_    0.998949 0.762623 0.260708 0.269583
O11   O     O_3   0.685971 0.601529 0.718730 -0.620821
C43   C     C_3   0.847532 0.587299 0.745541 0.079073
H37   H     H_    0.877687 0.526720 0.734469 0.134888
H38   H     H_    0.878692 0.599317 0.811005 0.125082
C44   C     C_3   0.946122 0.640158 0.699251 -0.323384
H39   H     H_    0.914495 0.630900 0.633381 0.229683
H40   H     H_    0.919623 0.700710 0.711474 0.219749
C45   C     C_3   0.122314 0.625829 0.723905 -0.946052
H41   H     H_    0.157699 0.637859 0.789000 0.263090
H42   H     H_    0.190299 0.663943 0.688092 0.273484
H43   H     H_    0.151766 0.565580 0.712532 0.258541
O12   O     O_3   0.285631 0.415159 0.286809 -0.616391
C46   C     C_3   0.167700 0.372636 0.238715 0.055632
H44   H     H_    0.122878 0.329584 0.279209 0.163244
H45   H     H_    0.214857 0.338094 0.192580 0.124449
C47   C     C_3   0.028062 0.423749 0.203866 -0.372530
H46   H     H_    0.976711 0.449655 0.254296 0.233344
H47   H     H_    0.067404 0.470986 0.166567 0.212391
C48   C     C_3   0.900880 0.377837 0.151959 -0.940845
H48   H     H_    0.949650 0.351377 0.101095 0.259967
H49   H     H_    0.802662 0.416296 0.126687 0.275672
H50   H     H_    0.853956 0.332312 0.188842 0.264780

loop_
_geom_bond_atom_site_label_1
_geom_bond_atom_site_label_2
_ccdc_geom_bond_type
C33   H11   S    
C35   H18   S    
O11   C43   S    
C27   C29   A    
C48   H48   S    
C17   O7    A    
C44   H39   S    
C18   O8    A    
C2    O2    A    
C46   H45   S    
O6    Zn2   S    
C22   C32   A    
C8    O10   S    
C22   C24   A    
C24   C26   A    
C10   O12   S    
C7    O9    S    
C39   H28   S    
C15   C16   T    
C47   H46   S    
C30   H6    S    
C12   H10   S    
N1    Zn1   S    
C19   C20   D    
C7    N1    A    
C42   H35   S    
C5    C13   A    
C20   H2    S    
C35   H19   S    
O1    Zn1   S    
C34   H14   S    
C37   C38   S    
O12   C46   S    
C44   H40   S    
C21   C23   A    
O4    Zn1   S    
C46   C47   S    
C9    N1    A    
C34   H15   S    
C41   H33   S    
C10   N2    A    
C36   H20   S    
C6    H8    S    
C37   H24   S    
C19   H1    S    
C17   O5    A    
C22   C34   S    
C5    C7    A    
C41   H32   S    
C1    O3    A    
C6    C8    A    
C43   C44   S    
C2    O4    A    
C45   H43   S    
C28   C36   S    
C36   H21   S    
C3    C31   S    
C38   H25   S    
C6    C14   A    
C38   H26   S    
C40   H30   S    
O2    Zn2   S    
C45   H42   S    
C48   H49   S    
C24   H4    S    
C42   H36   S    
C43   H38   S    
C9    C11   A    
C21   C31   A    
C4    C32   S    
C10   C12   A    
O3    Zn2   S    
C40   H31   S    
C12   C14   A    
C23   H3    S    
C13   C15   S    
C1    C26   S    
C14   C16   S    
C3    C4    T    
C9    O11   S    
C44   C45   S    
O8    Zn1   S    
C18   O6    A    
C21   C33   S    
C5    H7    S    
C34   H16   S    
C39   H27   S    
C8    N2    A    
C37   H23   S    
C41   C42   S    
C25   C27   A    
C46   H44   S    
C26   C28   A    
C47   C48   S    
C36   H22   S    
O7    Zn2   S    
C33   H12   S    
O9    C37   S    
C29   C31   A    
C30   C32   A    
C11   C13   A    
C39   H29   S    
C1    O1    A    
C2    C25   S    
O5    Zn1   S    
C28   C30   A    
C45   H41   S    
C17   C19   S    
C47   H47   S    
C11   H9    S    
C48   H50   S    
C18   C20   S    
C23   C25   A    
C43   H37   S    
C38   C39   S    
C35   H17   S    
N2    Zn2   S    
C40   C41   S    
O10   C40   S    
C33   H13   S    
C29   H5    S    
C27   C35   S    
C42   H34   S    
