data_mof_unit_5632.cif
_audit_creation_date              2013-03-05T16:12:41-0500
_audit_creation_method            fapswitch 2.2
_symmetry_space_group_name_H-M    P1
_symmetry_Int_Tables_number       1
_space_group_crystal_system       triclinic
_cell_length_a                    24.231454
_cell_length_b                    7.165745
_cell_length_c                    22.13656
_cell_angle_alpha                 89.998922
_cell_angle_beta                  99.429877
_cell_angle_gamma                 89.999596
_cell_volume                      3791.77240703

loop_
_atom_site_label
_atom_site_type_symbol
_atom_site_description
_atom_site_fract_x
_atom_site_fract_y
_atom_site_fract_z
_atom_type_partial_charge
O1    O     O_R   0.801940 0.607920 0.199180 -0.606734
O2    O     O_R   0.198060 0.392080 0.800820 -0.605778
O3    O     O_R   0.698060 0.107920 0.300820 -0.606718
O4    O     O_R   0.301940 0.892080 0.699180 -0.605744
O5    O     O_R   0.687840 0.274940 0.181980 -0.559291
O6    O     O_R   0.312160 0.725060 0.818020 -0.571930
O7    O     O_R   0.812160 0.774940 0.318020 -0.559211
O8    O     O_R   0.187840 0.225060 0.681980 -0.571782
C1    C     C_R   0.668495 0.446792 0.165934 1.065254
C2    C     C_R   0.331782 0.553416 0.833456 1.076320
C3    C     C_R   0.831504 0.946789 0.334069 1.065144
C4    C     C_R   0.168213 0.053419 0.666548 1.076100
O9    O     O_R   0.800890 0.278000 0.191820 -0.571251
O10   O     O_R   0.199110 0.722000 0.808180 -0.573205
O11   O     O_R   0.699110 0.778000 0.308180 -0.571226
O12   O     O_R   0.300890 0.222000 0.691820 -0.573194
O13   O     O_R   0.811910 0.110860 0.310720 -0.561560
O14   O     O_R   0.188090 0.889140 0.689280 -0.558262
O15   O     O_R   0.688090 0.610860 0.189280 -0.561684
O16   O     O_R   0.311910 0.389140 0.810720 -0.558445
C5    C     C_R   0.818344 0.446830 0.178627 1.034747
C6    C     C_R   0.181639 0.553169 0.821351 1.041330
C7    C     C_R   0.681656 0.946829 0.321373 1.034558
C8    C     C_R   0.318362 0.053170 0.678650 1.040991
O17   O     O_3   0.753490 0.442410 0.289000 -0.270881
O18   O     O_3   0.246510 0.557590 0.711000 -0.275077
O19   O     O_3   0.746510 0.942410 0.211000 -0.271016
O20   O     O_3   0.253490 0.057590 0.789000 -0.275264
V1    V     V_3+5 0.749350 0.166330 0.242770 1.287786
V2    V     V_3+5 0.250650 0.833670 0.757230 1.285764
V3    V     V_3+5 0.750650 0.666330 0.257230 1.287822
V4    V     V_3+5 0.249350 0.333670 0.742770 1.285827
C9    C     C_R   0.405394 0.173873 0.555128 0.521287
C10   C     C_R   0.594786 0.826075 0.445043 0.523796
C11   C     C_R   0.094609 0.673866 0.944874 0.521292
C12   C     C_R   0.905212 0.326082 0.054955 0.523816
C13   C     C_R   0.365860 0.185975 0.594863 -0.156398
C14   C     C_R   0.634265 0.813991 0.405241 -0.165360
C15   C     C_R   0.134142 0.685967 0.905139 -0.156309
C16   C     C_R   0.865733 0.313999 0.094757 -0.165356
H1    H     H_    0.338540 0.306413 0.592088 0.195491
H2    H     H_    0.661586 0.693559 0.407977 0.195997
H3    H     H_    0.161464 0.806401 0.907914 0.195479
H4    H     H_    0.838411 0.193571 0.092021 0.195988
C17   C     C_R   0.360685 0.042413 0.636891 -0.238687
C18   C     C_R   0.639384 0.957564 0.363196 -0.240280
C19   C     C_R   0.139316 0.542410 0.863110 -0.238594
C20   C     C_R   0.860615 0.457567 0.136803 -0.240253
C21   C     C_R   0.396582 0.887363 0.638965 -0.204004
C22   C     C_R   0.603500 0.112622 0.361188 -0.201067
C23   C     C_R   0.103419 0.387365 0.861037 -0.203993
C24   C     C_R   0.896499 0.612621 0.138811 -0.201037
H5    H     H_    0.393942 0.775671 0.671359 0.191459
H6    H     H_    0.606107 0.224339 0.328795 0.190029
H7    H     H_    0.106057 0.275676 0.828642 0.191339
H8    H     H_    0.893893 0.724335 0.171204 0.189945
C25   C     C_R   0.436968 0.875900 0.600391 0.518861
C26   C     C_R   0.563167 0.124063 0.399828 0.517625
C27   C     C_R   0.063032 0.375901 0.899611 0.518845
C28   C     C_R   0.936832 0.624061 0.100171 0.517617
C29   C     C_R   0.441504 0.018704 0.557759 -0.223700
C30   C     C_R   0.558675 0.981228 0.442462 -0.223123
C31   C     C_R   0.058497 0.518702 0.942243 -0.223691
C32   C     C_R   0.941324 0.481230 0.057537 -0.223111
C33   C     C_1   0.482859 0.005641 0.517059 0.257429
C34   C     C_1   0.517347 0.994228 0.483194 0.257110
C35   C     C_1   0.017143 0.505640 0.982942 0.257447
C36   C     C_1   0.982653 0.494229 0.016806 0.257121
C37   C     C_R   0.927987 0.063721 0.374062 0.411083
C38   C     C_R   0.069109 0.954539 0.630578 0.407427
C39   C     C_R   0.571946 0.563301 0.126025 0.410879
C40   C     C_R   0.430941 0.455111 0.869391 0.407055
C41   C     C_R   0.880947 0.959256 0.383893 -0.403375
C42   C     C_R   0.117812 0.044193 0.618317 -0.409221
C43   C     C_R   0.619044 0.459272 0.116123 -0.403294
C44   C     C_R   0.382169 0.544186 0.881705 -0.409150
C45   C     C_R   0.880265 0.874449 0.441503 0.409006
C46   C     C_R   0.118525 0.124754 0.560353 0.437001
C47   C     C_R   0.619775 0.374929 0.058457 0.409015
C48   C     C_R   0.381370 0.624163 0.939736 0.436647
C49   C     C_R   0.925698 0.902444 0.490776 -0.133025
C50   C     C_R   0.069178 0.125934 0.515326 -0.126977
C51   C     C_R   0.574357 0.403133 0.009187 -0.132976
C52   C     C_R   0.430697 0.625323 0.984800 -0.126947
C53   C     C_R   0.973673 0.003731 0.479560 -0.004199
C54   C     C_R   0.021563 0.022892 0.526364 -0.003682
C55   C     C_R   0.526300 0.503800 0.020480 -0.004383
C56   C     C_R   0.478404 0.522930 0.973680 -0.003921
C57   C     C_R   0.974062 0.086536 0.421632 -0.001775
C58   C     C_R   0.021622 0.939393 0.584236 0.003463
C59   C     C_R   0.525841 0.586020 0.078481 -0.001841
C60   C     C_R   0.478434 0.440038 0.915731 0.003187
C61   C     C_R   0.925532 0.832945 0.551003 0.351902
C62   C     C_R   0.065753 0.224043 0.459163 0.362529
C63   C     C_R   0.574624 0.334424 0.948887 0.351844
C64   C     C_R   0.434018 0.722777 0.041074 0.362439
C65   C     C_R   0.973359 0.847128 0.595467 -0.188995
C66   C     C_R   0.019846 0.197423 0.412896 -0.191504
C67   C     C_R   0.526792 0.348506 0.904422 -0.189138
C68   C     C_R   0.479949 0.696230 0.087319 -0.191474
H9    H     H_    0.971163 0.789594 0.640175 0.227885
H10   H     H_    0.019409 0.273778 0.370693 0.225307
H11   H     H_    0.529061 0.291593 0.859650 0.228052
H12   H     H_    0.480302 0.772085 0.129600 0.225371
Cl1   Cl    Cl    0.408173 0.354946 0.501924 -0.449818
Cl2   Cl    Cl    0.592080 0.645010 0.498268 -0.448248
Cl3   Cl    Cl    0.091831 0.854933 0.998078 -0.449734
Cl4   Cl    Cl    0.907917 0.145023 0.001731 -0.448204
Cl5   Cl    Cl    0.481782 0.680844 0.607225 -0.462275
Cl6   Cl    Cl    0.518362 0.319134 0.393076 -0.463942
Cl7   Cl    Cl    0.018219 0.180850 0.892778 -0.462374
Cl8   Cl    Cl    0.981638 0.819128 0.106923 -0.464000
Cl9   Cl    Cl    0.930269 0.155735 0.299901 -0.612433
Cl10  Cl    Cl    0.067995 0.864007 0.705103 -0.616938
Cl11  Cl    Cl    0.569648 0.654881 0.200237 -0.612488
Cl12  Cl    Cl    0.432119 0.365167 0.794806 -0.616904
Cl13  Cl    Cl    0.823031 0.725610 0.448487 -0.541690
Cl14  Cl    Cl    0.184501 0.193982 0.542849 -0.531606
Cl15  Cl    Cl    0.677012 0.226170 0.051408 -0.541806
Cl16  Cl    Cl    0.315330 0.692725 0.957220 -0.531875
N1    N     N_R   0.876070 0.763052 0.570724 0.277545
O21   O     O_R   0.877225 0.601475 0.597728 -0.292457
O22   O     O_R   0.835137 0.877333 0.574974 -0.257571
N2    N     N_R   0.104822 0.367780 0.450237 0.273455
O23   O     O_R   0.123560 0.379176 0.398527 -0.271828
O24   O     O_R   0.112378 0.507941 0.488102 -0.327894
N3    N     N_R   0.624197 0.265707 0.929108 0.277592
O25   O     O_R   0.623221 0.104873 0.901663 -0.291912
O26   O     O_R   0.665088 0.380591 0.925312 -0.257900
N4    N     N_R   0.394788 0.865803 0.050172 0.273535
O27   O     O_R   0.375951 0.875967 0.101850 -0.271529
O28   O     O_R   0.387169 0.006578 0.012558 -0.327316

loop_
_geom_bond_atom_site_label_1
_geom_bond_atom_site_label_2
_geom_bond_distance
_ccdc_geom_bond_type
O17   V3    1.748720 S    
C51   C55   1.426263 A    
C55   C56   1.430062 A    
C48   Cl16  1.776222 S    
O1    C5    1.325423 A    
C50   C62   1.418793 A    
C4    C42   1.486122 S    
O19   V1    1.748746 S    
O13   V1    1.992823 S    
C11   C15   1.405352 A    
O1    V3    1.973438 S    
C40   C44   1.408530 A    
O15   V3    1.992838 S    
O4    V2    1.973430 S    
C53   C54   1.430044 A    
C38   Cl10  1.776996 S    
O18   V4    1.748720 S    
C37   Cl9   1.778381 S    
C22   H6    1.083447 S    
C8    C17   1.490935 S    
C32   C36   1.456192 S    
C15   C19   1.406336 A    
C46   Cl14  1.776235 S    
C61   N1    1.431545 S    
C14   H2    1.083303 S    
N2    O24   1.301761 A    
C55   C59   1.414368 A    
O4    C8    1.325372 A    
C63   C67   1.395920 A    
C12   Cl4   1.761009 S    
C62   C66   1.396220 A    
C10   C30   1.410173 A    
C21   C25   1.402648 A    
O2    V4    1.973438 S    
C52   C64   1.418852 A    
O3    V1    1.973430 S    
C38   C42   1.408582 A    
C24   C28   1.402654 A    
O3    C7    1.325420 A    
C1    O15   1.339533 A    
C68   H12   1.081183 S    
C25   Cl5   1.761197 S    
C56   C60   1.413763 A    
C2    O16   1.338468 A    
C47   Cl15  1.776250 S    
O2    C6    1.325375 A    
C27   Cl7   1.761196 S    
C37   C41   1.410050 A    
O14   V2    1.992825 S    
C45   C49   1.431251 A    
C59   C68   1.403506 A    
C58   C65   1.400675 A    
C48   C52   1.425879 A    
C5    C20   1.490980 S    
O11   C7    1.329743 A    
C6    C19   1.490932 S    
O12   C8    1.329769 A    
C7    C18   1.490982 S    
C10   C14   1.405380 A    
C38   C58   1.414721 A    
C2    C44   1.486119 S    
O10   V2    1.983342 S    
C37   C57   1.413094 A    
O7    C3    1.344540 A    
O5    V1    1.995195 S    
C31   C35   1.456189 S    
C39   C43   1.410033 A    
O7    V3    1.995223 S    
C30   C34   1.456195 S    
C39   Cl11  1.778340 S    
C35   C36   1.213393 T    
C10   Cl2   1.761007 S    
C52   C56   1.424274 A    
C12   C16   1.405381 A    
C9    Cl1   1.761000 S    
C67   H11   1.081419 S    
C54   C58   1.413714 A    
C53   C57   1.414371 A    
C19   C23   1.407125 A    
C50   C54   1.424235 A    
C9    C13   1.405352 A    
O8    V4    1.995222 S    
N4    O28   1.301758 A    
N3    O26   1.301481 A    
O5    C1    1.344535 A    
C28   Cl8   1.761190 S    
C63   N3    1.431604 S    
C49   C61   1.423826 A    
C46   C50   1.425796 A    
C17   C21   1.407125 A    
O8    C4    1.342538 A    
C51   C63   1.423745 A    
C22   C26   1.402655 A    
O9    C5    1.329744 A    
C25   C29   1.408473 A    
N1    O21   1.301225 A    
C26   C30   1.408465 A    
O6    V2    1.995191 S    
C16   H4    1.083302 S    
C3    C41   1.492264 S    
C23   C27   1.402648 A    
C13   C17   1.406334 A    
N3    O25   1.301242 A    
C61   C65   1.395865 A    
C64   N4    1.434343 S    
O16   V4    1.992841 S    
O9    V1    1.983341 S    
C16   C20   1.406383 A    
C40   Cl12  1.776983 S    
C3    O13   1.339548 A    
C26   Cl6   1.761191 S    
C27   C31   1.408473 A    
C44   C48   1.409678 A    
O6    C2    1.342526 A    
C15   H3    1.083292 S    
O11   V3    1.983351 S    
O12   V4    1.983352 S    
C18   C22   1.407097 A    
C45   Cl13  1.776245 S    
C57   C66   1.403536 A    
C28   C32   1.408465 A    
O10   C6    1.329770 A    
O20   V2    1.748745 S    
N4    O27   1.301319 A    
C66   H10   1.081188 S    
C14   C18   1.406382 A    
C47   C51   1.431184 A    
C40   C60   1.414740 A    
C64   C68   1.396232 A    
C23   H7    1.083468 S    
C13   H1    1.083290 S    
C65   H9    1.081426 S    
N1    O22   1.301466 A    
C21   H5    1.083469 S    
C11   Cl3   1.761001 S    
C29   C33   1.456191 S    
C20   C24   1.407097 A    
C39   C59   1.413163 A    
C9    C29   1.410184 A    
C33   C34   1.213390 T    
C42   C46   1.409682 A    
C4    O14   1.338467 A    
C41   C45   1.415213 A    
C11   C31   1.410183 A    
C1    C43   1.492215 S    
C12   C32   1.410174 A    
C43   C47   1.415128 A    
C49   C53   1.426320 A    
C24   H8    1.083446 S    
C60   C67   1.400724 A    
N2    O23   1.301328 A    
C62   N2    1.434395 S    
