data_mof_unit_17945.cif
_audit_creation_date              2012-12-11T14:14:33-0500
_audit_creation_method            fapswitch 2.2
_symmetry_space_group_name_H-M    P1
_symmetry_Int_Tables_number       1
_space_group_crystal_system       triclinic
_cell_length_a                    24.473063
_cell_length_b                    17.320759
_cell_length_c                    15.525158
_cell_angle_alpha                 89.999555
_cell_angle_beta                  128.179612
_cell_angle_gamma                 89.999967
_cell_volume                      5173.16473058

loop_
_atom_site_label
_atom_site_type_symbol
_atom_type_description
_atom_site_fract_x
_atom_site_fract_y
_atom_site_fract_z
_atom_type_partial_charge
C1    C     C_R   0.340330 0.376895 0.217047 -0.136932
C2    C     C_R   0.659674 0.376905 0.782968 -0.136931
C3    C     C_R   0.840333 0.876889 0.217054 -0.136937
C4    C     C_R   0.159668 0.876889 0.782947 -0.136934
C5    C     C_R   0.400368 0.627564 0.595297 -0.144632
C6    C     C_R   0.599632 0.627563 0.404701 -0.144624
C7    C     C_R   0.900361 0.127562 0.595290 -0.144706
C8    C     C_R   0.099633 0.127564 0.404703 -0.144637
C9    C     C_R   0.340705 0.661388 0.505912 0.106490
C10   C     C_R   0.659295 0.661387 0.494086 0.106485
C11   C     C_R   0.840696 0.161386 0.505897 0.106448
C12   C     C_R   0.159296 0.161387 0.494088 0.106476
C13   C     C_R   0.356250 0.631852 0.143225 0.148191
C14   C     C_R   0.643750 0.631853 0.856772 0.148192
C15   C     C_R   0.856250 0.131851 0.143226 0.148197
C16   C     C_R   0.143749 0.131855 0.856771 0.148187
C17   C     C_2   0.733914 0.667267 0.444111 -0.265754
C18   C     C_2   0.266091 0.667270 0.555895 -0.265764
C19   C     C_2   0.233906 0.167273 0.444097 -0.265755
C20   C     C_2   0.766126 0.167299 0.555966 -0.265780
C21   C     C_2   0.706763 0.704057 0.486893 0.115300
C22   C     C_2   0.293236 0.704058 0.513103 0.115305
C23   C     C_2   0.206767 0.204057 0.486901 0.115313
C24   C     C_2   0.793212 0.204054 0.513060 0.115397
C25   C     C_2   0.281285 0.204799 0.429913 0.383551
C26   C     C_2   0.718752 0.204822 0.570163 0.383552
C27   C     C_2   0.781294 0.704795 0.429931 0.383539
C28   C     C_2   0.218713 0.704799 0.570079 0.383562
C29   C     C_2   0.334334 0.244517 0.514932 -0.228799
C30   C     C_2   0.665657 0.244485 0.485124 -0.228815
C31   C     C_2   0.834331 0.744527 0.514945 -0.228782
C32   C     C_2   0.165669 0.744524 0.485063 -0.228788
C33   C     C_2   0.661383 0.272522 0.897216 -0.219715
C34   C     C_2   0.338622 0.272512 0.102800 -0.219731
C35   C     C_2   0.161373 0.772499 0.897185 -0.219724
C36   C     C_2   0.838626 0.772502 0.102813 -0.219727
C37   C     C_2   0.706120 0.228507 0.897266 -0.111629
C38   C     C_2   0.293886 0.228494 0.102750 -0.111609
C39   C     C_2   0.206109 0.728483 0.897238 -0.111601
C40   C     C_2   0.793889 0.728486 0.102759 -0.111598
C41   C     C_2   0.312352 0.664580 0.033643 -0.217823
C42   C     C_2   0.687647 0.664583 0.966353 -0.217822
C43   C     C_2   0.812354 0.164585 0.033648 -0.217836
C44   C     C_2   0.187646 0.164587 0.966350 -0.217822
C45   C     C_R   0.590256 0.360482 0.406530 -0.151004
C46   C     C_R   0.409740 0.360495 0.593483 -0.151014
C47   C     C_R   0.090263 0.860499 0.406516 -0.151017
C48   C     C_R   0.909737 0.860501 0.593486 -0.151014
C49   C     C_2   0.243937 0.669303 0.979193 -0.104841
C50   C     C_2   0.756061 0.669308 0.020802 -0.104839
C51   C     C_2   0.743941 0.169318 0.979206 -0.104840
C52   C     C_2   0.256060 0.169314 0.020797 -0.104842
C53   C     C_R   0.664725 0.359754 0.588910 -0.126418
C54   C     C_R   0.335272 0.359754 0.411102 -0.126442
C55   C     C_R   0.164730 0.859756 0.588897 -0.126440
C56   C     C_R   0.835270 0.859756 0.411105 -0.126446
C57   C     C_R   0.569338 0.374086 0.783854 -0.143530
C58   C     C_R   0.430664 0.374081 0.216153 -0.143547
C59   C     C_R   0.069334 0.874074 0.783840 -0.143522
C60   C     C_R   0.930666 0.874075 0.216159 -0.143525
C61   C     C_R   0.367576 0.340203 0.172484 0.153036
C62   C     C_R   0.632430 0.340214 0.827533 0.153032
C63   C     C_R   0.867580 0.840194 0.172495 0.153030
C64   C     C_R   0.132420 0.840193 0.827505 0.153028
C65   C     C_R   0.640182 0.316984 0.495615 0.148000
C66   C     C_R   0.359814 0.316997 0.504409 0.147976
C67   C     C_R   0.140189 0.817001 0.495589 0.147971
C68   C     C_R   0.859811 0.817002 0.504416 0.147966
C69   C     C_R   0.324929 0.628394 0.411338 -0.149222
C70   C     C_R   0.675071 0.628392 0.588660 -0.149227
C71   C     C_R   0.824929 0.128394 0.411330 -0.149139
C72   C     C_R   0.175070 0.128393 0.588662 -0.149211
C73   C     C_R   0.425459 0.611660 0.201711 -0.150737
C74   C     C_R   0.574540 0.611660 0.798288 -0.150736
C75   C     C_R   0.925459 0.111660 0.201711 -0.150741
C76   C     C_R   0.074540 0.111662 0.798287 -0.150729
C77   C     C_R   0.665309 0.609612 0.796354 -0.114312
C78   C     C_R   0.334691 0.609611 0.203645 -0.114311
C79   C     C_R   0.165308 0.109613 0.796353 -0.114312
C80   C     C_R   0.834691 0.109610 0.203645 -0.114304
H1    H     H_    0.287939 0.372428 0.190219 0.086189
H2    H     H_    0.712068 0.372445 0.809804 0.086185
H3    H     H_    0.787942 0.872421 0.190228 0.086190
H4    H     H_    0.212059 0.872421 0.809774 0.086189
H5    H     H_    0.349602 0.232963 0.596078 0.094139
H6    H     H_    0.650345 0.232875 0.403965 0.094145
H7    H     H_    0.849588 0.732986 0.596088 0.094136
H8    H     H_    0.150406 0.732978 0.403919 0.094136
H9    H     H_    0.218237 0.641126 0.007746 0.124619
H10   H     H_    0.781762 0.641132 0.992248 0.124618
H11   H     H_    0.718239 0.141143 0.007758 0.124621
H12   H     H_    0.281761 0.141138 0.992244 0.124619
H13   H     H_    0.722076 0.242808 0.847769 0.138474
H14   H     H_    0.277936 0.242787 0.152256 0.138460
H15   H     H_    0.222061 0.742779 0.847734 0.138456
H16   H     H_    0.777938 0.742779 0.152265 0.138454
H17   H     H_    0.337094 0.693827 0.003852 0.133073
H18   H     H_    0.662905 0.693828 0.996144 0.133071
H19   H     H_    0.837096 0.193829 0.003858 0.133094
H20   H     H_    0.162904 0.193832 0.996140 0.133077
H21   H     H_    0.645944 0.258317 0.947658 0.128669
H22   H     H_    0.354056 0.258312 0.052350 0.128671
H23   H     H_    0.145937 0.758298 0.947634 0.128670
H24   H     H_    0.854061 0.758303 0.052363 0.128670
H25   H     H_    0.566037 0.346841 0.322501 0.091732
H26   H     H_    0.433955 0.346868 0.677515 0.091734
H27   H     H_    0.066050 0.846877 0.322484 0.091732
H28   H     H_    0.933948 0.846880 0.677519 0.091730
H29   H     H_    0.708793 0.346670 0.671634 0.105724
H30   H     H_    0.291200 0.346661 0.328381 0.105719
H31   H     H_    0.208804 0.846661 0.671617 0.105721
H32   H     H_    0.791195 0.846660 0.328385 0.105716
H33   H     H_    0.539117 0.365925 0.812127 0.086110
H34   H     H_    0.460884 0.365921 0.187877 0.086111
H35   H     H_    0.039114 0.865911 0.812115 0.086108
H36   H     H_    0.960886 0.865912 0.187884 0.086109
H37   H     H_    0.277702 0.635452 0.328405 0.094185
H38   H     H_    0.722299 0.635450 0.671593 0.094185
H39   H     H_    0.777704 0.135451 0.328394 0.094170
H40   H     H_    0.222298 0.135451 0.671595 0.094182
H41   H     H_    0.455372 0.612382 0.171896 0.092743
H42   H     H_    0.544627 0.612383 0.828102 0.092742
H43   H     H_    0.955373 0.112383 0.171897 0.092742
H44   H     H_    0.044626 0.112386 0.828100 0.092746
H45   H     H_    0.717314 0.609137 0.820947 0.079315
H46   H     H_    0.282686 0.609137 0.179051 0.079316
H47   H     H_    0.217313 0.109138 0.820946 0.079316
H48   H     H_    0.782686 0.109135 0.179051 0.079312
H49   H     H_    0.422384 0.633700 0.680463 0.101411
H50   H     H_    0.577616 0.633698 0.319535 0.101409
H51   H     H_    0.922373 0.133698 0.680454 0.101418
H52   H     H_    0.077618 0.133699 0.319537 0.101410
H53   H     H_    0.718807 0.608055 0.415381 0.132467
H54   H     H_    0.281202 0.608061 0.584634 0.132471
H55   H     H_    0.218786 0.108067 0.415342 0.132461
H56   H     H_    0.781305 0.108122 0.584829 0.132443
N1    N     N_R   0.389060 0.424180 0.294540 -0.040825
N2    N     N_R   0.610940 0.424180 0.705460 -0.040825
N3    N     N_R   0.889060 0.924180 0.294540 -0.040825
N4    N     N_R   0.110940 0.924180 0.705460 -0.040825
N5    N     N_R   0.579670 0.423790 0.443360 -0.041305
N6    N     N_R   0.420330 0.423790 0.556640 -0.041303
N7    N     N_R   0.079670 0.923790 0.443360 -0.041302
N8    N     N_R   0.920330 0.923790 0.556640 -0.041301
N9    N     N_R   0.625470 0.423490 0.556600 -0.045537
N10   N     N_R   0.374530 0.423490 0.443400 -0.045529
N11   N     N_R   0.125470 0.923490 0.556600 -0.045529
N12   N     N_R   0.874530 0.923490 0.443400 -0.045527
N13   N     N_R   0.555250 0.423100 0.705420 -0.038566
N14   N     N_R   0.444750 0.423100 0.294580 -0.038566
N15   N     N_R   0.055250 0.923100 0.705420 -0.038568
N16   N     N_R   0.944750 0.923100 0.294580 -0.038567
N17   N     N_R   0.375210 0.577180 0.443400 -0.039858
N18   N     N_R   0.624790 0.577180 0.556600 -0.039858
N19   N     N_R   0.875210 0.077180 0.443400 -0.039864
N20   N     N_R   0.124790 0.077180 0.556600 -0.039858
N21   N     N_R   0.445430 0.577570 0.294580 -0.040338
N22   N     N_R   0.554570 0.577570 0.705420 -0.040338
N23   N     N_R   0.945430 0.077570 0.294580 -0.040339
N24   N     N_R   0.054570 0.077570 0.705420 -0.040338
N25   N     N_R   0.611620 0.576500 0.705460 -0.042459
N26   N     N_R   0.388380 0.576500 0.294540 -0.042460
N27   N     N_R   0.111620 0.076500 0.705460 -0.042461
N28   N     N_R   0.888380 0.076500 0.294540 -0.042464
N29   N     N_R   0.421010 0.576890 0.556640 -0.041342
N30   N     N_R   0.578990 0.576890 0.443360 -0.041342
N31   N     N_R   0.921010 0.076890 0.556640 -0.041333
N32   N     N_R   0.078990 0.076890 0.443360 -0.041341
Ni1   Ni    Ni4+2 0.383200 0.500680 0.370150 0.210290
Ni2   Ni    Ni4+2 0.616800 0.500680 0.629850 0.210285
Ni3   Ni    Ni4+2 0.883200 0.000680 0.370150 0.210291
Ni4   Ni    Ni4+2 0.116800 0.000680 0.629850 0.210292
Ni5   Ni    Ni4+2 0.512440 0.500680 0.370150 0.211201
Ni6   Ni    Ni4+2 0.487560 0.500680 0.629850 0.211199
Ni7   Ni    Ni4+2 0.012440 0.000680 0.370150 0.211197
Ni8   Ni    Ni4+2 0.987560 0.000680 0.629850 0.211196
N33   N     N_2   0.714926 0.784513 0.511921 -0.101294
H57   H     H_    0.764584 0.803562 0.572541 0.161846
C81   C     C_3   0.674200 0.835274 0.418186 -0.877313
H58   H     H_    0.679130 0.895522 0.446626 0.239803
H59   H     H_    0.618451 0.818593 0.366204 0.250474
H60   H     H_    0.692887 0.832921 0.368784 0.245450
N34   N     N_2   0.285063 0.784512 0.488055 -0.101298
H61   H     H_    0.235403 0.803554 0.427437 0.161848
C82   C     C_3   0.325788 0.835283 0.581776 -0.877341
H62   H     H_    0.320849 0.895528 0.553319 0.239803
H63   H     H_    0.381539 0.818610 0.633753 0.250481
H64   H     H_    0.307108 0.832933 0.631187 0.245458
N35   N     N_2   0.214955 0.284507 0.511979 -0.101298
H65   H     H_    0.264619 0.303533 0.572608 0.161839
C83   C     C_3   0.174243 0.335299 0.418278 -0.877305
H66   H     H_    0.179193 0.395540 0.446760 0.239793
H67   H     H_    0.118488 0.318640 0.366289 0.250476
H68   H     H_    0.192925 0.332956 0.368870 0.245455
N36   N     N_2   0.784914 0.284468 0.487762 -0.101321
H69   H     H_    0.735223 0.303404 0.427111 0.161817
C84   C     C_3   0.825595 0.335385 0.581315 -0.877356
H70   H     H_    0.820528 0.395592 0.552661 0.239798
H71   H     H_    0.881370 0.318832 0.633259 0.250511
H72   H     H_    0.806981 0.333068 0.630819 0.245479
C85   C     C_3   0.269120 0.195129 0.322983 -1.032986
H73   H     H_    0.259790 0.133264 0.299160 0.252227
H74   H     H_    0.222737 0.228809 0.257850 0.238243
H75   H     H_    0.315300 0.213189 0.330186 0.254286
C86   C     C_3   0.730989 0.195226 0.677158 -1.032878
H76   H     H_    0.740490 0.133389 0.701184 0.252180
H77   H     H_    0.777298 0.229066 0.742168 0.238185
H78   H     H_    0.684768 0.213163 0.669928 0.254272
C87   C     C_3   0.769151 0.695103 0.323022 -1.032984
H79   H     H_    0.759877 0.633227 0.299263 0.252236
H80   H     H_    0.722744 0.728731 0.257850 0.238255
H81   H     H_    0.815320 0.713204 0.330219 0.254284
C88   C     C_3   0.230863 0.695110 0.676996 -1.033046
H82   H     H_    0.240151 0.633239 0.700770 0.252243
H83   H     H_    0.277262 0.728749 0.742157 0.238262
H84   H     H_    0.184693 0.713196 0.669800 0.254294

loop_
_geom_bond_atom_site_label_1
_geom_bond_atom_site_label_2
_ccdc_geom_bond_type
N32   Ni7   S    
C15   C75   A    
C6    N30   A    
C72   N20   A    
C73   N21   A    
N2    Ni2   S    
N24   Ni8   S    
C85   H73   S    
N6    N10   A    
C19   C23   D    
C42   C50   D    
N7    Ni7   S    
C75   N23   A    
C6    H50   S    
C87   H81   S    
C13   C41   S    
C17   H53   S    
C77   H45   S    
C57   C62   A    
N6    Ni6   S    
C86   H76   S    
C75   H43   S    
N7    N11   A    
N26   Ni1   S    
C12   C23   S    
C48   N8    A    
C59   C64   A    
C34   H22   S    
C60   C63   A    
C33   H21   S    
C14   C74   A    
C43   H19   S    
C46   C66   A    
C35   H23   S    
N34   C82   S    
C37   C51   S    
C11   C71   A    
C9    C22   S    
C82   H63   S    
C38   C52   S    
N20   N32   A    
C19   H55   S    
C32   H8    S    
C16   C76   A    
C47   N7    A    
N3    N16   A    
C27   C87   S    
N12   Ni3   S    
C54   H30   S    
C84   H71   S    
N13   Ni6   S    
C60   N16   A    
C14   C77   A    
C41   C49   D    
N35   C83   S    
C80   N28   A    
C79   H47   S    
C8    N32   A    
N22   N25   A    
C51   H11   S    
C13   C78   A    
N16   Ni7   S    
C50   H10   S    
C20   C24   D    
N19   N31   A    
C33   C62   S    
N33   C81   S    
C57   N13   A    
C8    H52   S    
N3    Ni3   S    
C35   C64   S    
C5    N29   A    
C30   H6    S    
C36   C63   S    
C53   C65   A    
C16   C44   S    
C5    H49   S    
C7    H51   S    
N8    N12   A    
C14   C42   S    
C81   H60   S    
C55   H31   S    
C44   C52   D    
C58   C61   A    
C21   N33   S    
C12   C72   A    
C10   C21   S    
C70   N18   A    
C25   C29   D    
C85   H74   S    
C38   H14   S    
C84   H70   S    
C40   H16   S    
C47   C67   A    
C45   H25   S    
C7    C11   A    
C88   H83   S    
N2    N13   A    
C77   N25   A    
C31   C68   S    
C31   H7    S    
C74   N22   A    
C27   C31   D    
C83   H66   S    
C17   C27   S    
N24   N27   A    
C28   C32   D    
C18   C28   S    
C46   N6    A    
C79   N27   A    
C34   C38   D    
C82   H64   S    
C57   H33   S    
C80   H48   S    
C24   N36   S    
N29   Ni6   S    
C88   H82   S    
N20   Ni4   S    
C34   C61   S    
C33   C37   D    
C29   C66   S    
C2    N2    A    
C56   N12   A    
C84   H72   S    
C35   C39   D    
N34   H61   S    
C83   H67   S    
C5    C9    A    
C22   N34   S    
C59   N15   A    
C4    N4    A    
C55   N11   A    
C15   C80   A    
C4    H4    S    
C36   C40   D    
C8    C12   A    
C71   N19   A    
N8    Ni8   S    
C53   N9    A    
C87   H79   S    
N22   Ni6   S    
C37   H13   S    
C48   C68   A    
N27   Ni4   S    
C20   H56   S    
N4    N15   A    
C39   H15   S    
C45   N5    A    
C32   C67   S    
N25   Ni2   S    
C10   C70   A    
C59   H35   S    
C11   C24   S    
C39   C49   S    
C13   C73   A    
C26   C30   D    
C73   H41   S    
C72   H40   S    
N5    Ni5   S    
C3    H3    S    
C9    C69   A    
C85   H75   S    
C41   H17   S    
N1    N14   A    
C2    H2    S    
C26   C86   S    
C3    N3    A    
C78   H46   S    
C23   N35   S    
C1    N1    A    
N11   Ni4   S    
N21   Ni5   S    
C88   H84   S    
C53   H29   S    
C28   C88   S    
C7    N31   A    
N9    Ni2   S    
C76   N24   A    
N30   Ni5   S    
N15   Ni8   S    
N17   N29   A    
C18   C22   D    
C29   H5    S    
N1    Ni1   S    
C49   H9    S    
C1    C61   A    
C6    C10   A    
C55   C67   A    
C78   N26   A    
C54   C66   A    
C3    C63   A    
C81   H58   S    
C4    C64   A    
C47   H27   S    
C71   H39   S    
C54   N10   A    
C36   H24   S    
C16   C79   A    
C42   H18   S    
C83   H68   S    
C15   C43   S    
C60   H36   S    
C56   C68   A    
C74   H42   S    
C45   C65   A    
C44   H20   S    
N18   Ni2   S    
C43   C51   D    
C82   H62   S    
C48   H28   S    
C25   C85   S    
C20   C26   S    
C70   H38   S    
C40   C50   S    
C46   H26   S    
C69   H37   S    
N5    N9    A    
C87   H80   S    
C18   H54   S    
N35   H65   S    
C19   C25   S    
C69   N17   A    
C30   C65   S    
C52   H12   S    
C76   H44   S    
N36   H69   S    
N19   Ni3   S    
N14   Ni5   S    
N4    Ni4   S    
N33   H57   S    
N10   Ni1   S    
N17   Ni1   S    
C58   H34   S    
N23   N28   A    
N18   N30   A    
N28   Ni3   S    
N23   Ni7   S    
C86   H78   S    
C81   H59   S    
C86   H77   S    
C1    H1    S    
N21   N26   A    
C56   H32   S    
C58   N14   A    
C2    C62   A    
N31   Ni8   S    
N36   C84   S    
C17   C21   D    
