data_mof_unit_6355.cif
_audit_creation_date              2012-12-10T17:51:30-0500
_audit_creation_method            fapswitch 2.2
_symmetry_space_group_name_H-M    P1
_symmetry_Int_Tables_number       1
_space_group_crystal_system       triclinic
_cell_length_a                    14.685728
_cell_length_b                    14.716877
_cell_length_c                    17.342969
_cell_angle_alpha                 105.634279
_cell_angle_beta                  73.143071
_cell_angle_gamma                 114.809763
_cell_volume                      3208.67775272

loop_
_atom_site_label
_atom_site_type_symbol
_atom_type_description
_atom_site_fract_x
_atom_site_fract_y
_atom_site_fract_z
_atom_type_partial_charge
C1    C     C_R   0.118711 0.688060 0.513414 0.827275
C2    C     C_R   0.881272 0.311912 0.485945 0.827807
C3    C     C_R   0.185615 0.795686 0.516809 -0.094230
C4    C     C_R   0.814480 0.204055 0.474779 -0.094882
C5    C     C_R   0.211755 0.973147 0.529231 0.402938
C6    C     C_R   0.789330 0.024915 0.435214 0.402559
C7    C     C_R   0.145941 0.871085 0.529424 -0.293126
C8    C     C_R   0.854691 0.127412 0.447496 -0.293883
C9    C     C_R   0.291163 0.821937 0.503673 -0.263630
C10   C     C_R   0.708814 0.178565 0.490063 -0.270577
C11   C     C_R   0.359654 0.921994 0.498340 0.020789
C12   C     C_R   0.641223 0.077553 0.475145 0.018362
C13   C     C_R   0.318649 0.998624 0.514259 0.116556
C14   C     C_R   0.682614 0.000041 0.448922 0.120741
C15   C     C_R   0.467704 0.947805 0.479265 0.100011
C16   C     C_R   0.533610 0.051729 0.486801 0.100887
C17   C     C_R   0.489888 0.126156 0.503669 -0.268314
C18   C     C_R   0.511884 0.872894 0.450677 -0.281372
C19   C     C_R   0.385089 0.099778 0.515343 -0.176241
C20   C     C_R   0.616847 0.898626 0.436083 -0.175228
C21   C     C_R   0.290099 0.323322 0.367153 -0.315215
C22   C     C_R   0.712691 0.680517 0.627811 -0.320058
C23   C     C_R   0.990369 0.504439 0.652635 0.793282
C24   C     C_R   0.009262 0.494983 0.347345 0.794687
C25   C     C_R   0.208822 0.356098 0.387263 0.085428
C26   C     C_R   0.791719 0.645272 0.611219 0.082870
C27   C     C_R   0.287802 0.491436 0.485462 0.013850
C28   C     C_R   0.713202 0.508849 0.513423 0.014433
C29   C     C_R   0.375536 0.464358 0.465990 -0.029653
C30   C     C_R   0.628291 0.539238 0.528460 -0.029102
C31   C     C_R   0.374461 0.376036 0.406432 0.120618
C32   C     C_R   0.630701 0.629624 0.585815 0.120596
C33   C     C_R   0.462293 0.520784 0.504566 0.035128
C34   C     C_R   0.543281 0.484473 0.487553 0.036948
C35   C     C_R   0.537168 0.394587 0.430101 -0.238343
C36   C     C_R   0.471193 0.613845 0.558050 -0.234113
C37   C     C_R   0.456376 0.341378 0.387772 0.096234
C38   C     C_R   0.553239 0.668903 0.598813 0.100507
C39   C     C_R   0.987959 0.510395 0.738546 -0.030333
C40   C     C_R   0.009955 0.486388 0.261371 -0.028994
C41   C     C_R   0.068205 0.501528 0.760435 -0.203266
C42   C     C_R   0.927742 0.491784 0.239666 -0.203208
C43   C     C_R   0.066234 0.506821 0.841913 -0.145400
C44   C     C_R   0.927553 0.483042 0.158086 -0.146103
C45   C     C_R   0.983261 0.519854 0.902501 0.190538
C46   C     C_R   0.010272 0.470005 0.097206 0.190975
C47   C     C_R   0.904737 0.531936 0.881077 -0.169404
C48   C     C_R   0.090696 0.461157 0.118481 -0.168681
C49   C     C_R   0.906716 0.526811 0.799423 -0.193983
C50   C     C_R   0.090886 0.469728 0.200250 -0.193920
C51   C     C_2   0.976866 0.521380 0.988553 -0.228360
C52   C     C_2   0.015164 0.466716 0.011124 -0.229756
Cu1   Cu    Cu3+1 0.916740 0.524770 0.521640 0.938270
Cu2   Cu    Cu3+1 0.083260 0.475230 0.478360 0.939474
H1    H     H_    0.132834 0.490999 0.714756 0.155058
H2    H     H_    0.863206 0.502163 0.285572 0.153862
H3    H     H_    0.534540 0.206013 0.505279 0.140511
H4    H     H_    0.467488 0.793003 0.436682 0.150427
H5    H     H_    0.721241 0.445276 0.467963 0.118751
H6    H     H_    0.278596 0.552422 0.533686 0.117797
H7    H     H_    0.855235 0.686454 0.642362 0.123812
H8    H     H_    0.144405 0.314460 0.357164 0.123266
H9    H     H_    0.284740 0.255903 0.321366 0.133532
H10   H     H_    0.717993 0.748523 0.672911 0.132704
H11   H     H_    0.595566 0.364390 0.417262 0.122498
H12   H     H_    0.415113 0.646128 0.567141 0.122610
H13   H     H_    0.154592 0.464108 0.215540 0.153899
H14   H     H_    0.844410 0.534906 0.784026 0.154227
H15   H     H_    0.054575 0.421309 0.965673 0.147680
H16   H     H_    0.937552 0.566826 0.034094 0.148647
H17   H     H_    0.840921 0.543297 0.927405 0.125838
H18   H     H_    0.154415 0.449957 0.071928 0.125563
H19   H     H_    0.862406 0.485868 0.142924 0.126522
H20   H     H_    0.130118 0.501663 0.857195 0.126301
H21   H     H_    0.356294 0.159932 0.526471 0.201370
H22   H     H_    0.646192 0.837892 0.414707 0.201150
H23   H     H_    0.680934 0.239444 0.515141 0.163428
H24   H     H_    0.318220 0.762862 0.499538 0.154376
H25   H     H_    0.936734 0.147133 0.435864 0.153087
H26   H     H_    0.063952 0.850731 0.539451 0.154270
N1    N     N_R   0.208390 0.438070 0.445820 -0.178885
N2    N     N_R   0.791610 0.561930 0.554180 -0.179061
O1    O     O_R   0.020090 0.662480 0.528530 -0.587597
O2    O     O_R   0.979910 0.337520 0.471470 -0.586812
O3    O     O_R   0.160710 0.620650 0.491980 -0.593563
O4    O     O_R   0.839290 0.379350 0.508020 -0.595745
O5    O     O_R   0.921540 0.523360 0.633990 -0.589971
O6    O     O_R   0.078460 0.476640 0.366010 -0.590203
O7    O     O_R   0.062170 0.481520 0.597440 -0.587123
O8    O     O_R   0.937830 0.518480 0.402560 -0.586960
C53   C     C_3   0.455188 0.246403 0.323372 -0.407567
C54   C     C_3   0.550297 0.217984 0.302167 -0.362764
C55   C     C_3   0.539446 0.123783 0.235937 -0.821331
H27   H     H_    0.471738 0.057932 0.257145 0.258014
H28   H     H_    0.530859 0.137748 0.179071 0.249285
H29   H     H_    0.608929 0.105054 0.222109 0.245014
H30   H     H_    0.619578 0.281956 0.279754 0.219116
H31   H     H_    0.560623 0.201093 0.356935 0.227363
H32   H     H_    0.387212 0.180721 0.344758 0.210203
H33   H     H_    0.446488 0.258292 0.265646 0.197220
C56   C     C_3   0.561095 0.771118 0.654806 -0.405808
C57   C     C_3   0.477332 0.811451 0.661640 -0.364443
C58   C     C_3   0.498299 0.916432 0.714768 -0.819877
H34   H     H_    0.500636 0.913341 0.777428 0.250101
H35   H     H_    0.572393 0.971663 0.687517 0.257329
H36   H     H_    0.436372 0.943071 0.718785 0.245676
H37   H     H_    0.474786 0.818009 0.600136 0.232705
H38   H     H_    0.401561 0.758731 0.689259 0.216928
H39   H     H_    0.560134 0.764381 0.717395 0.194120
H40   H     H_    0.636025 0.829051 0.631874 0.211163
O9    O     O_3   0.173448 0.048647 0.542942 -0.753979
H41   H     H_    0.097609 0.017836 0.552156 0.323385
O10   O     O_3   0.828013 0.948308 0.409458 -0.753224
H42   H     H_    0.903607 0.978754 0.403131 0.323712

loop_
_geom_bond_atom_site_label_1
_geom_bond_atom_site_label_2
_ccdc_geom_bond_type
C15   C18   A    
Cu2   O6    S    
C55   H27   S    
C49   H14   S    
C29   C33   A    
C27   C29   A    
C2    O2    A    
O9    H41   S    
C4    C8    A    
Cu2   O2    S    
C54   H31   S    
C39   C41   A    
Cu1   Cu2   S    
C21   C31   A    
C56   C57   S    
C22   C32   A    
C35   C37   A    
C26   H7    S    
C38   C56   S    
C3    C7    A    
C27   H6    S    
C36   H12   S    
C35   H11   S    
C56   H39   S    
C15   C16   A    
C46   C52   S    
C33   C36   A    
C20   H22   S    
C34   C35   A    
C41   H1    S    
C52   H15   S    
C42   H2    S    
C11   C15   A    
C18   H4    S    
C12   C16   A    
C16   C17   A    
C8    H25   S    
C23   O7    A    
C57   H38   S    
Cu1   O4    S    
C51   H16   S    
C32   C38   A    
C53   H33   S    
C50   H13   S    
C5    C13   A    
C25   H8    S    
C43   H20   S    
C40   C42   A    
C26   N2    A    
C23   O5    A    
C25   N1    A    
C41   C43   A    
C57   C58   S    
C42   C44   A    
C48   H18   S    
C10   H23   S    
C44   C46   A    
C54   H30   S    
C45   C47   A    
C1    O3    A    
C46   C48   A    
C30   C34   A    
C28   N2    A    
C51   C52   D    
C14   C20   A    
C27   N1    A    
Cu2   O7    S    
C47   C49   A    
C53   C54   S    
C5    C7    A    
C13   C19   A    
C6    C8    A    
C5    O9    S    
C56   H40   S    
C31   C37   A    
Cu1   N2    S    
C1    C3    S    
C2    C4    S    
C6    O10   S    
C3    C9    A    
C6    C14   A    
C24   O6    A    
C33   C34   A    
C57   H37   S    
Cu1   O5    S    
C48   C50   A    
C43   C45   A    
C47   H17   S    
C10   C12   A    
C39   C49   A    
C12   C14   A    
C55   H29   S    
C9    C11   A    
C58   H35   S    
C4    C10   A    
Cu1   O8    S    
O10   H42   S    
C28   H5    S    
C21   C25   A    
C24   C40   S    
C24   O8    A    
Cu2   O3    S    
C1    O1    A    
Cu1   O1    S    
C36   C38   A    
C28   C30   A    
C29   C31   A    
C30   C32   A    
C11   C13   A    
C23   C39   S    
C19   H21   S    
C54   C55   S    
C17   C19   A    
C2    O4    A    
C58   H36   S    
C18   C20   A    
C9    H24   S    
C44   H19   S    
C21   H9    S    
C22   H10   S    
C40   C50   A    
C55   H28   S    
C22   C26   A    
C58   H34   S    
C45   C51   S    
C53   H32   S    
Cu2   N1    S    
C37   C53   S    
C17   H3    S    
C7    H26   S    
