data_mof_unit_18751.cif
_audit_creation_date              2012-12-10T18:33:48-0500
_audit_creation_method            fapswitch 2.2
_symmetry_space_group_name_H-M    P1
_symmetry_Int_Tables_number       1
_space_group_crystal_system       triclinic
_cell_length_a                    10.494839
_cell_length_b                    14.992504
_cell_length_c                    15.350589
_cell_angle_alpha                 82.42179
_cell_angle_beta                  89.438573
_cell_angle_gamma                 104.262051
_cell_volume                      2318.18460397

loop_
_atom_site_label
_atom_site_type_symbol
_atom_type_description
_atom_site_fract_x
_atom_site_fract_y
_atom_site_fract_z
_atom_type_partial_charge
C1    C     C_R   0.477270 0.441814 0.662489 0.870268
C2    C     C_R   0.390940 0.477626 0.048754 0.088014
C3    C     C_R   0.361421 0.381851 0.081138 -0.227724
C4    C     C_R   0.383454 0.597196 0.927726 -0.225885
C5    C     C_R   0.348423 0.315688 0.024334 -0.249505
C6    C     C_R   0.398221 0.663266 0.985043 -0.249156
C7    C     C_R   0.708273 0.844285 0.629702 -0.331046
C8    C     C_R   0.290938 0.155038 0.371384 -0.333213
C9    C     C_R   0.668989 0.754110 0.610684 0.026655
C10   C     C_R   0.332043 0.245794 0.388640 0.023929
C11   C     C_R   0.511838 0.793723 0.513432 -0.054540
C12   C     C_R   0.514463 0.557957 0.337521 0.869418
C13   C     C_R   0.486046 0.205967 0.488432 -0.052922
C14   C     C_R   0.542693 0.886098 0.532687 -0.009321
C15   C     C_R   0.453446 0.112936 0.471004 -0.009605
C16   C     C_R   0.742267 0.500286 0.500867 0.872614
C17   C     C_R   0.257847 0.499742 0.499064 0.867570
C18   C     C_R   0.647738 0.912515 0.589707 0.103767
C19   C     C_R   0.348467 0.086328 0.413984 0.106315
C20   C     C_R   0.474975 0.952418 0.495417 0.023527
C21   C     C_R   0.519646 0.046281 0.509727 0.022559
C22   C     C_R   0.630497 0.071511 0.561099 -0.231960
C23   C     C_R   0.430280 0.468520 0.811942 -0.277892
C24   C     C_R   0.362627 0.926792 0.445480 -0.233844
C25   C     C_R   0.692447 0.006223 0.603797 0.160335
C26   C     C_R   0.300597 0.992005 0.402686 0.161024
C27   C     C_3   0.926439 0.411466 0.510111 -0.195807
C28   C     C_3   0.073952 0.588437 0.490054 -0.195438
C29   C     C_3   0.024952 0.454539 0.575815 0.205686
C30   C     C_3   0.975584 0.545395 0.424302 0.209167
C31   C     C_3   0.122708 0.499243 0.499067 -0.061549
C32   C     C_3   0.877581 0.500723 0.501005 -0.064290
C33   C     C_3   0.026560 0.456860 0.432468 -0.198022
C34   C     C_R   0.467891 0.525802 0.188013 -0.273147
C35   C     C_3   0.973839 0.543051 0.567697 -0.201461
C36   C     C_R   0.442486 0.405968 0.755248 -0.120235
C37   C     C_R   0.496037 0.591175 0.245619 -0.116389
C38   C     C_R   0.377791 0.277374 0.875173 0.168227
C39   C     C_R   0.455399 0.709566 0.131429 0.168765
C40   C     C_R   0.413495 0.310817 0.785945 -0.194877
C41   C     C_R   0.488882 0.682499 0.218036 -0.199109
C42   C     C_3   0.059462 0.402630 0.661242 -0.412424
C43   C     C_3   0.943252 0.374679 0.728041 -0.868935
C44   C     C_3   0.943569 0.597675 0.338359 -0.419962
C45   C     C_R   0.392589 0.438980 0.900304 0.070988
C46   C     C_3   0.061361 0.624801 0.272656 -0.858881
C47   C     C_3   0.349498 0.173755 0.909689 -0.423023
C48   C     C_3   0.355273 0.108917 0.841406 -0.887025
C49   C     C_3   0.450085 0.809527 0.099989 -0.424176
C50   C     C_3   0.481747 0.877491 0.167571 -0.881545
C51   C     C_3   0.808441 0.035330 0.662531 -0.402844
C52   C     C_3   0.850328 0.138081 0.674534 -0.904146
C53   C     C_3   0.181394 0.962349 0.346733 -0.404448
C54   C     C_3   0.130513 0.858240 0.342504 -0.900944
C55   C     C_R   0.425061 0.547243 0.104310 0.067368
C56   C     C_R   0.371570 0.342950 0.933384 0.100222
C57   C     C_R   0.425599 0.640960 0.073472 0.098766
C58   C     C_R   0.387822 0.504784 0.957848 0.086980
H1    H     H_    0.555222 0.231129 0.536179 0.121537
H2    H     H_    0.137773 0.660357 0.481008 0.145699
H3    H     H_    0.052487 0.422199 0.377648 0.144379
H4    H     H_    0.948034 0.577705 0.622553 0.143323
H5    H     H_    0.326880 0.243586 0.053376 0.141117
H6    H     H_    0.393499 0.732643 0.957957 0.143058
H7    H     H_    0.482314 0.457527 0.209036 0.168858
H8    H     H_    0.456767 0.541579 0.786836 0.169875
H9    H     H_    0.508460 0.731356 0.265003 0.171507
H10   H     H_    0.420982 0.263786 0.739664 0.173284
H11   H     H_    0.345290 0.356392 0.150595 0.142558
H12   H     H_    0.442320 0.769043 0.465650 0.120454
H13   H     H_    0.365043 0.619445 0.860225 0.147118
H14   H     H_    0.919851 0.437463 0.748342 0.256474
H15   H     H_    0.855129 0.333103 0.699458 0.257931
H16   H     H_    0.968457 0.332308 0.787170 0.257614
H17   H     H_    0.088184 0.339467 0.646543 0.212761
H18   H     H_    0.144457 0.447981 0.689621 0.206227
H19   H     H_    0.149615 0.664999 0.302222 0.257160
H20   H     H_    0.083605 0.561713 0.252200 0.257947
H21   H     H_    0.038662 0.668240 0.213409 0.254060
H22   H     H_    0.858834 0.552834 0.309296 0.203243
H23   H     H_    0.286473 0.298306 0.357221 0.127360
H24   H     H_    0.915470 0.661201 0.352588 0.212367
H25   H     H_    0.282589 0.115139 0.790269 0.260353
H26   H     H_    0.455958 0.124610 0.810566 0.258566
H27   H     H_    0.330561 0.035885 0.874355 0.251922
H28   H     H_    0.421549 0.163047 0.960120 0.207503
H29   H     H_    0.249222 0.151284 0.941817 0.205515
H30   H     H_    0.410768 0.854518 0.225019 0.256014
H31   H     H_    0.583826 0.883981 0.189410 0.259972
H32   H     H_    0.473810 0.947194 0.137019 0.253686
H33   H     H_    0.521042 0.837712 0.042915 0.207439
H34   H     H_    0.716386 0.701914 0.640469 0.131357
H35   H     H_    0.349544 0.808971 0.077550 0.206708
H36   H     H_    0.886028 0.182051 0.610775 0.258652
H37   H     H_    0.767290 0.159731 0.703607 0.257387
H38   H     H_    0.932431 0.148892 0.720223 0.260939
H39   H     H_    0.782705 0.995141 0.729215 0.205971
H40   H     H_    0.895659 0.017107 0.635098 0.209213
H41   H     H_    0.207676 0.830787 0.313430 0.254338
H42   H     H_    0.097734 0.819772 0.409029 0.258926
H43   H     H_    0.044662 0.846705 0.299934 0.259680
H44   H     H_    0.098179 0.986186 0.372857 0.210201
H45   H     H_    0.786869 0.859304 0.674645 0.138289
H46   H     H_    0.206812 0.997442 0.278150 0.204719
H47   H     H_    0.213381 0.139956 0.325694 0.136578
H48   H     H_    0.672120 0.142857 0.567357 0.152867
H49   H     H_    0.320017 0.855165 0.440658 0.152101
H50   H     H_    0.862723 0.339514 0.519177 0.145380
N1    N     N_R   0.574200 0.731700 0.552740 -0.100308
N2    N     N_R   0.425800 0.268300 0.447260 -0.098897
O1    O     O_R   0.462600 0.383110 0.605620 -0.620932
O2    O     O_R   0.537400 0.616890 0.394380 -0.619541
O3    O     O_R   0.510210 0.531900 0.639510 -0.619362
O4    O     O_R   0.489790 0.468100 0.360490 -0.618634
O5    O     O_R   0.662240 0.425610 0.483080 -0.621296
O6    O     O_R   0.337760 0.574390 0.516920 -0.624759
O7    O     O_R   0.709860 0.574400 0.516970 -0.623076
O8    O     O_R   0.290140 0.425600 0.483030 -0.624348
Zn1   Zn    Zn3+2 0.468210 0.400660 0.477370 0.927743
Zn2   Zn    Zn3+2 0.531790 0.599340 0.522630 0.926354

loop_
_geom_bond_atom_site_label_1
_geom_bond_atom_site_label_2
_ccdc_geom_bond_type
C43   H15   S    
C30   C32   S    
C26   C53   S    
C51   H39   S    
C43   H14   S    
C23   C45   A    
C29   C42   S    
C11   N1    A    
C34   C37   A    
C14   C18   A    
C5    C56   A    
C30   C44   S    
C8    H47   S    
C11   H12   S    
C39   C41   A    
C53   C54   S    
C27   C33   S    
C15   C19   A    
C42   H17   S    
C23   H8    S    
C3    H11   S    
C24   C26   A    
C44   H24   S    
C2    C55   A    
C46   H21   S    
C8    C10   A    
C11   C14   A    
C27   C29   S    
C53   H46   S    
C39   C57   A    
C5    H5    S    
C52   H37   S    
O1    Zn1   S    
C6    H6    S    
C12   C37   S    
C19   C26   A    
O8    Zn1   S    
C54   H43   S    
C50   H32   S    
C20   C24   A    
C28   C35   S    
C22   C25   A    
C31   C33   S    
C52   H36   S    
O4    Zn1   S    
C50   H30   S    
C43   H16   S    
N1    Zn2   S    
C34   C55   A    
C7    H45   S    
C21   C22   A    
C6    C57   A    
C54   H42   S    
C18   C25   A    
C1    O3    A    
C49   H33   S    
C10   N2    A    
C9    H34   S    
C44   C46   S    
C12   O4    A    
C28   H2    S    
C9    N1    A    
C45   C58   A    
C8    C19   A    
C51   C52   S    
C32   C35   S    
C14   C20   A    
C44   H22   S    
C45   C56   A    
C41   H9    S    
O7    Zn2   S    
O2    Zn2   S    
C22   H48   S    
C48   H26   S    
C47   H29   S    
C25   C51   S    
C13   N2    A    
O3    Zn2   S    
C50   H31   S    
C47   C48   S    
C36   C40   A    
C53   H44   S    
C7    C18   A    
C24   H49   S    
C38   C47   S    
C17   O8    A    
C4    C6    A    
C39   C49   S    
C23   C36   A    
O5    Zn1   S    
C55   C57   A    
C34   H7    S    
C17   C31   S    
C54   H41   S    
C42   C43   S    
C16   O5    A    
C12   O2    A    
C46   H20   S    
C7    C9    A    
C30   C33   S    
C27   C32   S    
C28   C31   S    
C3    C5    A    
N2    Zn1   S    
C46   H19   S    
C2    C58   A    
C13   H1    S    
C16   C32   S    
C29   C35   S    
C10   H23   S    
C42   H18   S    
C48   H25   S    
C13   C15   A    
C2    C3    A    
C29   C31   S    
C16   O7    A    
C1    O1    A    
C38   C40   A    
C27   H50   S    
C51   H40   S    
C28   C30   S    
C52   H38   S    
C35   H4    S    
C37   C41   A    
O6    Zn2   S    
C15   C21   A    
C38   C56   A    
C20   C21   A    
C17   O6    A    
C33   H3    S    
C49   C50   S    
C40   H10   S    
C4    C58   A    
C47   H28   S    
C48   H27   S    
C49   H35   S    
C4    H13   S    
C1    C36   S    
