data_mof_unit_35603.cif
_audit_creation_date              2012-12-10T20:38:21-0500
_audit_creation_method            fapswitch 2.2
_symmetry_space_group_name_H-M    P1
_symmetry_Int_Tables_number       1
_space_group_crystal_system       triclinic
_cell_length_a                    9.861462
_cell_length_b                    10.680537
_cell_length_c                    16.816091
_cell_angle_alpha                 89.752065
_cell_angle_beta                  84.356192
_cell_angle_gamma                 89.915163
_cell_volume                      1762.56349229

loop_
_atom_site_label
_atom_site_type_symbol
_atom_type_description
_atom_site_fract_x
_atom_site_fract_y
_atom_site_fract_z
_atom_type_partial_charge
C1    C     C_R   0.500396 0.740102 0.497268 0.889428
C2    C     C_R   0.366249 0.382473 0.773629 -0.015454
C3    C     C_R   0.458085 0.340518 0.156528 -0.151845
C4    C     C_R   0.439630 0.381988 0.234661 -0.211966
C5    C     C_R   0.653276 0.496092 0.214830 -0.205866
C6    C     C_R   0.670313 0.456701 0.135853 -0.169453
C7    C     C_R   0.570334 0.382562 0.105767 0.201227
C8    C     C_2   0.459109 0.377950 0.983892 -0.226866
C9    C     C_2   0.574239 0.368189 0.019413 -0.231246
C10   C     C_R   0.535529 0.462135 0.263491 -0.023013
C11   C     C_R   0.380706 0.936417 0.480435 0.136400
C12   C     C_R   0.479804 0.493649 0.652838 0.846238
C13   C     C_R   0.502542 0.871486 0.483714 -0.108923
C14   C     C_R   0.627141 0.935277 0.471112 -0.227995
C15   C     C_R   0.627190 0.064746 0.471206 -0.214849
C16   C     C_R   0.502662 0.128702 0.483967 -0.102432
C17   C     C_R   0.380745 0.064206 0.480628 0.122281
C18   C     C_3   0.250305 0.070847 0.533887 -0.457797
C19   C     C_3   0.250306 0.929004 0.533632 -0.484678
C20   C     C_R   0.917251 0.511417 0.569868 0.246670
C21   C     C_R   0.939406 0.477379 0.431922 -0.150458
C22   C     C_R   0.083244 0.477273 0.431926 -0.136260
C23   C     C_R   0.500534 0.259916 0.497397 0.864590
C24   C     C_R   0.059773 0.511136 0.569864 0.223161
C25   C     C_3   0.056636 0.618077 0.626489 -0.503597
C26   C     C_3   0.902711 0.618887 0.626381 -0.506459
C27   C     C_R   0.519981 0.495673 0.347126 0.857545
C28   C     C_R   0.464881 0.468196 0.738184 -0.124081
C29   C     C_R   0.557338 0.525238 0.784461 -0.202234
C30   C     C_R   0.556396 0.495695 0.864569 -0.136896
C31   C     C_R   0.462061 0.408992 0.899533 0.144707
C32   C     C_R   0.364671 0.356433 0.855210 -0.143476
H1    H     H_    0.630846 0.592604 0.758393 0.145160
H2    H     H_    0.757722 0.489275 0.097254 0.127541
H3    H     H_    0.723853 0.886317 0.467146 0.171861
H4    H     H_    0.723908 0.113475 0.467237 0.174255
H5    H     H_    0.263512 0.110688 0.593522 0.209074
H6    H     H_    0.166162 0.112481 0.503086 0.205922
H7    H     H_    0.263783 0.887297 0.593069 0.205673
H8    H     H_    0.166209 0.888524 0.502559 0.203590
H9    H     H_    0.894636 0.461019 0.376735 0.153232
H10   H     H_    0.146020 0.460623 0.376635 0.153402
H11   H     H_    0.091117 0.590162 0.685009 0.216071
H12   H     H_    0.351522 0.349881 0.272863 0.145364
H13   H     H_    0.106385 0.703150 0.599085 0.210450
H14   H     H_    0.849241 0.591683 0.685054 0.205158
H15   H     H_    0.862694 0.704586 0.598966 0.212542
H16   H     H_    0.730145 0.554927 0.237422 0.144112
H17   H     H_    0.672524 0.373340 0.984058 0.157226
H18   H     H_    0.291574 0.290604 0.883857 0.171906
H19   H     H_    0.382450 0.278980 0.135270 0.129082
H20   H     H_    0.359686 0.374561 0.017857 0.152020
H21   H     H_    0.628401 0.541742 0.899336 0.136271
N1    N     N_R   0.857140 0.500860 0.500530 -0.111072
N2    N     N_R   0.142780 0.500820 0.500530 -0.110519
O1    O     O_R   0.385310 0.683210 0.499990 -0.609499
O2    O     O_R   0.614650 0.683240 0.500000 -0.621208
O3    O     O_R   0.371780 0.500000 0.615800 -0.632633
O4    O     O_R   0.601120 0.500040 0.615800 -0.602136
O5    O     O_R   0.385350 0.316760 0.500000 -0.627246
O6    O     O_R   0.614690 0.316790 0.500010 -0.615810
O7    O     O_R   0.398880 0.499960 0.384200 -0.625623
O8    O     O_R   0.628220 0.500000 0.384200 -0.624462
Zn1   Zn    Zn3+2 0.346870 0.499980 0.499990 0.937352
Zn2   Zn    Zn3+2 0.653130 0.500020 0.500010 0.946642
C33   C     C_2   0.270963 0.312393 0.726920 0.358480
H22   H     H_    0.290686 0.302372 0.662907 0.093166
O9    O     O_2   0.169171 0.262445 0.760063 -0.581747

loop_
_geom_bond_atom_site_label_1
_geom_bond_atom_site_label_2
_ccdc_geom_bond_type
C10   C27   S    
C33   O9    D    
O1    Zn1   S    
C22   N2    A    
C32   H18   S    
C27   O7    A    
O6    Zn2   S    
C8    H20   S    
O7    Zn1   S    
C31   C32   A    
C21   N1    A    
O5    Zn1   S    
C6    C7    A    
C12   O3    A    
N2    Zn1   S    
C25   H11   S    
O8    Zn2   S    
C17   C18   S    
C18   H6    S    
C5    C10   A    
N1    Zn2   S    
C22   H10   S    
C21   C22   A    
O4    Zn2   S    
C24   N2    A    
C11   C13   A    
C30   C31   A    
C11   C19   S    
C29   C30   A    
C20   C26   S    
C26   H15   S    
C12   C28   S    
C21   H9    S    
C5    C6    A    
C19   H7    S    
C2    C32   A    
C28   C29   A    
C30   H21   S    
C18   H5    S    
C33   H22   S    
C16   C23   S    
C3    C7    A    
C12   O4    A    
O3    Zn1   S    
C23   O5    A    
C20   C24   A    
C5    H16   S    
C1    C13   S    
C19   H8    S    
C26   H14   S    
C4    C10   A    
C15   C16   A    
C16   C17   A    
C25   H13   S    
C15   H4    S    
C23   O6    A    
C9    H17   S    
C24   C25   S    
C20   N1    A    
C18   C19   S    
C14   H3    S    
C7    C9    S    
C3    H19   S    
C14   C15   A    
C27   O8    A    
C2    C28   A    
C4    H12   S    
C25   C26   S    
C13   C14   A    
C8    C31   S    
C1    O1    A    
C11   C17   A    
C3    C4    A    
C6    H2    S    
C29   H1    S    
O2    Zn2   S    
C8    C9    D    
C2    C33   S    
C1    O2    A    
