data_mof_unit_66762.cif
_audit_creation_date              2013-03-05T15:40:48-0500
_audit_creation_method            fapswitch 2.2
_symmetry_space_group_name_H-M    P1
_symmetry_Int_Tables_number       1
_space_group_crystal_system       triclinic
_cell_length_a                    8.482421
_cell_length_b                    13.243369
_cell_length_c                    15.281871
_cell_angle_alpha                 96.801946
_cell_angle_beta                  99.356258
_cell_angle_gamma                 98.322585
_cell_volume                      1658.21035088

loop_
_atom_site_label
_atom_site_type_symbol
_atom_site_description
_atom_site_fract_x
_atom_site_fract_y
_atom_site_fract_z
_atom_type_partial_charge
P1    P     P_3+3 0.998660 0.747790 0.570900 0.425961
O1    O     O_2   0.168170 0.764170 0.543850 -0.344672
O2    O     O_3   0.898670 0.629780 0.545890 -0.431776
O3    O     O_3   0.365980 0.695510 0.380810 -0.373486
O4    O     O_2   0.318155 0.876717 0.455129 -0.372093
O5    O     O_3   0.064128 0.763216 0.688460 -0.603128
O6    O     O_3   0.318781 0.865512 0.287489 -0.508734
C1    C     C_3   0.381466 0.921392 0.152675 0.185931
H1    H     H_    0.433212 0.898342 0.092638 0.011002
P2    P     P_3+3 0.306970 0.411860 0.294270 0.464930
P3    P     P_3+3 0.884558 0.625587 0.221736 0.433676
O7    O     O_2   0.136040 0.444100 0.280280 -0.382238
O8    O     O_3   0.934510 0.640480 0.335500 -0.372289
O9    O     O_2   0.007514 0.565727 0.183302 -0.388413
O10   O     O_3   0.265543 0.276440 0.271321 -0.579174
O11   O     O_3   0.935538 0.751510 0.200223 -0.519060
C2    C     C_3   0.882168 0.817881 0.263505 0.571196
H2    H     H_    0.978228 0.841060 0.324353 0.133800
H3    H     H_    0.767524 0.783134 0.282807 0.013254
C3    C     C_3   0.848712 0.912418 0.223271 -1.093938
H4    H     H_    0.802057 0.963315 0.272128 0.231223
H5    H     H_    0.960637 0.952620 0.205768 0.317831
C4    C     C_3   0.841451 0.256068 0.260168 0.631940
H6    H     H_    0.952162 0.305803 0.298157 0.132974
C5    C     C_3   0.885376 0.156003 0.220475 -1.065593
H7    H     H_    0.774752 0.103370 0.184027 0.275200
H8    H     H_    0.972931 0.169855 0.175410 0.271822
H9    H     H_    0.942711 0.120022 0.276220 0.239365
Ba1   Ba    Ba6+2 0.153570 0.551840 0.456200 1.511799
C6    C     C_3   0.938944 0.735248 0.734979 0.456187
H10   H     H_    0.937722 0.655885 0.747733 0.121668
H11   H     H_    0.820559 0.741417 0.697636 0.112207
C7    C     C_3   0.970371 0.799431 0.827971 -1.136564
H12   H     H_    0.991966 0.883195 0.823677 0.260185
H13   H     H_    0.074003 0.779305 0.872108 0.268952
H14   H     H_    0.865924 0.780875 0.861682 0.264098
C8    C     C_3   0.269345 0.232266 0.350651 0.403077
H15   H     H_    0.151947 0.233480 0.371661 0.025692
H16   H     H_    0.366962 0.271844 0.406113 0.168946
C9    C     C_3   0.297191 0.121193 0.333425 -0.911958
H17   H     H_    0.196350 0.073549 0.283955 0.258018
H18   H     H_    0.305753 0.087060 0.396538 0.249929
H19   H     H_    0.411909 0.119137 0.307821 0.266194
P4    P     P_3+3 0.811620 0.252200 0.429030 0.455123
O12   O     O_2   0.642110 0.235770 0.456130 -0.333854
O13   O     O_3   0.911620 0.370210 0.454030 -0.438920
O14   O     O_3   0.444310 0.304480 0.619110 -0.407215
O15   O     O_3   0.727566 0.231904 0.314430 -0.574803
P5    P     P_3+3 0.918733 0.371747 0.782435 0.452618
O16   O     O_3   0.400800 0.556680 0.607590 -0.426414
O17   O     O_3   0.875770 0.359510 0.664420 -0.382549
O18   O     O_2   0.810868 0.444061 0.819840 -0.399059
O19   O     O_3   0.847669 0.250820 0.807093 -0.492348
Ba2   Ba    Ba6+2 0.656590 0.448150 0.543720 1.507671
P6    P     P_3+3 0.414591 0.830491 0.387443 0.449132
C10   C     C_3   0.400970 0.841344 0.216689 0.660263
H20   H     H_    0.533015 0.850163 0.241790 -0.179442
H21   H     H_    0.452360 0.997082 0.186614 0.057085
O20   O     O_3   0.409490 0.443300 0.392340 -0.407270
C11   C     C_3   0.456536 0.761816 0.759010 0.741445
H22   H     H_    0.357887 0.728658 0.701374 0.117433
C12   C     C_3   0.379714 0.799330 0.837789 -1.154080
H23   H     H_    0.472789 0.839658 0.894824 0.284457
H24   H     H_    0.294972 0.852258 0.821494 0.276864
H25   H     H_    0.310409 0.731535 0.858550 0.254161
P7    P     P_3+3 0.496703 0.570314 0.725021 0.427216
O21   O     O_2   0.674250 0.555830 0.719690 -0.356985
O22   O     O_3   0.549591 0.691127 0.788457 -0.576046
H26   H     H_    0.754888 0.889716 0.162248 0.258917
C13   C     C_3   0.929393 0.179968 0.764414 0.459804
H27   H     H_    0.964830 0.200901 0.701059 0.081446
H28   H     H_    0.040723 0.173517 0.810963 0.003059
C14   C     C_3   0.820262 0.076076 0.739403 -1.043056
H29   H     H_    0.693397 0.085492 0.719829 0.331805
H30   H     H_    0.848060 0.034144 0.679032 0.223090
H31   H     H_    0.834726 0.030392 0.795609 0.219940
P8    P     P_3+3 0.391157 0.173028 0.612741 0.435820
C15   C     C_3   0.410582 0.232785 0.780891 0.430508
H32   H     H_    0.286222 0.246588 0.755963 -0.119830
O23   O     O_2   0.512663 0.124173 0.562733 -0.363404
O24   O     O_3   0.451875 0.154245 0.723782 -0.563973
H33   H     H_    0.501189 0.303252 0.785905 0.148350
H34   H     H_    0.343562 0.254482 0.909400 0.111094
C16   C     C_3   0.411945 0.202994 0.874219 0.001605
H35   H     H_    0.345742 0.123302 0.870031 0.074656
C17   C     C_R   0.079609 0.178098 0.517109 -0.559791
C18   C     C_R   0.735733 0.818460 0.464860 -0.464588
C19   C     C_R   0.693905 0.990073 0.431805 -0.226180
C20   C     C_R   0.634196 0.884286 0.428745 0.220821
C21   C     C_R   0.891376 0.854992 0.515928 0.218302
C22   C     C_R   0.951471 0.966938 0.520788 -0.101915
C23   C     C_R   0.853550 0.034047 0.474408 -0.040817
C24   C     C_R   0.917429 0.144108 0.477104 0.250336
C25   C     C_R   0.174173 0.116039 0.561829 0.203046
C26   C     C_R   0.099773 0.017492 0.575485 0.157008
H36   H     H_    0.614125 0.037759 0.401175 0.172487
H37   H     H_    0.133872 0.256519 0.515099 0.147946
H38   H     H_    0.686654 0.737386 0.459403 0.174725
C27   C     C_R   0.240677 0.439678 0.765663 -0.190380
C28   C     C_R   0.137622 0.418837 0.827121 0.211635
C29   C     C_R   0.201601 0.438292 0.920021 -0.372845
C30   C     C_R   0.371639 0.467379 0.951269 0.094804
C31   C     C_R   0.468187 0.477517 0.884105 -0.290938
C32   C     C_R   0.401591 0.481012 0.794946 0.256725
C33   C     C_R   0.603643 0.554443 0.085166 0.069317
C34   C     C_R   0.669753 0.565486 0.177812 0.143278
C35   C     C_R   0.420341 0.470607 0.209719 0.338592
C36   C     C_R   0.360460 0.448847 0.116150 -0.343240
C37   C     C_R   0.447488 0.489851 0.051505 0.103063
C38   C     C_R   0.575493 0.528607 0.238808 -0.488626
H39   H     H_    0.118309 0.429308 0.966099 0.163263
H40   H     H_    0.244995 0.399051 0.094571 0.140458
H41   H     H_    0.592793 0.472754 0.897348 0.190679
H42   H     H_    0.627178 0.541031 0.309557 0.182188
C39   C     C_3   0.340351 0.727800 0.170912 -0.328606
C40   C     C_3   0.222736 0.709605 0.080662 -0.793065
H43   H     H_    0.111138 0.741752 0.086542 0.314480
H44   H     H_    0.279614 0.743711 0.028271 0.219836
H45   H     H_    0.187275 0.625461 0.057701 0.250133
H46   H     H_    0.447536 0.693244 0.160438 0.134246
H47   H     H_    0.282532 0.682706 0.217064 0.264258
C41   C     C_3   0.575982 0.847374 0.734246 -0.471855
C42   C     C_3   0.579154 0.831227 0.634449 -0.911681
H48   H     H_    0.462727 0.837981 0.594643 0.298879
H49   H     H_    0.672769 0.890633 0.620405 0.255414
H50   H     H_    0.601483 0.752931 0.611532 0.256362
H51   H     H_    0.557729 0.925182 0.757102 0.199554
H52   H     H_    0.698001 0.850074 0.771695 0.222617
O25   O     O_3   0.215731 0.929849 0.132020 -0.606740
C43   C     C_3   0.181837 0.976368 0.054283 0.182600
H53   H     H_    0.050024 0.954612 0.028767 0.163946
H54   H     H_    0.239057 0.945208 0.998717 0.082305
C44   C     C_3   0.227078 0.094066 0.076316 -0.305819
H55   H     H_    0.202374 0.120111 0.143247 0.252496
H56   H     H_    0.358123 0.117977 0.078703 0.188125
C45   C     C_3   0.132116 0.147714 0.008081 -1.037228
H57   H     H_    0.128045 0.109218 0.939262 0.256942
H58   H     H_    0.187493 0.229948 0.015597 0.275785
H59   H     H_    0.007203 0.144823 0.019812 0.267849
O26   O     O_3   0.571027 0.219592 0.924413 -0.617758
C46   C     C_3   0.640303 0.129002 0.916339 0.373994
H60   H     H_    0.773097 0.152442 0.926397 0.154700
H61   H     H_    0.601523 0.082368 0.849376 0.109217
C47   C     C_3   0.599804 0.061820 0.986329 -0.429337
H62   H     H_    0.608853 0.110631 0.051506 0.225975
H63   H     H_    0.474145 0.020019 0.964446 0.198189
C48   C     C_3   0.713948 0.983818 0.997544 -1.091871
H64   H     H_    0.744428 0.953205 0.932639 0.274368
H65   H     H_    0.655352 0.919121 0.025909 0.279706
H66   H     H_    0.825416 0.019364 0.045389 0.296343
C49   C     C_3   0.135923 0.994553 0.669031 -0.417081
C50   C     C_3   0.293817 0.958888 0.688492 -0.696815
H67   H     H_    0.378212 0.982023 0.644127 0.286934
H68   H     H_    0.346046 0.987869 0.759587 0.216519
H69   H     H_    0.277554 0.876568 0.677547 0.285194
H70   H     H_    0.142468 0.066026 0.715623 0.164253
H71   H     H_    0.038920 0.939340 0.685623 0.216240
C51   C     C_3   0.694681 0.622743 0.028487 -0.315645
C52   C     C_3   0.599388 0.703154 0.995899 -0.884564
H72   H     H_    0.479780 0.667436 0.956581 0.289190
H73   H     H_    0.581633 0.755574 0.054015 0.232077
H74   H     H_    0.669302 0.748858 0.954572 0.283079
H75   H     H_    0.808348 0.668480 0.064155 0.237526
H76   H     H_    0.747534 0.582028 0.976935 0.185034
C53   C     C_3   0.178562 0.422283 0.667750 -0.367965
C54   C     C_3   0.088280 0.510104 0.644432 -0.462114
H77   H     H_    0.008596 0.526441 0.691566 0.193371
H78   H     H_    0.165526 0.584823 0.647579 0.209884
H79   H     H_    0.011832 0.486264 0.579072 0.293593
H80   H     H_    0.267401 0.413112 0.625837 0.234055
H81   H     H_    0.116031 0.342455 0.648112 0.158885
C55   C     C_3   0.762180 0.313844 0.187906 -0.312660
C56   C     C_3   0.852997 0.328530 0.110536 -0.831253
H82   H     H_    0.983577 0.356730 0.134947 0.276468
H83   H     H_    0.838776 0.254788 0.065992 0.255796
H84   H     H_    0.801611 0.384645 0.070440 0.265301
H85   H     H_    0.635959 0.274506 0.159860 0.192691
H86   H     H_    0.756442 0.390667 0.222409 0.180034

loop_
_geom_bond_atom_site_label_1
_geom_bond_atom_site_label_2
_geom_bond_distance
_ccdc_geom_bond_type
C55   H85   1.112590 S    
C53   H81   1.095364 S    
P7    O22   1.727524 S    
C19   H36   1.080114 S    
C53   C54   1.527553 S    
C39   H47   1.105471 S    
O7    Ba1   2.861010 S    
C14   H29   1.098219 S    
C48   H64   1.110618 S    
C15   O24   1.398587 S    
O6    P6    1.755596 S    
C1    C10   1.533614 S    
C42   H48   1.093834 S    
C56   H82   1.103803 S    
C40   H43   1.104843 S    
C5    H9    1.103553 S    
O16   Ba2   2.997543 S    
H34   C16   1.104319 S    
C49   H71   1.101612 S    
O8    Ba1   2.874541 S    
C35   C38   1.398530 A    
C48   H65   1.097186 S    
C8    C9    1.522487 S    
P2    O10   1.758212 S    
C46   H61   1.104013 S    
C52   H72   1.099842 S    
C6    H10   1.090321 S    
O2    Ba2   2.921069 S    
C42   H49   1.100059 S    
Ba1   Ba2   4.694486 S    
C39   C40   1.536189 S    
P8    C25   1.885666 S    
C7    H14   1.107280 S    
C36   C37   1.436646 A    
C11   C12   1.525747 S    
P1    O1    1.552279 D    
C41   H51   1.089162 S    
O2    Ba1   2.982208 S    
C17   H37   1.079429 S    
O10   C8    1.404895 S    
C12   H24   1.095008 S    
P4    C24   1.949645 S    
C17   C25   1.389814 A    
C1    H21   1.111911 S    
C9    H19   1.108916 S    
C4    C55   1.537770 S    
C19   C23   1.411397 A    
C1    H1    1.109497 S    
P5    O17   1.763981 S    
C44   C45   1.519541 S    
C4    H6    1.098118 S    
C52   H73   1.105027 S    
C13   H27   1.112957 S    
C38   H42   1.082166 S    
O3    Ba1   2.897511 S    
C6    C7    1.529109 S    
C51   H76   1.093885 S    
Ba2   O20   2.845750 S    
C18   H38   1.082203 S    
C9    H18   1.108979 S    
C27   C32   1.374788 A    
C54   H78   1.096168 S    
C14   H30   1.096554 S    
P2    C35   1.903983 S    
C30   C31   1.419970 A    
O6    C10   1.409590 S    
P3    C34   1.860098 S    
C47   C48   1.520341 S    
O19   C13   1.405958 S    
P4    O13   1.636275 S    
C2    H2    1.111949 S    
Ba1   O16   2.846544 S    
C56   H83   1.101529 S    
C13   H28   1.106550 S    
P1    O5    1.770170 S    
C29   C30   1.424209 A    
P7    C32   1.869466 S    
C48   H66   1.102291 S    
P7    O21   1.559283 D    
O26   C46   1.411540 S    
C45   H58   1.106614 S    
C46   C47   1.519868 S    
C22   C23   1.467532 A    
C15   H32   1.110380 S    
O11   C2    1.403203 S    
C42   H50   1.107288 S    
Ba2   O21   2.861186 S    
C5    H7    1.106966 S    
C36   H40   1.076762 S    
C11   H22   1.109594 S    
P1    O2    1.636252 S    
C45   H59   1.099051 S    
C43   H54   1.111720 S    
C8    H15   1.096524 S    
C17   C24   1.396766 A    
C15   C16   1.522890 S    
P3    O11   1.744544 S    
C15   H33   1.106224 S    
C27   C28   1.407454 A    
C50   H69   1.068321 S    
P8    O24   1.749157 S    
C49   C50   1.480614 S    
P5    O18   1.541133 D    
O13   Ba2   2.983143 S    
C13   C14   1.512520 S    
P1    Ba1   3.491680 S    
C7    H12   1.109413 S    
C52   H74   1.106940 S    
P3    O9    1.545773 D    
C49   H70   1.103757 S    
C16   H35   1.110877 S    
C11   C41   1.532167 S    
O16   P7    1.822327 S    
C11   O22   1.378462 S    
P2    O7    1.558932 D    
C51   H75   1.084183 S    
O14   Ba2   2.896860 S    
C47   H63   1.106272 S    
C9    H17   1.105363 S    
O5    C6    1.401448 S    
C50   H68   1.104307 S    
O12   Ba2   2.944891 S    
C18   C20   1.408239 A    
O3    P6    1.762365 S    
C51   C52   1.509763 S    
C14   H31   1.108673 S    
C3    H26   1.102910 S    
C43   C44   1.533217 S    
C26   C49   1.489059 S    
C10   H20   1.107759 S    
O14   P8    1.720978 S    
C35   C36   1.417581 A    
C2    H3    1.113695 S    
C55   C56   1.528549 S    
P1    C21   1.989329 S    
C31   C32   1.396413 A    
P4    O12   1.552633 D    
O25   C43   1.409624 S    
C34   C38   1.408477 A    
P8    O23   1.548200 D    
C55   H86   1.100498 S    
C53   H80   1.076051 S    
C33   C37   1.448116 A    
C4    O15   1.398948 S    
C12   H25   1.108004 S    
C31   H41   1.055885 S    
C3    H4    1.105667 S    
C2    C3    1.501501 S    
O4    P6    1.543987 D    
C3    H5    1.107400 S    
C45   H57   1.106006 S    
C56   H84   1.110191 S    
C29   H39   1.080015 S    
C33   C34   1.417535 A    
C40   H45   1.109682 S    
Ba1   O13   2.920428 S    
C47   H62   1.106390 S    
O17   Ba2   2.875155 S    
C43   H53   1.106152 S    
C41   C42   1.519899 S    
C8    H16   1.104379 S    
C33   C51   1.538044 S    
C46   H60   1.104523 S    
P5    C28   1.858569 S    
C6    H11   1.090504 S    
P3    O8    1.701761 S    
P2    Ba1   3.451371 S    
C21   C22   1.485306 A    
C44   H55   1.102780 S    
C54   H77   1.089144 S    
P5    O19   1.734195 S    
C23   C24   1.472993 A    
C7    H13   1.102887 S    
C10   C39   1.557224 S    
C40   H44   1.107230 S    
P2    O20   1.580915 S    
C4    C5    1.512911 S    
C41   H52   1.091744 S    
C25   C26   1.419153 A    
C22   C26   1.418137 A    
P4    Ba2   3.492181 S    
O1    Ba1   2.944431 S    
C19   C20   1.411671 A    
C16   O26   1.412522 S    
C54   H79   1.083167 S    
P6    C20   1.871598 S    
C39   H46   1.100954 S    
C18   C21   1.405973 A    
C1    O25   1.413590 S    
C44   H56   1.104267 S    
Ba1   O20   2.998489 S    
C30   C37   1.537867 S    
C28   C29   1.413781 A    
C50   H67   1.099778 S    
C12   H23   1.100987 S    
P4    O15   1.753474 S    
C27   C53   1.482034 S    
C5    H8    1.102854 S    
