data_mof_unit_48149.cif
_audit_creation_date              2012-12-10T19:07:35-0500
_audit_creation_method            fapswitch 2.2
_symmetry_space_group_name_H-M    P1
_symmetry_Int_Tables_number       1
_space_group_crystal_system       triclinic
_cell_length_a                    10.835598
_cell_length_b                    10.877467
_cell_length_c                    9.530637
_cell_angle_alpha                 90.344619
_cell_angle_beta                  90.25179
_cell_angle_gamma                 91.024746
_cell_volume                      1123.10630101

loop_
_atom_site_label
_atom_site_type_symbol
_atom_type_description
_atom_site_fract_x
_atom_site_fract_y
_atom_site_fract_z
_atom_type_partial_charge
C1    C     C_R   0.499342 0.262359 0.499117 0.838798
C2    C     C_R   0.936903 0.467693 0.621728 -0.058987
C3    C     C_3   0.931630 0.537152 0.756914 -0.454625
C4    C     C_3   0.072067 0.532447 0.761002 0.379284
C5    C     C_R   0.510000 0.064728 0.621546 0.059555
C6    C     C_R   0.500968 0.129009 0.495899 -0.278444
C7    C     C_R   0.490035 0.062839 0.368247 0.385211
C8    C     C_R   0.473277 0.935143 0.371346 0.362124
C9    C     C_R   0.487876 0.870970 0.498862 -0.276249
C10   C     C_R   0.505116 0.937453 0.623527 0.055429
C11   C     C_3   0.421483 0.938653 0.748732 -0.423673
C12   C     C_R   0.262397 0.496172 0.499769 0.846117
C13   C     C_3   0.430025 0.077220 0.747375 -0.432431
C14   C     C_R   0.597669 0.548968 0.074342 0.189474
C15   C     C_R   0.412357 0.433986 0.074627 0.568057
C16   C     C_R   0.411598 0.437631 0.923686 -0.218221
C17   C     C_R   0.598043 0.548203 0.927091 0.164294
C18   C     C_3   0.646554 0.676982 0.921914 -0.555577
C19   C     C_3   0.645759 0.677934 0.081287 0.293746
C20   C     C_R   0.493722 0.737455 0.500081 0.854068
C21   C     C_R   0.737907 0.495999 0.499533 0.821249
C22   C     C_R   0.063624 0.466685 0.622878 0.016496
C23   C     C_R   0.129691 0.479749 0.498465 -0.127720
C24   C     C_R   0.065375 0.470433 0.370567 -0.313090
C25   C     C_R   0.935908 0.466259 0.368235 0.496052
C26   C     C_R   0.870965 0.479234 0.496546 -0.166081
Cu1   Cu    Cu3+1 0.499990 0.499980 0.640670 0.947776
Cu2   Cu    Cu3+1 0.500010 0.500020 0.359330 1.031186
H1    H     H_    0.114462 0.473629 0.271935 0.205376
H2    H     H_    0.340519 0.121457 0.724052 0.183727
H3    H     H_    0.481631 0.116735 0.838559 0.193902
H4    H     H_    0.578378 0.741260 0.128209 0.158157
H5    H     H_    0.896706 0.631435 0.741243 0.206731
H6    H     H_    0.886749 0.483106 0.841794 0.171710
H7    H     H_    0.110594 0.472339 0.844311 0.053827
N1    N     N_R   0.500790 0.500930 0.147930 -0.262730
N2    N     N_R   0.500790 0.500890 0.852020 -0.195576
O1    O     O_R   0.500000 0.319640 0.618810 -0.597749
O2    O     O_R   0.500010 0.319680 0.381230 -0.507708
O3    O     O_R   0.319650 0.499970 0.618810 -0.573815
O4    O     O_R   0.319660 0.500010 0.381230 -0.551457
O5    O     O_R   0.499990 0.680320 0.618770 -0.573846
O6    O     O_R   0.500000 0.680360 0.381190 -0.557386
O7    O     O_R   0.680340 0.499990 0.618770 -0.585597
O8    O     O_R   0.680350 0.500030 0.381190 -0.518441
H8    H     H_    0.463562 0.900349 0.844650 0.193384
O9    O     O_3   0.322637 0.371296 0.151849 -0.537088
C27   C     C_3   0.268359 0.270271 0.079638 -0.331789
H9    H     H_    0.196552 0.301811 0.005273 0.114889
H10   H     H_    0.221459 0.210244 0.157367 0.195267
H11   H     H_    0.338203 0.213498 0.025313 0.184006
H12   H     H_    0.339374 0.392297 0.863383 0.150002
H13   H     H_    0.740187 0.684020 0.876911 0.209373
H14   H     H_    0.579482 0.740153 0.875233 0.181943
O10   O     O_3   0.765737 0.682466 0.139592 -0.497154
C28   C     C_3   0.799100 0.805572 0.169891 -0.314967
H15   H     H_    0.740614 0.843099 0.255159 0.155606
H16   H     H_    0.793442 0.864080 0.074713 0.139436
H17   H     H_    0.896215 0.808618 0.207265 0.180587
O11   O     O_3   0.874168 0.466372 0.240712 -0.508963
C29   C     C_3   0.892242 0.353611 0.170559 -0.326118
H18   H     H_    0.825365 0.346325 0.082273 0.176522
H19   H     H_    0.874976 0.273350 0.240339 0.128477
H20   H     H_    0.986354 0.349919 0.125182 0.151320
O12   O     O_3   0.128205 0.650111 0.748604 -0.549222
C30   C     C_3   0.149824 0.698828 0.884114 -0.326300
H21   H     H_    0.222919 0.646809 0.939064 0.165226
H22   H     H_    0.063890 0.699510 0.947824 0.174254
H23   H     H_    0.182713 0.795427 0.874421 0.170680
O13   O     O_3   0.478485 0.122871 0.241474 -0.534035
C31   C     C_3   0.592295 0.118218 0.170605 -0.277798
H24   H     H_    0.587112 0.177464 0.076506 0.163743
H25   H     H_    0.611462 0.023185 0.134243 0.163582
H26   H     H_    0.669803 0.154331 0.237003 0.132098
O14   O     O_3   0.441014 0.874737 0.248307 -0.582145
C32   C     C_3   0.311182 0.866485 0.239764 -0.282597
H27   H     H_    0.285521 0.817068 0.141495 0.162712
H28   H     H_    0.269697 0.959277 0.235295 0.164280
H29   H     H_    0.271741 0.813047 0.328741 0.155176
H30   H     H_    0.327403 0.902119 0.723833 0.202673

loop_
_geom_bond_atom_site_label_1
_geom_bond_atom_site_label_2
_ccdc_geom_bond_type
C30   H22   S    
C21   C26   S    
C32   H29   S    
C15   O9    S    
O10   C28   S    
C7    O13   S    
C7    C8    A    
C12   C23   S    
C32   H28   S    
C14   N1    A    
C4    O12   S    
C30   H23   S    
C3    H5    S    
Cu1   O1    S    
C15   C16   A    
Cu2   O4    S    
C28   H15   S    
C18   C19   S    
C29   H19   S    
C24   H1    S    
C18   H13   S    
Cu1   O7    S    
C27   H11   S    
C8    C9    A    
C2    C22   A    
C23   C24   A    
O13   C31   S    
C25   O11   S    
C9    C10   A    
C5    C13   S    
C16   N2    A    
C27   H10   S    
C30   H21   S    
C4    H7    S    
C14   C17   A    
C19   H4    S    
C21   O8    A    
Cu2   O8    S    
C1    C6    S    
C13   H2    S    
C24   C25   A    
C11   H30   S    
C31   H25   S    
C1    O2    A    
C3    H6    S    
C25   C26   A    
C8    O14   S    
O11   C29   S    
C12   O3    A    
C29   H20   S    
O14   C32   S    
C12   O4    A    
C21   O7    A    
C4    C22   S    
C9    C20   S    
O9    C27   S    
Cu1   O3    S    
C17   C18   S    
C2    C26   A    
C17   N2    A    
C32   H27   S    
C1    O1    A    
C27   H9    S    
C3    C4    S    
C15   N1    A    
C20   O6    A    
C19   O10   S    
C14   C19   S    
C13   H3    S    
C16   H12   S    
C31   H26   S    
C20   O5    A    
C6    C7    A    
Cu2   O6    S    
Cu2   O2    S    
C28   H17   S    
C2    C3    S    
C5    C10   A    
C11   C13   S    
Cu1   O5    S    
C5    C6    A    
Cu1   N2    S    
C28   H16   S    
C29   H18   S    
C10   C11   S    
C18   H14   S    
C31   H24   S    
Cu2   N1    S    
O12   C30   S    
Cu1   Cu2   S    
C22   C23   A    
C11   H8    S    
