data_mof_unit_59846.cif
_audit_creation_date              2012-12-11T14:29:32-0500
_audit_creation_method            fapswitch 2.2
_symmetry_space_group_name_H-M    P1
_symmetry_Int_Tables_number       1
_space_group_crystal_system       triclinic
_cell_length_a                    6.938525
_cell_length_b                    14.744479
_cell_length_c                    16.230843
_cell_angle_alpha                 90.521186
_cell_angle_beta                  89.86863
_cell_angle_gamma                 90.244087
_cell_volume                      1660.40737286

loop_
_atom_site_label
_atom_site_type_symbol
_atom_type_description
_atom_site_fract_x
_atom_site_fract_y
_atom_site_fract_z
_atom_type_partial_charge
O1    O     O_R   0.494400 0.416610 0.413880 -0.542407
O2    O     O_R   0.823920 0.406790 0.585520 -0.546314
O3    O     O_R   0.994250 0.583390 0.586120 -0.536519
C1    C     C_R   0.654427 0.385282 0.613699 0.742919
O4    O     O_R   0.824110 0.405730 0.414490 -0.541088
O5    O     O_R   0.994440 0.582310 0.413870 -0.538058
C2    C     C_R   0.654799 0.383673 0.386347 0.744600
O6    O     O_R   0.494210 0.417690 0.586130 -0.544446
O7    O     O_3   0.660810 0.557940 0.500000 -0.368134
V1    V     V_3+5 0.935650 0.489250 0.500000 1.404119
O8    O     O_R   0.324160 0.593210 0.414480 -0.545135
C3    C     C_R   0.155976 0.615382 0.386721 0.753294
O9    O     O_R   0.323970 0.594270 0.585510 -0.540469
C4    C     C_R   0.155893 0.613364 0.616162 0.716523
V2    V     V_3+5 0.435660 0.510750 0.500000 1.404941
O10   O     O_3   0.160630 0.442060 0.500000 -0.374584
H1    H     H_    0.229846 0.917424 0.506511 0.114257
C5    C     C_R   0.121942 0.556451 0.795201 0.153027
C6    C     C_R   0.077783 0.534303 0.877093 -0.094705
C7    C     C_R   0.044508 0.600916 0.935781 -0.170761
C8    C     C_R   0.058704 0.691432 0.914944 -0.139302
C9    C     C_R   0.098893 0.718122 0.833247 0.042091
C10   C     C_R   0.122567 0.650157 0.770112 0.048837
C11   C     C_R   0.118831 0.811639 0.815163 -0.170028
C12   C     C_R   0.152096 0.839038 0.733134 0.066702
C13   C     C_R   0.164048 0.773202 0.668703 0.062937
C14   C     C_R   0.148644 0.679089 0.686388 -0.173936
C15   C     C_R   0.170070 0.932095 0.713526 -0.138458
C16   C     C_R   0.198421 0.959671 0.632568 -0.118114
C17   C     C_R   0.208627 0.895685 0.569428 -0.118028
C18   C     C_R   0.191458 0.803655 0.586837 -0.129199
H2    H     H_    0.072662 0.464252 0.896637 0.115984
H3    H     H_    0.012536 0.582197 0.998722 0.124508
H4    H     H_    0.037401 0.740297 0.964190 0.108958
H5    H     H_    0.161197 0.984649 0.760348 0.097047
H6    H     H_    0.211597 0.031126 0.618743 0.112105
H7    H     H_    0.200130 0.756994 0.535172 0.098707
C19   C     C_2   0.984797 0.711717 0.287008 -0.136855
C20   C     C_2   0.150972 0.685474 0.322041 -0.359072
H8    H     H_    0.851782 0.679835 0.307473 0.146292
H9    H     H_    0.286632 0.717171 0.305377 0.130886
C21   C     C_2   0.965810 0.784827 0.224226 0.180876
C22   C     C_2   0.117579 0.813170 0.177193 -0.319790
H10   H     H_    0.258416 0.783407 0.186178 0.109654
C23   C     C_2   0.779836 0.209310 0.781974 -0.130112
C24   C     C_2   0.614664 0.179689 0.816726 -0.307821
H11   H     H_    0.916220 0.182471 0.803366 0.132966
H12   H     H_    0.476442 0.204961 0.796678 0.124525
C25   C     C_2   0.791241 0.277448 0.714704 -0.134138
C26   C     C_2   0.637795 0.318216 0.680495 -0.304241
H13   H     H_    0.934805 0.294176 0.692624 0.134055
H14   H     H_    0.492947 0.303013 0.701203 0.129283
C27   C     C_2   0.779300 0.208729 0.214248 -0.132587
C28   C     C_2   0.614266 0.181767 0.177454 -0.311337
H15   H     H_    0.915039 0.179879 0.193594 0.136487
H16   H     H_    0.476869 0.209924 0.195964 0.127361
C29   C     C_2   0.791667 0.277300 0.282154 -0.136073
C30   C     C_2   0.638177 0.315342 0.319603 -0.308765
H17   H     H_    0.935623 0.296412 0.302136 0.134821
H18   H     H_    0.493041 0.296871 0.301583 0.128576
O11   O     O_R   0.770210 0.079270 0.910680 -0.538689
O12   O     O_R   0.440150 0.091160 0.082270 -0.545491
O13   O     O_R   0.269970 0.914530 0.082860 -0.541697
C31   C     C_R   0.608883 0.113179 0.110540 0.741743
O14   O     O_R   0.440480 0.090100 0.911240 -0.547402
O15   O     O_R   0.270310 0.913460 0.910610 -0.534891
C32   C     C_R   0.609458 0.111826 0.883202 0.747848
O16   O     O_R   0.769870 0.080340 0.082930 -0.539426
O17   O     O_3   0.603660 0.938980 0.996790 -0.368605
V3    V     V_3+5 0.328750 0.007610 0.996740 1.402540
O18   O     O_R   0.940600 0.902510 0.911180 -0.538925
C33   C     C_R   0.109210 0.880944 0.882582 0.698832
O19   O     O_R   0.940270 0.903570 0.082200 -0.538365
C34   C     C_R   0.107893 0.882527 0.111219 0.740565
V4    V     V_3+5 0.828770 0.986010 0.996670 1.412246
O20   O     O_3   0.103730 0.054750 0.996710 -0.375162
C35   C     C_3   0.766073 0.824427 0.215115 -0.713568
H19   H     H_    0.665512 0.798648 0.262914 0.172785
H20   H     H_    0.771617 0.899374 0.222357 0.201666
H21   H     H_    0.704531 0.805417 0.154255 0.212752
C36   C     C_3   0.181391 0.477772 0.740815 -0.783349
H22   H     H_    0.072277 0.464691 0.692673 0.220569
H23   H     H_    0.325483 0.491420 0.714088 0.214930
H24   H     H_    0.194999 0.413575 0.775639 0.182228

loop_
_geom_bond_atom_site_label_1
_geom_bond_atom_site_label_2
_ccdc_geom_bond_type
O18   V4    S    
O19   C34   A    
C6    C7    A    
C1    O6    A    
C36   H22   S    
C20   H9    S    
O15   V3    S    
C27   C28   D    
O11   V4    S    
O16   V4    S    
C16   H6    S    
C13   C14   A    
C31   O16   A    
C15   C16   A    
C19   C21   S    
O5    C3    A    
C19   C20   D    
C29   H17   S    
C30   H18   S    
O14   V3    S    
C5    C36   S    
O12   V3    S    
C5    C6    A    
C23   H11   S    
O12   C31   A    
O8    V2    S    
O15   C33   A    
C15   H5    S    
O14   C32   A    
C26   H14   S    
O1    V2    S    
C10   C14   A    
C4    C14   S    
O7    V1    S    
C2    C30   S    
C35   H19   S    
C22   C34   S    
C27   H15   S    
C13   C18   A    
O9    C4    A    
H1    C17   S    
O19   V4    S    
C24   C32   S    
C6    H2    S    
C36   H23   S    
C24   H12   S    
C35   H20   S    
C28   H16   S    
C5    C10   A    
C11   C12   A    
O4    C2    A    
C27   C29   S    
C8    H4    S    
C25   H13   S    
C12   C13   A    
C23   C24   D    
C18   H7    S    
C1    C26   S    
C12   C15   A    
O2    C1    A    
V4    O20   S    
C16   C17   A    
O11   C32   A    
O13   V3    S    
C23   C25   S    
O3    C4    A    
C7    H3    S    
O6    V2    S    
O9    V2    S    
C22   H10   S    
V3    O20   S    
C9    C11   A    
C21   C22   D    
O2    V1    S    
C36   H24   S    
C11   C33   S    
C35   H21   S    
O1    C2    A    
O5    V1    S    
O8    C3    A    
O13   C34   A    
C3    C20   S    
O7    V2    S    
O4    V1    S    
O3    V1    S    
V1    O10   S    
C19   H8    S    
C29   C30   D    
C17   C18   A    
C28   C31   S    
O17   V4    S    
O17   V3    S    
O18   C33   A    
C7    C8    A    
C21   C35   S    
C25   C26   D    
C9    C10   A    
C8    C9    A    
V2    O10   S    
