data_mof_unit_45003.cif
_audit_creation_date              2012-12-10T17:47:41-0500
_audit_creation_method            fapswitch 2.2
_symmetry_space_group_name_H-M    P1
_symmetry_Int_Tables_number       1
_space_group_crystal_system       triclinic
_cell_length_a                    10.622468
_cell_length_b                    10.625717
_cell_length_c                    9.915683
_cell_angle_alpha                 89.831121
_cell_angle_beta                  89.853222
_cell_angle_gamma                 91.547171
_cell_volume                      1118.77963013

loop_
_atom_site_label
_atom_site_type_symbol
_atom_type_description
_atom_site_fract_x
_atom_site_fract_y
_atom_site_fract_z
_atom_type_partial_charge
C1    C     C_R   0.503773 0.260713 0.500330 0.855302
C2    C     C_3   0.878886 0.503960 0.500898 0.114541
C3    C     C_3   0.930848 0.618328 0.418372 -0.410198
C4    C     C_3   0.926028 0.380677 0.438145 -0.401477
C5    C     C_R   0.708871 0.135614 0.635794 -0.194432
C6    C     C_R   0.806349 0.072162 0.697968 -0.144648
C7    C     C_R   0.808032 0.941328 0.694525 -0.138134
C8    C     C_R   0.711861 0.873556 0.629546 -0.203955
C9    C     C_R   0.611488 0.936485 0.567181 0.099035
C10   C     C_R   0.610497 0.068356 0.569250 0.105380
C11   C     C_R   0.512215 0.128534 0.500912 -0.093180
C12   C     C_R   0.257994 0.503650 0.500594 0.840076
C13   C     C_R   0.419502 0.062245 0.429688 -0.218728
C14   C     C_R   0.419663 0.933738 0.429136 -0.200535
C15   C     C_R   0.512975 0.871856 0.499137 -0.103395
C16   C     C_R   0.335113 0.335037 0.140838 -0.168097
C17   C     C_R   0.253656 0.254008 0.071129 -0.211120
C18   C     C_R   0.253874 0.253772 0.931546 -0.193567
C19   C     C_R   0.335816 0.334297 0.860900 -0.175635
C20   C     C_R   0.419312 0.418149 0.928163 0.148053
C21   C     C_R   0.418973 0.418534 0.072710 0.177000
C22   C     C_R   0.577851 0.577643 0.071007 -0.119224
C23   C     C_R   0.503875 0.739393 0.499776 0.876103
C24   C     C_R   0.577743 0.577693 0.927899 -0.120447
C25   C     C_R   0.742262 0.501858 0.500062 0.826345
C26   C     C_3   0.071416 0.525900 0.649806 0.405498
C27   C     C_3   0.927923 0.514534 0.648060 -0.407975
C28   C     C_3   0.075143 0.614069 0.411002 -0.356150
C29   C     C_3   0.069870 0.378468 0.447417 -0.529448
C30   C     C_3   0.121515 0.506099 0.502680 0.106394
H1    H     H_    0.896946 0.374085 0.330519 0.199202
H2    H     H_    0.104281 0.598154 0.304603 0.182448
H3    H     H_    0.891902 0.617593 0.314303 0.176572
H4    H     H_    0.345238 0.110252 0.377071 0.138168
H5    H     H_    0.712803 0.237204 0.638973 0.152203
H6    H     H_    0.881443 0.124804 0.747750 0.126040
H7    H     H_    0.884496 0.892189 0.741447 0.139435
H8    H     H_    0.718322 0.772253 0.626898 0.135085
H9    H     H_    0.345326 0.882127 0.376489 0.147257
H10   H     H_    0.641544 0.641050 0.124323 0.144144
H11   H     H_    0.106058 0.448214 0.714992 0.055456
H12   H     H_    0.329350 0.329534 0.247733 0.198860
H13   H     H_    0.189814 0.191199 0.125967 0.143096
H14   H     H_    0.190034 0.190945 0.877471 0.141269
H15   H     H_    0.329902 0.329062 0.753981 0.200847
H16   H     H_    0.641319 0.641175 0.873739 0.144539
H17   H     H_    0.896880 0.429395 0.706407 0.132347
H18   H     H_    0.887027 0.597592 0.698473 0.192878
H19   H     H_    0.117371 0.706334 0.442503 0.185338
H20   H     H_    0.902634 0.707611 0.466913 0.172592
H21   H     H_    0.109088 0.359533 0.345488 0.196526
H22   H     H_    0.098079 0.300305 0.515042 0.157124
H23   H     H_    0.884752 0.297251 0.491575 0.163217
N1    N     N_R   0.498810 0.498800 0.142780 -0.121220
N2    N     N_R   0.498760 0.498720 0.857170 -0.126434
O1    O     O_R   0.500000 0.316780 0.614690 -0.636262
O2    O     O_R   0.499990 0.316750 0.385360 -0.625782
O3    O     O_R   0.314800 0.499990 0.614670 -0.646854
O4    O     O_R   0.314790 0.499970 0.385330 -0.645873
O5    O     O_R   0.500010 0.683250 0.614640 -0.615174
O6    O     O_R   0.500000 0.683220 0.385310 -0.615184
O7    O     O_R   0.685210 0.500030 0.614670 -0.637826
O8    O     O_R   0.685200 0.500010 0.385330 -0.619204
Zn1   Zn    Zn3+2 0.500010 0.500020 0.653130 0.918317
Zn2   Zn    Zn3+2 0.499990 0.499980 0.346870 0.926679
O9    O     O_3   0.108198 0.648340 0.695937 -0.647258
C31   C     C_3   0.158913 0.648018 0.828071 0.147244
H24   H     H_    0.221579 0.733056 0.835883 0.134829
H25   H     H_    0.221448 0.568066 0.847509 0.151782
C32   C     C_3   0.056148 0.658402 0.936910 -0.410008
H26   H     H_    0.091132 0.722391 0.017926 0.186541
H27   H     H_    0.970486 0.700686 0.894007 0.227313
C33   C     C_3   0.021939 0.531505 0.002068 -0.911342
H28   H     H_    0.987274 0.462881 0.926037 0.260538
H29   H     H_    0.946523 0.544014 0.078175 0.250876
H30   H     H_    0.105347 0.493136 0.053625 0.266276

loop_
_geom_bond_atom_site_label_1
_geom_bond_atom_site_label_2
_ccdc_geom_bond_type
C27   H18   S    
O8    Zn2   S    
C16   C21   A    
C4    H23   S    
C33   H28   S    
C19   C20   A    
C1    C11   S    
C7    C8    A    
C22   N1    A    
N1    Zn2   S    
C24   N2    A    
C26   C27   S    
C3    C28   S    
C1    O1    A    
C18   H14   S    
C5    C6    A    
C3    H3    S    
C18   C19   A    
C25   O8    A    
O7    Zn1   S    
C14   H9    S    
C12   O4    A    
C8    C9    A    
O1    Zn1   S    
C2    C27   S    
C9    C10   A    
C4    C29   S    
C12   O3    A    
C15   C23   S    
O9    C31   S    
C13   C14   A    
C33   H29   S    
C8    H8    S    
C20   N2    A    
C3    H20   S    
O3    Zn1   S    
C23   O5    A    
C31   H24   S    
C26   O9    S    
C28   H2    S    
C16   C17   A    
C31   H25   S    
C2    C4    S    
C17   H13   S    
C29   C30   S    
C1    O2    A    
C28   H19   S    
C23   O6    A    
C22   H10   S    
N2    Zn1   S    
C32   C33   S    
C17   C18   A    
C7    H7    S    
C32   H26   S    
C26   C30   S    
C33   H30   S    
C22   C24   A    
C16   H12   S    
C29   H21   S    
C27   H17   S    
C12   C30   S    
O2    Zn2   S    
C19   H15   S    
C6    C7    A    
O5    Zn1   S    
C31   C32   S    
C24   H16   S    
C28   C30   S    
C2    C3    S    
C9    C15   A    
C13   H4    S    
O4    Zn2   S    
C11   C13   A    
C21   N1    A    
C5    H5    S    
C6    H6    S    
C2    C25   S    
C25   O7    A    
C4    H1    S    
C10   C11   A    
O6    Zn2   S    
C5    C10   A    
C20   C21   A    
C14   C15   A    
C32   H27   S    
C26   H11   S    
C29   H22   S    
