data_mof_unit_56493.cif
_audit_creation_date              2012-12-10T17:35:50-0500
_audit_creation_method            fapswitch 2.2
_symmetry_space_group_name_H-M    P1
_symmetry_Int_Tables_number       1
_space_group_crystal_system       triclinic
_cell_length_a                    10.490442
_cell_length_b                    12.046822
_cell_length_c                    12.749263
_cell_angle_alpha                 95.317683
_cell_angle_beta                  90.623093
_cell_angle_gamma                 86.614713
_cell_volume                      1601.44960035

loop_
_atom_site_label
_atom_site_type_symbol
_atom_type_description
_atom_site_fract_x
_atom_site_fract_y
_atom_site_fract_z
_atom_type_partial_charge
C1    C     C_R   0.497409 0.523489 0.700392 0.873121
C2    C     C_R   0.619369 0.165075 0.577853 -0.129143
C3    C     C_R   0.550449 0.860067 0.544486 0.551452
C4    C     C_R   0.448200 0.139887 0.457376 0.556819
C5    C     C_R   0.548752 0.976993 0.532847 -0.178206
C6    C     C_R   0.448618 0.023534 0.471281 -0.178341
C7    C     C_R   0.742203 0.500510 0.500518 0.875730
C8    C     C_R   0.257822 0.499536 0.499954 0.874849
C9    C     C_3   0.964507 0.393963 0.501885 -0.236745
C10   C     C_3   0.035584 0.605879 0.499165 -0.241697
C11   C     C_3   0.045233 0.456425 0.587628 0.171505
C12   C     C_R   0.501382 0.476356 0.299607 0.876038
C13   C     C_3   0.954957 0.543435 0.413379 0.170635
C14   C     C_3   0.123118 0.498714 0.500321 -0.155737
C15   C     C_3   0.876968 0.501225 0.500696 -0.156486
C16   C     C_3   0.043697 0.437258 0.414602 0.167091
C17   C     C_3   0.956447 0.562603 0.586479 0.164787
C18   C     C_R   0.504489 0.459596 0.187583 -0.115438
C19   C     C_R   0.490386 0.538871 0.812348 -0.080466
C20   C     C_R   0.381435 0.618365 0.969232 0.193561
C21   C     C_R   0.605682 0.373779 0.028886 0.177154
C22   C     C_R   0.402263 0.616795 0.861578 -0.270467
C23   C     C_R   0.561143 0.462890 0.867731 -0.295771
C24   C     C_R   0.588376 0.378443 0.137552 -0.214229
C25   C     C_3   0.105001 0.401416 0.681525 -0.364887
C26   C     C_3   0.003931 0.364109 0.753766 -0.903468
C27   C     C_3   0.895282 0.598370 0.319388 -0.366246
C28   C     C_3   0.996221 0.631902 0.244905 -0.901032
C29   C     C_3   0.101870 0.362029 0.322101 -0.366630
C30   C     C_3   0.999847 0.308370 0.251588 -0.918690
C31   C     C_3   0.898859 0.638030 0.679168 -0.365003
C32   C     C_3   0.001246 0.691488 0.749604 -0.915388
C33   C     C_3   0.283658 0.704813 0.019263 -0.428441
C34   C     C_R   0.431673 0.534293 0.132356 -0.291791
C35   C     C_3   0.347940 0.802233 0.079413 -0.880743
C36   C     C_3   0.693615 0.282603 0.971317 -0.415187
C37   C     C_3   0.746000 0.189431 0.036494 -0.913832
C38   C     C_3   0.442481 0.149104 0.279789 0.090313
C39   C     C_3   0.361365 0.187905 0.189040 -0.842185
C40   C     C_3   0.553350 0.844503 0.720755 0.134168
C41   C     C_3   0.632483 0.802269 0.811266 -0.836942
C42   C     C_3   0.227572 0.992798 0.380541 -0.354876
C43   C     C_3   0.115572 0.942366 0.431398 -0.933542
C44   C     C_3   0.771765 0.009777 0.620685 -0.347797
C45   C     C_R   0.539915 0.457564 0.973867 0.076494
C46   C     C_3   0.794049 0.049677 0.736649 -0.895796
C47   C     C_R   0.449852 0.537253 0.025600 0.132823
C48   C     C_R   0.356256 0.951571 0.423557 0.092664
C49   C     C_R   0.641223 0.049256 0.580515 0.092150
C50   C     C_R   0.381848 0.835498 0.421037 -0.116294
H1    H     H_    0.931863 0.308023 0.502946 0.159842
H2    H     H_    0.937726 0.308941 0.708383 0.252798
H3    H     H_    0.051214 0.316935 0.815655 0.254977
H4    H     H_    0.165712 0.326937 0.651157 0.219337
H5    H     H_    0.167336 0.460125 0.726786 0.196302
H6    H     H_    0.067201 0.683382 0.288704 0.254267
H7    H     H_    0.046206 0.557024 0.203644 0.261022
H8    H     H_    0.949461 0.681579 0.184580 0.253451
H9    H     H_    0.830366 0.540672 0.275769 0.197412
H10   H     H_    0.837263 0.674506 0.349657 0.216898
H11   H     H_    0.937180 0.260404 0.298049 0.257077
H12   H     H_    0.068310 0.691719 0.498676 0.161747
H13   H     H_    0.940885 0.372644 0.213271 0.268099
H14   H     H_    0.046405 0.250186 0.188933 0.253841
H15   H     H_    0.162951 0.410961 0.275374 0.194265
H16   H     H_    0.163049 0.294805 0.354096 0.256424
H17   H     H_    0.058694 0.627296 0.789256 0.263061
H18   H     H_    0.065251 0.737849 0.702809 0.258213
H19   H     H_    0.955011 0.751130 0.811270 0.250956
H20   H     H_    0.837760 0.705393 0.647282 0.256443
H21   H     H_    0.837782 0.589271 0.726042 0.192922
H22   H     H_    0.410932 0.773562 0.143184 0.262396
H23   H     H_    0.364750 0.592783 0.175447 0.166628
H24   H     H_    0.405693 0.845092 0.024718 0.256933
H25   H     H_    0.273801 0.863278 0.115222 0.243942
H26   H     H_    0.220956 0.739506 0.957857 0.206000
H27   H     H_    0.218535 0.666109 0.071486 0.199796
H28   H     H_    0.811395 0.222828 0.099058 0.263645
H29   H     H_    0.666667 0.148701 0.071879 0.256533
H30   H     H_    0.801223 0.125177 0.984572 0.259393
H31   H     H_    0.639429 0.241555 0.904581 0.211462
H32   H     H_    0.776042 0.321835 0.938766 0.207966
H33   H     H_    0.455429 0.056487 0.266975 0.127123
H34   H     H_    0.630274 0.405830 0.825276 0.147273
H35   H     H_    0.537998 0.184129 0.277234 0.155431
H36   H     H_    0.342987 0.279819 0.199015 0.268533
H37   H     H_    0.411758 0.164522 0.113352 0.216239
H38   H     H_    0.268676 0.147746 0.186485 0.240053
H39   H     H_    0.458404 0.808030 0.719693 0.149539
H40   H     H_    0.537124 0.936530 0.736564 0.127925
H41   H     H_    0.725751 0.841219 0.816632 0.251453
H42   H     H_    0.580797 0.823295 0.886639 0.211560
H43   H     H_    0.650767 0.710560 0.798689 0.263432
H44   H     H_    0.112804 0.852034 0.406221 0.252533
H45   H     H_    0.642935 0.322684 0.185029 0.160916
H46   H     H_    0.122859 0.954846 0.518667 0.266822
H47   H     H_    0.024266 0.983882 0.406537 0.249735
H48   H     H_    0.209190 0.083832 0.396688 0.258218
H49   H     H_    0.224410 0.971537 0.293952 0.197111
H50   H     H_    0.810722 0.140186 0.745698 0.243481
H51   H     H_    0.711239 0.035572 0.785818 0.266032
H52   H     H_    0.879990 0.003992 0.766485 0.250011
H53   H     H_    0.791339 0.918537 0.607949 0.247673
H54   H     H_    0.845762 0.044609 0.573445 0.182697
H55   H     H_    0.346967 0.673671 0.815267 0.142082
H56   H     H_    0.685378 0.221912 0.615886 0.164707
H57   H     H_    0.319586 0.778740 0.378006 0.164647
H58   H     H_    0.948615 0.437225 0.793072 0.260826
N1    N     N_R   0.523490 0.207800 0.519350 -0.144786
N2    N     N_R   0.476510 0.792200 0.480650 -0.147974
O1    O     O_R   0.506270 0.421700 0.658830 -0.622529
O2    O     O_3   0.618219 0.813769 0.624675 -0.620911
O3    O     O_R   0.493730 0.578300 0.341170 -0.624388
O4    O     O_R   0.491200 0.609310 0.646410 -0.596805
O5    O     O_R   0.508800 0.390690 0.353590 -0.594303
O6    O     O_R   0.693580 0.406210 0.506230 -0.636421
O7    O     O_R   0.306420 0.593790 0.493770 -0.633244
O8    O     O_R   0.678510 0.593830 0.493810 -0.596972
O9    O     O_R   0.321490 0.406170 0.506190 -0.596617
O10   O     O_3   0.381153 0.185535 0.376357 -0.626986
Zn1   Zn    Zn3+2 0.510060 0.374730 0.508290 0.951636
Zn2   Zn    Zn3+2 0.489940 0.625270 0.491710 0.950342

loop_
_geom_bond_atom_site_label_1
_geom_bond_atom_site_label_2
_ccdc_geom_bond_type
C44   C49   S    
C4    N1    A    
C35   H24   S    
C23   C45   A    
C30   H14   S    
C38   H33   S    
O1    Zn1   S    
C9    H1    S    
C39   H37   S    
N1    Zn1   S    
C44   H54   S    
C2    N1    A    
C21   C36   S    
C28   H7    S    
C37   H29   S    
C35   H25   S    
C6    C48   A    
O5    Zn1   S    
C36   C37   S    
C9    C16   S    
C27   H10   S    
C42   H48   S    
C38   C39   S    
C11   C14   S    
C11   C25   S    
C10   C17   S    
C50   N2    A    
C43   H44   S    
O8    Zn2   S    
C45   C47   A    
C31   H20   S    
C41   H43   S    
O3    Zn2   S    
C36   H32   S    
C40   H39   S    
C3    O2    S    
C32   H18   S    
C12   O5    A    
C38   O10   S    
C31   H21   S    
C30   H13   S    
C7    O8    A    
C5    C49   A    
C10   H12   S    
C39   H38   S    
C37   H30   S    
C44   H53   S    
C44   C46   S    
C8    O7    A    
C21   C45   A    
O9    Zn1   S    
C28   H6    S    
C46   H51   S    
C1    C19   S    
C23   H34   S    
C38   H35   S    
C43   H47   S    
C19   C22   A    
C25   H4    S    
C40   O2    S    
O6    Zn1   S    
C24   H45   S    
C26   H58   S    
C16   C29   S    
C2    H56   S    
C7    O6    A    
C19   C23   A    
O7    Zn2   S    
C29   C30   S    
C2    C49   A    
C26   H2    S    
C18   C34   A    
C33   H26   S    
C31   C32   S    
C36   H31   S    
C43   H46   S    
C42   C48   S    
C48   C50   A    
C9    C11   S    
C32   H17   S    
C29   H15   S    
C20   C33   S    
C4    C6    A    
C40   C41   S    
C41   H41   S    
C20   C22   A    
C35   H22   S    
C13   C15   S    
C10   C14   S    
C50   H57   S    
C17   C31   S    
C18   C24   A    
C13   C16   S    
C1    O4    A    
C21   C24   A    
C26   H3    S    
C12   O3    A    
C15   C17   S    
C46   H50   S    
C11   C17   S    
C8    C14   S    
C4    O10   S    
C25   H5    S    
C3    C5    A    
C10   C13   S    
C32   H19   S    
C28   H8    S    
C22   H55   S    
C37   H28   S    
C25   C26   S    
C27   H9    S    
C42   H49   S    
N2    Zn2   S    
C33   H27   S    
C5    C6    A    
C7    C15   S    
C33   C35   S    
C14   C16   S    
C9    C15   S    
C20   C47   A    
C34   H23   S    
C29   H16   S    
O4    Zn2   S    
C41   H42   S    
C42   C43   S    
C30   H11   S    
C12   C18   S    
C27   C28   S    
C13   C27   S    
C34   C47   A    
C3    N2    A    
C39   H36   S    
C40   H40   S    
C1    O1    A    
C8    O9    A    
C46   H52   S    
