data_mof_unit_47958.cif
_audit_creation_date              2012-12-10T20:55:42-0500
_audit_creation_method            fapswitch 2.2
_symmetry_space_group_name_H-M    P1
_symmetry_Int_Tables_number       1
_space_group_crystal_system       triclinic
_cell_length_a                    15.636157
_cell_length_b                    15.117573
_cell_length_c                    10.52903
_cell_angle_alpha                 89.705282
_cell_angle_beta                  90.53082
_cell_angle_gamma                 90.219555
_cell_volume                      2488.70239629

loop_
_atom_site_label
_atom_site_type_symbol
_atom_type_description
_atom_site_fract_x
_atom_site_fract_y
_atom_site_fract_z
_atom_type_partial_charge
C1    C     C_1   0.250839 0.498396 0.534424 -0.180804
C2    C     C_R   0.416240 0.047449 0.471290 0.064684
C3    C     C_R   0.957155 0.576226 0.611662 -0.050133
C4    C     C_R   0.045098 0.414199 0.599755 -0.048278
C5    C     C_R   0.046682 0.575377 0.615910 -0.048953
C6    C     C_R   0.955623 0.414917 0.592299 -0.050048
C7    C     C_R   0.338149 0.499708 0.502784 0.853263
C8    C     C_R   0.661849 0.500130 0.501845 0.940189
C9    C     C_R   0.484180 0.499414 0.260080 0.893975
C10   C     C_R   0.480029 0.499973 0.736129 0.896228
C11   C     C_R   0.912682 0.496551 0.590236 0.025277
C12   C     C_1   0.750238 0.500077 0.528628 -0.190689
C13   C     C_R   0.089825 0.494956 0.599886 0.023911
C14   C     C_1   0.497109 0.806891 0.500267 0.024024
C15   C     C_1   0.496500 0.193230 0.499930 0.028403
C16   C     C_1   0.824066 0.498928 0.557315 -0.020707
C17   C     C_1   0.177991 0.496430 0.566425 -0.028675
C18   C     C_R   0.405043 0.655942 0.127970 -0.223678
C19   C     C_R   0.399011 0.345840 0.859502 -0.203781
C20   C     C_R   0.407086 0.656892 0.864896 -0.214045
C21   C     C_R   0.433878 0.329487 0.116707 -0.227923
C22   C     C_R   0.391034 0.735588 0.061576 0.131701
C23   C     C_R   0.445072 0.499866 0.865390 -0.220367
C24   C     C_R   0.394074 0.262674 0.915879 0.131438
C25   C     C_R   0.396109 0.736181 0.928262 0.133210
C26   C     C_R   0.419156 0.253067 0.043977 0.119578
C27   C     C_R   0.428332 0.578681 0.930398 0.062209
C28   C     C_R   0.438267 0.415268 0.060261 0.066922
C29   C     C_R   0.429294 0.577692 0.064013 0.053788
C30   C     C_R   0.428447 0.419785 0.927595 0.055808
C31   C     C_1   0.094549 0.656610 0.635132 0.180807
C32   C     C_1   0.908183 0.332467 0.582027 0.185379
C33   C     C_1   0.911211 0.658680 0.626255 0.183835
C34   C     C_R   0.451136 0.497097 0.127750 -0.214433
C35   C     C_1   0.090983 0.331193 0.607814 0.174624
C36   C     C_3   0.436342 0.163141 0.103306 -0.457943
C37   C     C_3   0.527589 0.133307 0.073553 -0.320527
C38   C     C_3   0.549130 0.045976 0.139783 -0.898575
C39   C     C_3   0.392102 0.819965 0.850631 -0.432011
C40   C     C_3   0.477900 0.869363 0.857274 -0.316829
C41   C     C_3   0.464554 0.967199 0.833008 -0.932573
C42   C     C_3   0.358324 0.187432 0.838309 -0.450836
C43   C     C_3   0.265279 0.168253 0.874756 -0.322545
C44   C     C_3   0.229535 0.089488 0.801669 -0.876604
C45   C     C_R   0.494739 0.905294 0.500763 -0.024629
C46   C     C_3   0.362744 0.816675 0.133022 -0.446013
C47   C     C_3   0.264216 0.821840 0.138131 -0.329078
C48   C     C_3   0.230714 0.915023 0.110398 -0.896398
C49   C     C_3   0.333095 0.091327 0.421644 -0.444509
C50   C     C_3   0.319212 0.192005 0.425011 -0.341624
C51   C     C_3   0.232930 0.216179 0.365259 -0.861793
C52   C     C_3   0.655538 0.902564 0.530714 -0.406145
C53   C     C_3   0.692581 0.888265 0.397919 -0.363731
C54   C     C_3   0.774174 0.833511 0.403753 -0.825872
C55   C     C_3   0.653545 0.101916 0.540699 -0.388663
C56   C     C_R   0.493266 0.095483 0.499331 -0.033517
C57   C     C_3   0.661639 0.140736 0.675340 -0.307651
C58   C     C_3   0.704597 0.077064 0.768838 -0.881736
C59   C     C_3   0.334649 0.898954 0.452292 -0.430123
C60   C     C_3   0.270834 0.900842 0.562698 -0.356829
C61   C     C_3   0.178260 0.906477 0.515199 -0.840802
C62   C     C_R   0.416979 0.951878 0.477782 0.047572
C63   C     C_R   0.570867 0.048429 0.522293 0.085353
C64   C     C_R   0.571742 0.953680 0.520514 0.071252
H1    H     H_    0.392078 0.655545 0.228504 0.175088
H2    H     H_    0.430656 0.166439 0.207558 0.209340
H3    H     H_    0.389154 0.112940 0.071176 0.201122
H4    H     H_    0.430490 0.978429 0.741614 0.277434
H5    H     H_    0.425921 0.993902 0.911602 0.261699
H6    H     H_    0.526881 0.001886 0.830608 0.264740
H7    H     H_    0.509137 0.861405 0.951933 0.220610
H8    H     H_    0.522117 0.842330 0.785185 0.226589
H9    H     H_    0.379905 0.804631 0.749417 0.184882
H10   H     H_    0.337781 0.861183 0.881770 0.217360
H11   H     H_    0.231270 0.102921 0.697954 0.273878
H12   H     H_    0.377229 0.353309 0.762073 0.163387
H13   H     H_    0.267484 0.029435 0.824114 0.247655
H14   H     H_    0.162174 0.077370 0.829499 0.258908
H15   H     H_    0.260418 0.154098 0.978058 0.213392
H16   H     H_    0.225469 0.227316 0.853110 0.238282
H17   H     H_    0.360506 0.203691 0.735503 0.198311
H18   H     H_    0.398882 0.128888 0.850610 0.212399
H19   H     H_    0.266251 0.965638 0.165582 0.247420
H20   H     H_    0.237107 0.930907 0.008046 0.257860
H21   H     H_    0.161955 0.918617 0.135165 0.257446
H22   H     H_    0.233877 0.776203 0.068271 0.232493
H23   H     H_    0.395583 0.657257 0.763721 0.174397
H24   H     H_    0.242636 0.800449 0.233792 0.213914
H25   H     H_    0.389910 0.814291 0.230404 0.174595
H26   H     H_    0.390479 0.877417 0.090489 0.220134
H27   H     H_    0.232696 0.200376 0.262278 0.248138
H28   H     H_    0.180266 0.178993 0.411489 0.273572
H29   H     H_    0.221504 0.288212 0.376080 0.264622
H30   H     H_    0.320896 0.215702 0.524488 0.235135
H31   H     H_    0.367359 0.227764 0.368734 0.223818
H32   H     H_    0.324192 0.070219 0.321511 0.197602
H33   H     H_    0.279441 0.064458 0.477016 0.232431
H34   H     H_    0.438891 0.317828 0.216658 0.182084
H35   H     H_    0.823116 0.866821 0.464069 0.267496
H36   H     H_    0.760234 0.766669 0.442846 0.277000
H37   H     H_    0.800123 0.826012 0.306614 0.244385
H38   H     H_    0.644951 0.853286 0.337051 0.231958
H39   H     H_    0.706967 0.953157 0.352709 0.218248
H40   H     H_    0.702938 0.935498 0.593151 0.209907
H41   H     H_    0.645853 0.837661 0.578362 0.208207
H42   H     H_    0.667753 0.014577 0.776476 0.258642
H43   H     H_    0.770623 0.062037 0.737702 0.265535
H44   H     H_    0.708001 0.107904 0.864258 0.248825
H45   H     H_    0.549893 0.054827 0.244283 0.266967
H46   H     H_    0.701082 0.201979 0.670821 0.230522
H47   H     H_    0.597992 0.159587 0.712568 0.217371
H48   H     H_    0.712218 0.065512 0.515924 0.203167
H49   H     H_    0.654419 0.157170 0.470707 0.176126
H50   H     H_    0.167476 0.967590 0.458620 0.247958
H51   H     H_    0.162604 0.848375 0.455029 0.268791
H52   H     H_    0.134436 0.907211 0.597557 0.263886
H53   H     H_    0.276627 0.838942 0.618599 0.228971
H54   H     H_    0.284508 0.956493 0.627777 0.223318
H55   H     H_    0.304705 0.923895 0.364000 0.221938
H56   H     H_    0.501493 0.994226 0.114947 0.262132
H57   H     H_    0.347042 0.828414 0.432118 0.190828
H58   H     H_    0.613358 0.023459 0.109955 0.249965
H59   H     H_    0.535088 0.125788 0.969473 0.221929
H60   H     H_    0.574030 0.184424 0.106280 0.229467
N1    N     N_1   0.500000 0.270550 0.500000 -0.115918
N2    N     N_1   0.500000 0.729450 0.500000 -0.103245
N3    N     N_1   0.132997 0.721114 0.651473 -0.228843
N4    N     N_1   0.870353 0.266758 0.573818 -0.219442
N5    N     N_1   0.874727 0.724451 0.638773 -0.222451
N6    N     N_1   0.127391 0.264929 0.616063 -0.226185
O1    O     O_R   0.378020 0.573650 0.500040 -0.631386
O2    O     O_R   0.621980 0.426350 0.499960 -0.593063
O3    O     O_R   0.621980 0.573650 0.499960 -0.592529
O4    O     O_R   0.378020 0.426350 0.500040 -0.630200
O5    O     O_R   0.499990 0.573670 0.316780 -0.611146
O6    O     O_R   0.500010 0.426330 0.683220 -0.609322
O7    O     O_R   0.500010 0.573670 0.683220 -0.614737
O8    O     O_R   0.499990 0.426330 0.316780 -0.623933
Zn1   Zn    Zn3+2 0.500000 0.598370 0.500000 0.946980
Zn2   Zn    Zn3+2 0.500000 0.401630 0.500000 0.937783

loop_
_geom_bond_atom_site_label_1
_geom_bond_atom_site_label_2
_ccdc_geom_bond_type
C59   H57   S    
C6    C32   S    
C21   C26   A    
C40   H7    S    
C55   H48   S    
C27   C29   A    
C24   C42   S    
C54   H37   S    
C42   H18   S    
C31   N3    T    
O6    Zn2   S    
C36   H3    S    
C46   H25   S    
C53   C54   S    
C18   H1    S    
O5    Zn1   S    
O7    Zn1   S    
C19   H12   S    
C10   O6    A    
O4    Zn2   S    
C36   H2    S    
C50   H31   S    
C20   C25   A    
C3    C33   S    
C43   H15   S    
C20   H23   S    
C45   C62   A    
C58   H43   S    
C11   C16   S    
C39   H10   S    
C4    C13   A    
C51   H27   S    
C37   H59   S    
C12   C16   T    
C22   C25   A    
C55   C63   S    
C61   H51   S    
C60   H54   S    
C10   O7    A    
C23   C27   A    
C41   H4    S    
C5    C13   A    
C38   H56   S    
C4    C35   S    
C28   C34   A    
C59   C60   S    
C1    C7    S    
C54   H36   S    
C42   H17   S    
C14   C45   S    
N1    Zn2   S    
N2    Zn1   S    
C23   C30   A    
C3    C11   A    
C7    O4    A    
C4    C6    A    
C52   C64   S    
C39   C40   S    
C50   H30   S    
C55   H49   S    
C43   H16   S    
C29   C34   A    
C48   H20   S    
C60   C61   S    
C58   H42   S    
C44   H11   S    
C43   C44   S    
C47   H22   S    
C8    O2    A    
C37   C38   S    
C2    C49   S    
C51   H28   S    
C37   H60   S    
C9    O8    A    
C47   C48   S    
C53   H38   S    
C8    C12   S    
C61   H52   S    
C50   C51   S    
C56   C63   A    
C60   H53   S    
C18   C29   A    
C38   H45   S    
C35   N6    T    
C38   H58   S    
O8    Zn2   S    
C51   H29   S    
C9    O5    A    
C26   C36   S    
C40   C41   S    
C22   C46   S    
C21   C28   A    
C52   H41   S    
O3    Zn1   S    
C55   C57   S    
C9    C34   S    
C54   H35   S    
C42   C43   S    
C6    C11   A    
C52   C53   S    
C41   H5    S    
C33   N5    T    
C46   C47   S    
C52   H40   S    
C59   C62   S    
C59   H55   S    
C40   H8    S    
C8    O3    A    
C18   C22   A    
C7    O1    A    
C24   C26   A    
C3    C5    A    
C57   H46   S    
C46   H26   S    
C20   C27   A    
C10   C23   S    
O2    Zn2   S    
C44   H13   S    
C45   C64   A    
C1    C17   T    
C14   N2    T    
C48   H19   S    
C13   C17   S    
C47   H24   S    
C32   N4    T    
C28   C30   A    
C19   C24   A    
C2    C56   A    
C15   C56   S    
C21   H34   S    
C57   C58   S    
C57   H47   S    
C53   H39   S    
C44   H14   S    
C58   H44   S    
C39   H9    S    
C49   H32   S    
O1    Zn1   S    
C49   H33   S    
C63   C64   A    
C36   C37   S    
C49   C50   S    
C15   N1    T    
C61   H50   S    
C48   H21   S    
C19   C30   A    
C25   C39   S    
C2    C62   A    
C41   H6    S    
C5    C31   S    
