data_mof_unit_59455.cif
_audit_creation_date              2013-03-05T15:46:02-0500
_audit_creation_method            fapswitch 2.2
_symmetry_space_group_name_H-M    P1
_symmetry_Int_Tables_number       1
_space_group_crystal_system       triclinic
_cell_length_a                    17.525669
_cell_length_b                    24.45356
_cell_length_c                    15.055178
_cell_angle_alpha                 90.138697
_cell_angle_beta                  125.8042
_cell_angle_gamma                 89.863681
_cell_volume                      5232.78728258

loop_
_atom_site_label
_atom_site_type_symbol
_atom_site_description
_atom_site_fract_x
_atom_site_fract_y
_atom_site_fract_z
_atom_type_partial_charge
C1    C     C_R   0.347799 0.150469 0.907862 -0.034550
C2    C     C_R   0.344751 0.850722 0.907120 -0.078736
C3    C     C_R   0.847847 0.650480 0.907865 -0.034203
C4    C     C_R   0.844782 0.350713 0.907121 -0.078701
H1    H     H_    0.304468 0.164467 0.823900 0.107050
H2    H     H_    0.300577 0.836803 0.823082 0.109160
H3    H     H_    0.804541 0.664479 0.823901 0.107148
H4    H     H_    0.800615 0.336795 0.823082 0.109163
N1    N     N_R   0.392140 0.102630 0.941800 -0.057032
N2    N     N_R   0.392140 0.897370 0.941800 -0.053079
N3    N     N_R   0.892140 0.602630 0.941800 -0.057075
N4    N     N_R   0.892140 0.397370 0.941800 -0.053074
C5    C     C_R   0.437593 0.849836 0.090956 -0.039074
C6    C     C_R   0.439179 0.150758 0.091281 -0.031387
C7    C     C_R   0.937607 0.349830 0.090954 -0.039159
C8    C     C_R   0.939171 0.650756 0.091279 -0.031597
H5    H     H_    0.477529 0.835739 0.174808 0.115967
H6    H     H_    0.479111 0.164441 0.175463 0.127445
H7    H     H_    0.977541 0.335735 0.174808 0.116102
H8    H     H_    0.979060 0.664421 0.175469 0.127768
N5    N     N_R   0.450890 0.896450 0.057150 -0.060693
N6    N     N_R   0.450890 0.103550 0.057150 -0.064312
N7    N     N_R   0.950890 0.396450 0.057150 -0.060697
N8    N     N_R   0.950890 0.603550 0.057150 -0.064334
C9    C     C_R   0.483461 0.046057 0.250785 -0.033441
C10   C     C_R   0.484440 0.954433 0.252370 -0.022802
C11   C     C_R   0.983464 0.546056 0.250789 -0.033583
C12   C     C_R   0.984441 0.454432 0.252370 -0.022820
H9    H     H_    0.480303 0.088211 0.270052 0.114765
H10   H     H_    0.481915 0.912464 0.272756 0.108274
H11   H     H_    0.980314 0.588209 0.270066 0.114735
H12   H     H_    0.981917 0.412463 0.272756 0.108265
N9    N     N_R   0.525160 0.027960 0.206160 -0.059253
N10   N     N_R   0.525160 0.972040 0.206160 -0.058650
N11   N     N_R   0.025160 0.527960 0.206160 -0.059218
N12   N     N_R   0.025160 0.472040 0.206160 -0.058629
C13   C     C_R   0.231227 0.954069 0.750589 -0.076810
C14   C     C_R   0.231348 0.046192 0.750919 -0.088941
C15   C     C_R   0.731228 0.454069 0.750599 -0.076793
C16   C     C_R   0.731350 0.546193 0.750929 -0.088917
H13   H     H_    0.209494 0.911934 0.733276 0.107772
H14   H     H_    0.209996 0.088456 0.734612 0.107660
H15   H     H_    0.709498 0.411934 0.733297 0.107895
H16   H     H_    0.710001 0.588458 0.734632 0.107907
N13   N     N_R   0.317870 0.971120 0.792790 -0.048316
N14   N     N_R   0.317870 0.028880 0.792790 -0.050998
N15   N     N_R   0.817870 0.471120 0.792790 -0.048333
N16   N     N_R   0.817870 0.528880 0.792790 -0.051030
C17   C     C_R   0.376329 0.180478 0.999608 0.212243
C18   C     C_R   0.371595 0.821500 0.998665 0.204383
C19   C     C_R   0.876356 0.680490 0.999605 0.212063
C20   C     C_R   0.871630 0.321485 0.998663 0.204275
C21   C     C_R   0.458048 0.000457 0.280940 0.230197
C22   C     C_R   0.958053 0.500456 0.280945 0.230162
C23   C     C_R   0.175090 0.000203 0.723813 0.050245
C24   C     C_R   0.675091 0.500203 0.723825 0.050355
C25   C     C_R   0.460417 0.045544 0.702349 -0.073265
C26   C     C_R   0.460858 0.954278 0.702401 -0.063953
C27   C     C_R   0.960450 0.545544 0.702368 -0.073253
C28   C     C_R   0.960892 0.454276 0.702422 -0.063867
H17   H     H_    0.448029 0.087462 0.674385 0.114522
H18   H     H_    0.448886 0.912318 0.674501 0.116004
H19   H     H_    0.948067 0.587462 0.674403 0.114450
H20   H     H_    0.948926 0.412316 0.674524 0.115959
N17   N     N_R   0.473480 0.027920 0.793480 -0.064168
N18   N     N_R   0.473480 0.972080 0.793480 -0.059735
N19   N     N_R   0.973480 0.527920 0.793480 -0.064158
N20   N     N_R   0.973480 0.472080 0.793480 -0.059737
C29   C     C_R   0.755127 0.954377 0.304452 -0.102057
C30   C     C_R   0.755070 0.045811 0.304261 -0.120151
C31   C     C_R   0.255127 0.454378 0.304453 -0.102181
C32   C     C_R   0.255070 0.545811 0.304262 -0.120164
H21   H     H_    0.768302 0.912196 0.330423 0.098974
H22   H     H_    0.768106 0.088073 0.329906 0.106487
H23   H     H_    0.268301 0.412196 0.330425 0.099014
H24   H     H_    0.268106 0.588073 0.329908 0.106552
N21   N     N_R   0.681610 0.971120 0.207570 -0.045073
N22   N     N_R   0.681610 0.028880 0.207570 -0.047041
N23   N     N_R   0.181610 0.471120 0.207570 -0.045064
N24   N     N_R   0.181610 0.528880 0.207570 -0.047046
C33   C     C_R   0.686732 0.126726 0.093075 -0.061142
C34   C     C_R   0.687759 0.874488 0.093096 -0.074852
C35   C     C_R   0.186732 0.626725 0.093081 -0.060962
C36   C     C_R   0.187751 0.374479 0.093106 -0.075198
H25   H     H_    0.741033 0.137119 0.177393 0.110714
H26   H     H_    0.743253 0.865280 0.177579 0.116204
H27   H     H_    0.241033 0.637114 0.177402 0.110732
H28   H     H_    0.243239 0.365272 0.177591 0.116141
N25   N     N_R   0.605410 0.102620 0.056870 -0.052931
N26   N     N_R   0.605410 0.897380 0.056870 -0.060281
N27   N     N_R   0.105410 0.602620 0.056870 -0.052910
N28   N     N_R   0.105410 0.397380 0.056870 -0.060249
C37   C     C_R   0.596799 0.874234 0.909482 -0.116418
C38   C     C_R   0.596911 0.125076 0.909364 0.000872
C39   C     C_R   0.096787 0.374201 0.909490 -0.116142
C40   C     C_R   0.096899 0.625101 0.909368 0.000705
H29   H     H_    0.568486 0.864632 0.825463 0.120834
H30   H     H_    0.568362 0.134468 0.825248 0.126810
H31   H     H_    0.068469 0.364581 0.825476 0.120800
H32   H     H_    0.068342 0.634511 0.825257 0.126705
N29   N     N_R   0.549680 0.896430 0.944180 -0.059595
N30   N     N_R   0.549680 0.103570 0.944180 -0.058876
N31   N     N_R   0.049680 0.396430 0.944180 -0.059645
N32   N     N_R   0.049680 0.603570 0.944180 -0.058907
Ni1   Ni    Ni4+2 0.433410 0.064680 0.868830 0.249291
Ni2   Ni    Ni4+2 0.433410 0.935320 0.868830 0.242540
Ni3   Ni    Ni4+2 0.933410 0.564680 0.868830 0.249194
Ni4   Ni    Ni4+2 0.933410 0.435320 0.868830 0.242493
Ni5   Ni    Ni4+2 0.565650 0.934380 0.131170 0.252532
Ni6   Ni    Ni4+2 0.565650 0.065620 0.131170 0.267823
Ni7   Ni    Ni4+2 0.065650 0.434380 0.131170 0.252555
Ni8   Ni    Ni4+2 0.065650 0.565620 0.131170 0.267935
C41   C     C_R   0.453656 0.999882 0.645891 0.257261
C42   C     C_R   0.953712 0.499881 0.645925 0.257300
C43   C     C_R   0.801612 0.000153 0.367070 0.071310
C44   C     C_R   0.301613 0.500153 0.367071 0.071368
C45   C     C_R   0.682196 0.141080 0.001483 0.138414
C46   C     C_R   0.683853 0.860516 0.001729 0.219707
C47   C     C_R   0.182195 0.641089 0.001496 0.138426
C48   C     C_R   0.183844 0.360493 0.001747 0.219737
C49   C     C_3   0.023030 0.949240 0.639369 -0.316696
C50   C     C_3   0.023208 0.051797 0.638509 -0.342102
C51   C     C_3   0.523033 0.449236 0.639365 -0.316500
C52   C     C_3   0.523204 0.551794 0.638524 -0.341740
H33   H     H_    0.055650 0.910710 0.637501 0.175238
H34   H     H_    0.055878 0.089983 0.635777 0.165268
H35   H     H_    0.555651 0.410710 0.637477 0.175379
H36   H     H_    0.555878 0.589983 0.635810 0.165443
H37   H     H_    0.027816 0.949397 0.716402 0.224159
H38   H     H_    0.028144 0.052469 0.715632 0.218017
H39   H     H_    0.527825 0.449384 0.716402 0.224205
H40   H     H_    0.528133 0.552458 0.715643 0.218143
C53   C     C_3   0.919245 0.949086 0.539655 -0.368362
C54   C     C_3   0.919371 0.051832 0.538912 -0.360816
C55   C     C_3   0.419246 0.449086 0.539656 -0.368318
C56   C     C_3   0.419370 0.551831 0.538919 -0.360866
H41   H     H_    0.872672 0.948737 0.567348 0.217715
H42   H     H_    0.872867 0.052787 0.566698 0.222079
H43   H     H_    0.372677 0.448737 0.567354 0.217762
H44   H     H_    0.372860 0.552787 0.566696 0.222126
H45   H     H_    0.906296 0.910769 0.493017 0.160950
H46   H     H_    0.906417 0.089831 0.491692 0.156930
H47   H     H_    0.406292 0.410769 0.493015 0.160953
H48   H     H_    0.406422 0.589831 0.491702 0.156980
H49   H     H_    0.100712 0.962876 0.522828 0.196306
H50   H     H_    0.100920 0.036230 0.522305 0.183535
H51   H     H_    0.600725 0.462892 0.522836 0.196269
H52   H     H_    0.600915 0.536245 0.522320 0.183524
H53   H     H_    0.948740 0.962896 0.377710 0.193209
H54   H     H_    0.948868 0.036306 0.377259 0.177351
H55   H     H_    0.448751 0.462899 0.377723 0.193031
H56   H     H_    0.448867 0.536308 0.377262 0.177346
C57   C     C_3   0.065434 0.999752 0.526940 -0.344829
C58   C     C_3   0.565437 0.499762 0.526949 -0.344866
C59   C     C_3   0.073653 0.000259 0.635271 0.241514
C60   C     C_3   0.573654 0.500260 0.635279 0.241198
C61   C     C_3   0.898179 0.000212 0.467413 0.279624
C62   C     C_3   0.398180 0.500213 0.467417 0.279594
C63   C     C_3   0.962784 0.999763 0.428834 -0.365071
C64   C     C_3   0.462787 0.499767 0.428842 -0.365185
C65   C     C_R   0.230777 0.781901 0.962814 0.233648
C66   C     C_R   0.376763 0.279598 0.031134 0.209630
C67   C     C_R   0.730736 0.281860 0.962558 0.233761
C68   C     C_R   0.876962 0.779574 0.031631 0.209827
C69   C     C_R   0.683469 0.237219 0.963615 0.399449
C70   C     C_R   0.828665 0.824633 0.033226 0.393268
C71   C     C_R   0.183528 0.737257 0.963901 0.399416
C72   C     C_R   0.328464 0.324662 0.032701 0.393329
C73   C     C_R   0.730554 0.186685 0.999686 -0.170280
C74   C     C_R   0.736872 0.817053 0.001276 -0.175020
C75   C     C_R   0.230552 0.686699 0.999729 -0.170391
C76   C     C_R   0.236857 0.317020 0.001337 -0.175300
C77   C     C_R   0.823359 0.180166 0.035621 -0.241489
C78   C     C_R   0.692596 0.766392 0.970034 -0.268422
C79   C     C_R   0.323285 0.680157 0.035415 -0.241450
C80   C     C_R   0.192765 0.266301 0.970681 -0.268561
H57   H     H_    0.857931 0.140715 0.063492 0.205680
H58   H     H_    0.621821 0.761501 0.947697 0.209958
H59   H     H_    0.357808 0.640685 0.063099 0.205746
H60   H     H_    0.122133 0.261375 0.948777 0.210113
C81   C     C_R   0.371009 0.724661 0.034746 0.501885
C82   C     C_R   0.239355 0.221696 0.970276 0.498415
C83   C     C_R   0.871095 0.224668 0.034959 0.501865
C84   C     C_R   0.739188 0.721784 0.969658 0.498492
C85   C     C_R   0.324111 0.774965 0.998128 -0.306049
C86   C     C_R   0.330831 0.228358 0.999787 -0.297316
C87   C     C_R   0.824141 0.274947 0.998112 -0.305949
C88   C     C_R   0.830856 0.728384 0.999744 -0.297108
C89   C     C_R   0.368740 0.986681 0.449475 0.359983
C90   C     C_R   0.535527 0.013376 0.564868 0.360514
C91   C     C_R   0.868775 0.486684 0.449509 0.359961
C92   C     C_R   0.035567 0.513369 0.564885 0.360514
C93   C     C_R   0.369329 0.986939 0.357505 0.247397
C94   C     C_R   0.536647 0.013801 0.474396 0.265195
C95   C     C_R   0.869352 0.486941 0.357531 0.247423
C96   C     C_R   0.036675 0.513794 0.474405 0.265188
C97   C     C_R   0.453318 0.001099 0.371479 -0.383772
C98   C     C_R   0.953338 0.501097 0.371493 -0.383777
C99   C     C_R   0.451766 0.000114 0.551196 -0.316596
C100  C     C_R   0.951811 0.500112 0.551225 -0.316635
N33   N     N_R   0.185371 0.834490 0.929337 0.272111
O1    O     O_R   0.220643 0.875730 0.996760 -0.315110
O2    O     O_R   0.108170 0.841086 0.831595 -0.357154
N34   N     N_R   0.469861 0.286094 0.058652 0.287313
O3    O     O_R   0.538297 0.254513 0.130883 -0.362006
O4    O     O_R   0.488060 0.326170 0.017024 -0.204443
N35   N     N_R   0.685274 0.334430 0.928889 0.272059
O5    O     O_R   0.720387 0.375700 0.996246 -0.315110
O6    O     O_R   0.608181 0.340979 0.831037 -0.357428
N36   N     N_R   0.970219 0.786041 0.059608 0.287325
O7    O     O_R   0.038498 0.754411 0.131934 -0.362318
O8    O     O_R   0.988725 0.826179 0.018413 -0.204265
Cl1   Cl    Cl    0.567979 0.246240 0.926968 -0.516209
Cl2   Cl    Cl    0.882783 0.889525 0.078632 -0.497213
Cl3   Cl    Cl    0.068147 0.746287 0.927588 -0.516454
Cl4   Cl    Cl    0.382360 0.389645 0.077369 -0.496668
Cl5   Cl    Cl    0.487977 0.716185 0.077846 -0.589396
Cl6   Cl    Cl    0.181469 0.157779 0.935767 -0.592427
Cl7   Cl    Cl    0.988150 0.216213 0.078354 -0.589552
Cl8   Cl    Cl    0.681047 0.657931 0.934513 -0.593223
Cl9   Cl    Cl    0.263831 0.972965 0.437293 -0.560833
Cl10  Cl    Cl    0.641070 0.026353 0.696182 -0.530352
Cl11  Cl    Cl    0.763872 0.472975 0.437342 -0.561097
Cl12  Cl    Cl    0.141118 0.526344 0.696194 -0.530127
N37   N     N_R   0.286007 0.973225 0.251218 0.280606
O9    O     O_R   0.258570 0.003769 0.166754 -0.305711
O10   O     O_R   0.239053 0.929043 0.237677 -0.243020
N38   N     N_R   0.622938 0.025561 0.487249 0.263079
O11   O     O_R   0.666230 0.987229 0.472701 -0.408428
O12   O     O_R   0.661610 0.073551 0.520939 -0.348615
N39   N     N_R   0.786021 0.473232 0.251247 0.280581
O13   O     O_R   0.758579 0.503779 0.166785 -0.305945
O14   O     O_R   0.739064 0.429052 0.237709 -0.243261
N40   N     N_R   0.122962 0.525549 0.487245 0.263089
O15   O     O_R   0.166246 0.487214 0.472691 -0.408384
O16   O     O_R   0.161641 0.573538 0.520932 -0.348563

loop_
_geom_bond_atom_site_label_1
_geom_bond_atom_site_label_2
_geom_bond_distance
_ccdc_geom_bond_type
C26   H18   1.081242 S    
C35   H27   1.080649 S    
H56   C64   1.114290 S    
C53   H41   1.112794 S    
C37   H29   1.079875 S    
N25   N30   1.376270 A    
C30   N22   1.324685 A    
N33   O1    1.301285 A    
C6    H6    1.081322 S    
C40   C47   1.373124 A    
C28   C42   1.364418 A    
N11   N12   1.367446 A    
N8    Ni8   1.876430 S    
C8    C19   1.367027 A    
C71   Cl3   1.772477 S    
N27   N32   1.376270 A    
C32   H24   1.079485 S    
N19   Ni3   1.874098 S    
C67   N35   1.438761 S    
N38   O12   1.300953 A    
N34   O4    1.301240 A    
C11   C22   1.374503 A    
N13   N14   1.412440 A    
N17   N18   1.365489 A    
C23   C59   1.471263 S    
N4    N7    1.408705 A    
C26   N18   1.327151 A    
H52   C58   1.114015 S    
C4    C20   1.369682 A    
C1    H1    1.081410 S    
C92   C96   1.373707 A    
C65   N33   1.438762 S    
C8    H8    1.081307 S    
C67   C69   1.377664 A    
C9    C21   1.374507 A    
C14   H14   1.077196 S    
C3    H3    1.081416 S    
C90   Cl10  1.775299 S    
N36   O7    1.300375 A    
C38   C45   1.373091 A    
C39   H31   1.079877 S    
N1    N6    1.408649 A    
N16   Ni3   1.862402 S    
C38   H30   1.079957 S    
C94   N38   1.437575 S    
N14   Ni1   1.862402 S    
C33   C45   1.380190 A    
N3    N8    1.408649 A    
C5    C18   1.366509 A    
C52   H40   1.112792 S    
N30   Ni1   1.908634 S    
C67   C87   1.403105 A    
C58   C64   1.519555 S    
C82   C86   1.400570 A    
C35   C47   1.380152 A    
C25   H17   1.081300 S    
H51   C58   1.114044 S    
C50   C54   1.538623 S    
C65   C85   1.403098 A    
C19   C88   1.416001 S    
C2    C18   1.369669 A    
N28   N31   1.376210 A    
C27   N19   1.324891 A    
C49   H33   1.109710 S    
C29   N21   1.325403 A    
C56   H44   1.112907 S    
C10   N10   1.327579 A    
C73   C77   1.390371 A    
C14   C23   1.391285 A    
C15   C24   1.391414 A    
C37   N29   1.323120 A    
C68   N36   1.438435 S    
N6    Ni6   1.876430 S    
C1    C17   1.373010 A    
C30   H22   1.079484 S    
C26   C41   1.364419 A    
C83   Cl7   1.763121 S    
C56   C62   1.554958 S    
C29   H21   1.079521 S    
N31   Ni4   1.906538 S    
C20   C87   1.408633 S    
C77   H57   1.084244 S    
C4    N4    1.325816 A    
C78   H58   1.085540 S    
C58   C60   1.551099 S    
C89   C93   1.390726 A    
C4    H4    1.081244 S    
C79   C81   1.377795 A    
C95   C98   1.403766 A    
H49   C57   1.114043 S    
C50   H34   1.109846 S    
C89   C99   1.401085 A    
C7    N7    1.324966 A    
C8    N8    1.325980 A    
C55   C62   1.554615 S    
C42   C100  1.406517 S    
C62   C64   1.545562 S    
N33   O2    1.301004 A    
C2    H2    1.081239 S    
N40   O16   1.300951 A    
N18   Ni2   1.878330 S    
C50   C59   1.554706 S    
N20   Ni4   1.878330 S    
N17   Ni1   1.874098 S    
N38   O11   1.300903 A    
C32   N24   1.324693 A    
C39   N31   1.323178 A    
C90   C99   1.396728 A    
N37   O9    1.301364 A    
C89   Cl9   1.770491 S    
C51   C60   1.554709 S    
N2    N5    1.408705 A    
C69   C73   1.406051 A    
C31   H23   1.079520 S    
H54   C63   1.114291 S    
C17   C86   1.415891 S    
C11   H11   1.080201 S    
N35   O5    1.301289 A    
C12   H12   1.080307 S    
C1    N1    1.329449 A    
C91   C100  1.401086 A    
C92   Cl12  1.775299 S    
C96   C98   1.407928 A    
C78   C84   1.363036 A    
N4    Ni4   1.878574 S    
C12   C22   1.376066 A    
C48   C76   1.412572 S    
C52   C56   1.538636 S    
C71   C75   1.406013 A    
C16   C24   1.391293 A    
C34   H26   1.080431 S    
C15   N15   1.325236 A    
C75   C79   1.390348 A    
N25   Ni6   1.864231 S    
C31   N23   1.325408 A    
C84   C88   1.400588 A    
C66   N34   1.438422 S    
C13   C23   1.391403 A    
N27   Ni8   1.864231 S    
C57   C63   1.519552 S    
C7    H7    1.081459 S    
N19   N20   1.365489 A    
N26   N29   1.376210 A    
C44   C62   1.467995 S    
C83   C87   1.400351 A    
C54   H46   1.110735 S    
C80   H60   1.085579 S    
C51   H35   1.109710 S    
N15   N16   1.412440 A    
C84   Cl8   1.768898 S    
C36   C48   1.378794 A    
N24   Ni8   1.876592 S    
N12   Ni7   1.885599 S    
N9    N10   1.367446 A    
C41   C99   1.406545 S    
C95   N39   1.439148 S    
N39   O14   1.301112 A    
C7    C20   1.366523 A    
N21   Ni5   1.878555 S    
H53   C63   1.114359 S    
C12   N12   1.327568 A    
C65   C71   1.377695 A    
C70   Cl2   1.768668 S    
C66   C72   1.396514 A    
C69   Cl1   1.772478 S    
C43   C61   1.467980 S    
C82   Cl6   1.768904 S    
N36   O8    1.301171 A    
C52   C60   1.554704 S    
C81   Cl5   1.763108 S    
C6    N6    1.325968 A    
C30   C43   1.379999 A    
N2    Ni2   1.878574 S    
C57   C59   1.551097 S    
C37   C46   1.374655 A    
C34   C46   1.378855 A    
C13   N13   1.325232 A    
C2    N2    1.325838 A    
C10   C21   1.376073 A    
C91   Cl11  1.770491 S    
C52   H36   1.109848 S    
C35   N27   1.330145 A    
N13   Ni2   1.860477 S    
C93   N37   1.439148 S    
C66   C86   1.413565 A    
C74   C78   1.390251 A    
C72   C76   1.396222 A    
N29   Ni2   1.906538 S    
C16   N16   1.325048 A    
C32   C44   1.379998 A    
C29   C43   1.380600 A    
C81   C85   1.400330 A    
C49   C59   1.554712 S    
C51   H39   1.112759 S    
C27   H19   1.081297 S    
C36   H28   1.080430 S    
C25   N17   1.324901 A    
C21   C97   1.413221 S    
C68   C88   1.413628 A    
C34   N26   1.330552 A    
C54   H42   1.112908 S    
C25   C41   1.364380 A    
N28   Ni7   1.859989 S    
C10   H10   1.080306 S    
N23   Ni7   1.878555 S    
C39   C48   1.374669 A    
C6    C17   1.366980 A    
N7    Ni7   1.878493 S    
C79   H59   1.084238 S    
C53   H45   1.110781 S    
C22   C98   1.413201 S    
C5    H5    1.081461 S    
C28   H20   1.081241 S    
C55   H43   1.112794 S    
C11   N11   1.323916 A    
H55   C64   1.114360 S    
C72   Cl4   1.768699 S    
C40   N32   1.321971 A    
C49   H37   1.112759 S    
C33   N25   1.330177 A    
C56   H48   1.110737 S    
C5    N5    1.324951 A    
N3    Ni3   1.874242 S    
C90   C94   1.373714 A    
C9    H9    1.080207 S    
H50   C57   1.114016 S    
C96   N40   1.437573 S    
C27   C42   1.364389 A    
C93   C97   1.403772 A    
C40   H32   1.079959 S    
C68   C70   1.396545 A    
C55   H47   1.110776 S    
N37   O10   1.301114 A    
C70   C74   1.396198 A    
C3    C19   1.373030 A    
C31   C44   1.380602 A    
C53   C61   1.554616 S    
C24   C60   1.471278 S    
C92   C100  1.396716 A    
C13   H13   1.076583 S    
C91   C95   1.390715 A    
C14   N14   1.325042 A    
C3    N3    1.329393 A    
C28   N20   1.327131 A    
C80   C82   1.363091 A    
N22   Ni6   1.876592 S    
N23   N24   1.412440 A    
C94   C97   1.407925 A    
C45   C73   1.412133 S    
C16   H16   1.077205 S    
C54   C61   1.554955 S    
N34   O3    1.300418 A    
C77   C83   1.377809 A    
C61   C63   1.545563 S    
N15   Ni4   1.860477 S    
N40   O15   1.300904 A    
C15   H15   1.076588 S    
C51   C55   1.538577 S    
N39   O13   1.301362 A    
N35   O6    1.301015 A    
N10   Ni5   1.885599 S    
C46   C74   1.412687 S    
N21   N22   1.412440 A    
N9    Ni6   1.889912 S    
C36   N28   1.330499 A    
N26   Ni5   1.859989 S    
C49   C53   1.538581 S    
C18   C85   1.408579 S    
N1    Ni1   1.874242 S    
C9    N9    1.323920 A    
C50   H38   1.112792 S    
N32   Ni3   1.908634 S    
C33   H25   1.080649 S    
N11   Ni8   1.889912 S    
C76   C80   1.390269 A    
C38   N30   1.321950 A    
C47   C75   1.412067 S    
N5    Ni5   1.878493 S    
