data_mof_unit_46543.cif
_audit_creation_date              2012-12-10T18:23:16-0500
_audit_creation_method            fapswitch 2.2
_symmetry_space_group_name_H-M    P1
_symmetry_Int_Tables_number       1
_space_group_crystal_system       triclinic
_cell_length_a                    27.629409
_cell_length_b                    10.770404
_cell_length_c                    9.518824
_cell_angle_alpha                 89.610344
_cell_angle_beta                  91.10749
_cell_angle_gamma                 90.532468
_cell_volume                      2831.89711773

loop_
_atom_site_label
_atom_site_type_symbol
_atom_type_description
_atom_site_fract_x
_atom_site_fract_y
_atom_site_fract_z
_atom_type_partial_charge
C1    C     C_R   0.501644 0.260523 0.500546 0.804791
C2    C     C_R   0.499213 0.739652 0.499966 0.793381
C3    C     C_R   0.101951 0.595317 0.411959 -0.128424
C4    C     C_R   0.899782 0.539791 0.455845 -0.121323
C5    C     C_R   0.126777 0.523845 0.314309 0.005166
C6    C     C_R   0.877639 0.573535 0.582181 -0.007917
C7    C     C_R   0.100720 0.449424 0.219262 -0.146429
C8    C     C_R   0.906064 0.620613 0.693122 -0.125092
C9    C     C_R   0.128410 0.677911 0.498106 -0.199723
C10   C     C_R   0.871546 0.486565 0.346421 -0.193908
C11   C     C_R   0.353876 0.507338 0.495069 -0.176496
C12   C     C_R   0.646067 0.504388 0.499858 -0.168563
C13   C     C_R   0.972931 0.520180 0.315886 -0.085209
C14   C     C_R   0.026598 0.654435 0.522786 -0.078065
C15   C     C_R   0.977400 0.621933 0.546476 0.094618
C16   C     C_R   0.024396 0.519409 0.315209 0.097345
C17   C     C_R   0.950136 0.560127 0.439407 0.054098
C18   C     C_R   0.050853 0.590063 0.416450 0.051751
C19   C     C_R   0.943213 0.482211 0.199594 0.041651
C20   C     C_R   0.052723 0.748983 0.597913 0.046848
C21   C     C_R   0.893707 0.457274 0.218208 0.521338
C22   C     C_R   0.103076 0.762633 0.581472 0.521758
C23   C     C_R   0.407449 0.500970 0.498668 0.864887
C24   C     C_R   0.592512 0.500774 0.500684 0.860669
C25   C     C_R   0.050416 0.445241 0.221766 -0.231327
C26   C     C_R   0.955249 0.642405 0.676221 -0.226738
C27   C     C_3   0.524935 0.039323 0.616604 0.108965
C28   C     C_3   0.477295 0.961420 0.387019 0.097415
C29   C     C_3   0.545820 0.956248 0.502745 0.095134
C30   C     C_3   0.456529 0.044010 0.501463 0.102199
C31   C     C_3   0.499305 0.875390 0.501201 -0.154459
C32   C     C_3   0.502862 0.124954 0.501869 -0.118405
C33   C     C_3   0.478563 0.959672 0.615787 0.115709
C34   C     C_3   0.523808 0.040791 0.387856 0.143930
C35   C     C_3   0.514179 0.606122 0.048989 0.467177
C36   C     C_3   0.485969 0.393967 0.951298 0.466640
C37   C     C_3   0.471284 0.583612 0.947407 0.432125
C38   C     C_3   0.528915 0.416674 0.052706 0.433739
C39   C     C_3   0.542828 0.522453 0.953446 -0.045395
C40   C     C_3   0.457294 0.477877 0.046315 -0.040336
C41   C     C_R   0.177524 0.526466 0.316749 0.595104
C42   C     C_R   0.827371 0.560116 0.594550 0.594426
C43   C     C_R   0.179557 0.675060 0.493469 0.638873
C44   C     C_R   0.821264 0.470860 0.366185 0.626341
C45   C     C_R   0.279040 0.595060 0.580534 0.054281
C46   C     C_R   0.724417 0.430291 0.588157 0.071031
C47   C     C_R   0.329968 0.590291 0.582608 0.330733
C48   C     C_R   0.673412 0.425191 0.588992 0.344401
C49   C     C_R   0.325903 0.424903 0.412415 -0.000043
C50   C     C_R   0.670175 0.582995 0.403854 0.013662
C51   C     C_R   0.274844 0.435900 0.406230 0.132860
C52   C     C_R   0.721180 0.587139 0.403098 0.104197
C53   C     C_R   0.252266 0.540042 0.467852 0.209403
C54   C     C_R   0.748148 0.510322 0.494378 0.273487
Cu1   Cu    Cu3+1 0.500010 0.499990 0.643150 1.051154
Cu2   Cu    Cu3+1 0.499990 0.500010 0.356850 1.033161
H1    H     H_    0.119200 0.390557 0.146063 0.178951
H2    H     H_    0.890410 0.640941 0.793797 0.202708
H3    H     H_    0.032580 0.378360 0.154541 0.144033
H4    H     H_    0.975811 0.671382 0.767675 0.152923
N1    N     N_R   0.202402 0.578160 0.428904 -0.428756
N2    N     N_R   0.800216 0.511095 0.486626 -0.425237
N3    N     N_3   0.500040 0.499970 0.858290 -0.246951
N4    N     N_3   0.499960 0.500030 0.141710 -0.245387
O1    O     O_R   0.500020 0.316850 0.620870 -0.538277
O2    O     O_R   0.499980 0.683150 0.379130 -0.550547
O3    O     O_R   0.500000 0.316860 0.379090 -0.542335
O4    O     O_R   0.500000 0.683140 0.620910 -0.538871
O5    O     O_R   0.430270 0.500020 0.620880 -0.512278
O6    O     O_R   0.569730 0.499980 0.379120 -0.520130
O7    O     O_R   0.430250 0.500030 0.379090 -0.577241
O8    O     O_R   0.569750 0.499970 0.620910 -0.564827
O9    O     O_2   0.201118 0.486438 0.203315 -0.543729
O10   O     O_2   0.805631 0.598393 0.712190 -0.527606
O11   O     O_2   0.793173 0.417745 0.265440 -0.502794
O12   O     O_2   0.205459 0.772754 0.541609 -0.513091
N5    N     N_3   0.349106 0.325986 0.340829 -0.581680
H5    H     H_    0.334687 0.242251 0.377680 0.212825
H6    H     H_    0.340138 0.333006 0.233998 0.239766
N6    N     N_3   0.642711 0.656322 0.304992 -0.551923
H7    H     H_    0.654733 0.748300 0.310615 0.206343
H8    H     H_    0.649876 0.624246 0.204314 0.227580
N7    N     N_3   0.551692 0.078503 0.741887 -0.600863
H9    H     H_    0.567166 0.999445 0.787489 0.196603
H10   H     H_    0.526570 0.110436 0.812925 0.258980
N8    N     N_3   0.449376 0.925464 0.262624 -0.612429
H11   H     H_    0.473044 0.883285 0.194339 0.263857
H12   H     H_    0.424152 0.858365 0.293736 0.214878
N9    N     N_3   0.453308 0.919756 0.740694 -0.546057
H13   H     H_    0.434038 0.995790 0.776621 0.211038
H14   H     H_    0.479342 0.899799 0.817949 0.232299
N10   N     N_3   0.549903 0.082299 0.264842 -0.533584
H15   H     H_    0.570280 0.007691 0.230264 0.212057
H16   H     H_    0.524231 0.100052 0.185755 0.239594
O13   O     O_3   0.442541 0.675609 0.881658 -0.507563
C55   C     C_3   0.409414 0.724211 0.977199 -0.259079
H17   H     H_    0.400622 0.820746 0.945952 0.184062
H18   H     H_    0.423725 0.727633 0.087003 0.131365
H19   H     H_    0.375142 0.669760 0.972015 0.183945
O14   O     O_3   0.557648 0.324960 0.119147 -0.543595
C56   C     C_3   0.591770 0.278372 0.025357 -0.295943
H20   H     H_    0.577558 0.270975 0.915562 0.192852
H21   H     H_    0.602218 0.183668 0.059549 0.188742
H22   H     H_    0.625122 0.336520 0.029660 0.181133
O15   O     O_3   0.528662 0.720063 0.109485 -0.557847
C57   C     C_3   0.551095 0.797542 0.009271 -0.351029
H23   H     H_    0.541365 0.775433 0.898096 0.192130
H24   H     H_    0.590974 0.792878 0.023964 0.186437
H25   H     H_    0.540128 0.894723 0.027419 0.148332
O16   O     O_3   0.471333 0.279386 0.892633 -0.569428
C58   C     C_3   0.450142 0.202252 0.995736 -0.318372
H26   H     H_    0.410137 0.205879 0.984301 0.184523
H27   H     H_    0.460806 0.225500 0.105964 0.205088
H28   H     H_    0.461296 0.105130 0.978427 0.152480
N11   N     N_3   0.590485 0.553679 0.899736 -0.553329
H29   H     H_    0.613187 0.571783 0.986183 0.208139
H30   H     H_    0.604313 0.475104 0.852552 0.275537
N12   N     N_3   0.409372 0.447861 0.098389 -0.550041
H31   H     H_    0.386856 0.431271 0.010928 0.217559
H32   H     H_    0.395723 0.526171 0.146923 0.234838
N13   N     N_3   0.245950 0.331581 0.360706 -0.549014
H33   H     H_    0.256377 0.305239 0.260304 0.249003
H34   H     H_    0.252374 0.257353 0.429689 0.205765
N14   N     N_3   0.746441 0.669763 0.310324 -0.560916
H35   H     H_    0.735597 0.650932 0.206797 0.246172
H36   H     H_    0.737396 0.761121 0.334136 0.214381
O17   O     O_3   0.650776 0.339380 0.674714 -0.608720
C59   C     C_3   0.641425 0.230434 0.596575 -0.253883
H37   H     H_    0.671306 0.205615 0.525127 0.147030
H38   H     H_    0.607165 0.239660 0.534710 0.185981
H39   H     H_    0.637481 0.151743 0.671042 0.215479
O18   O     O_3   0.355989 0.664829 0.674697 -0.555238
C60   C     C_3   0.359547 0.784889 0.614853 -0.210705
H40   H     H_    0.326216 0.815299 0.556749 0.144600
H41   H     H_    0.365214 0.852488 0.700691 0.203746
H42   H     H_    0.390874 0.789674 0.543609 0.171208
N15   N     N_3   0.752517 0.351968 0.680057 -0.540006
H43   H     H_    0.742433 0.369180 0.783376 0.269022
H44   H     H_    0.744230 0.259368 0.657212 0.223725
N16   N     N_3   0.255239 0.635632 0.704650 -0.506713
H45   H     H_    0.265298 0.576272 0.787337 0.226226
H46   H     H_    0.267728 0.724614 0.730731 0.272994
O19   O     O_3   0.866113 0.418029 0.103724 -0.510409
C61   C     C_3   0.869510 0.287664 0.094574 -0.210689
H47   H     H_    0.907052 0.258243 0.072634 0.122019
H48   H     H_    0.845958 0.255636 0.006081 0.194610
H49   H     H_    0.856639 0.240983 0.191866 0.155675
O20   O     O_3   0.127632 0.853932 0.656515 -0.528167
C62   C     C_3   0.127318 0.964557 0.575970 -0.196836
H50   H     H_    0.149940 0.035096 0.631431 0.183780
H51   H     H_    0.143036 0.950922 0.470382 0.156583
H52   H     H_    0.090175 0.002548 0.564414 0.158694
N17   N     N_3   0.959403 0.490838 0.056998 -0.560131
H53   H     H_    0.968897 0.403149 0.021190 0.213178
H54   H     H_    0.988296 0.553472 0.047726 0.227400
N18   N     N_3   0.029006 0.843966 0.675672 -0.586789
H55   H     H_    0.028941 0.820163 0.782210 0.231843
H56   H     H_    0.994137 0.860701 0.636015 0.228820
N19   N     N_3   0.595001 0.909691 0.504239 -0.588203
H57   H     H_    0.597357 0.853053 0.416512 0.231998
H58   H     H_    0.598867 0.851807 0.592218 0.216603
N20   N     N_3   0.407188 0.089153 0.499338 -0.597097
H59   H     H_    0.402243 0.131678 0.401500 0.244021
H60   H     H_    0.405092 0.158472 0.575210 0.225586

loop_
_geom_bond_atom_site_label_1
_geom_bond_atom_site_label_2
_ccdc_geom_bond_type
C40   N12   S    
Cu1   Cu2   S    
C56   H20   S    
C27   C29   S    
C8    C26   A    
C14   C18   A    
C11   C47   A    
O13   C55   S    
C41   N1    A    
C12   C48   A    
C59   H37   S    
Cu1   O4    S    
C24   O6    A    
C29   N19   S    
N5    H5    S    
C27   C33   S    
N15   H44   S    
C24   O8    A    
N7    H9    S    
C11   C49   A    
N18   H55   S    
C35   C37   S    
N16   H46   S    
C37   C40   S    
C2    O4    A    
C62   H51   S    
C38   C39   S    
N8    H12   S    
C9    C22   A    
C57   H23   S    
C59   H38   S    
N11   H29   S    
C55   H19   S    
C16   C25   A    
C37   O13   S    
C3    C18   A    
C23   O5    A    
O16   C58   S    
O14   C56   S    
C8    H2    S    
N12   H31   S    
C53   N1    S    
N18   H56   S    
C58   H26   S    
O18   C60   S    
C49   C51   A    
C55   H18   S    
C60   H42   S    
C1    O1    A    
Cu2   N4    S    
C35   N4    S    
N17   H54   S    
C36   N3    S    
C42   N2    A    
C38   N4    S    
Cu1   O8    S    
C45   C47   A    
C28   C34   S    
C56   H21   S    
C34   N10   S    
Cu2   O2    S    
C61   H49   S    
N10   H16   S    
C37   N3    S    
C52   C54   A    
N20   H60   S    
N5    H6    S    
C10   C21   A    
C46   C48   A    
C9    C43   A    
C42   O10   S    
C13   C19   A    
C10   C44   A    
C30   C32   S    
C23   O7    A    
C36   C40   S    
O20   C62   S    
C21   O19   S    
C4    C6    A    
C62   H52   S    
C5    C7    A    
N8    H11   S    
N6    H7    S    
C15   C26   A    
C6    C8    A    
C54   N2    S    
N11   H30   S    
C29   C34   S    
C45   C53   A    
C45   N16   S    
Cu1   N3    S    
C2    C31   S    
C51   C53   A    
C32   C34   S    
C44   O11   S    
C35   C39   S    
C3    C9    A    
C14   C20   A    
C50   C52   A    
N19   H57   S    
Cu2   O7    S    
C55   H17   S    
C46   C54   A    
C31   C33   S    
C58   H27   S    
N16   H45   S    
N13   H33   S    
Cu1   O5    S    
C46   N15   S    
C4    C17   A    
C61   H48   S    
N7    H10   S    
C22   O20   S    
C56   H22   S    
Cu2   O6    S    
C36   O16   S    
C60   H40   S    
C19   N17   S    
N9    H14   S    
C30   N20   S    
C4    C10   A    
O17   C59   S    
C59   H39   S    
C3    C5    A    
C43   N1    A    
N14   H36   S    
N20   H59   S    
N15   H43   S    
C43   O12   S    
C15   C17   A    
C5    C41   A    
C20   N18   S    
C30   C33   S    
C19   C21   A    
C27   C32   S    
Cu1   O1    S    
C28   C31   S    
C20   C22   A    
C61   H47   S    
C2    O2    A    
C50   N6    S    
C12   C50   A    
Cu2   O3    S    
C39   N3    S    
O15   C57   S    
C12   C24   S    
C39   N11   S    
C7    C25   A    
C13   C17   A    
C47   O18   S    
C44   N2    A    
C36   C38   S    
N19   H58   S    
N17   H53   S    
C28   C30   S    
C29   C31   S    
C62   H50   S    
C48   O17   S    
C28   N8    S    
C52   N14   S    
C38   O14   S    
C57   H24   S    
C33   N9    S    
C51   N13   S    
C40   N4    S    
C11   C23   S    
N10   H15   S    
C1    O3    A    
N6    H8    S    
C49   N5    S    
C58   H28   S    
C1    C32   S    
N12   H32   S    
N13   H34   S    
C41   O9    S    
C27   N7    S    
C16   C18   A    
C6    C42   A    
C13   C16   A    
C60   H41   S    
C14   C15   A    
C35   O15   S    
C25   H3    S    
N9    H13   S    
C26   H4    S    
C7    H1    S    
O19   C61   S    
N14   H35   S    
C57   H25   S    
