data_mof_unit_40188.cif
_audit_creation_date              2012-12-11T16:08:53-0500
_audit_creation_method            fapswitch 2.2
_symmetry_space_group_name_H-M    P1
_symmetry_Int_Tables_number       1
_space_group_crystal_system       triclinic
_cell_length_a                    12.943385
_cell_length_b                    13.294711
_cell_length_c                    27.740798
_cell_angle_alpha                 94.640748
_cell_angle_beta                  90.329305
_cell_angle_gamma                 119.090555
_cell_volume                      4152.16950902

loop_
_atom_site_label
_atom_site_type_symbol
_atom_type_description
_atom_site_fract_x
_atom_site_fract_y
_atom_site_fract_z
_atom_type_partial_charge
C1    C     C_R   0.627316 0.896827 0.426897 0.571801
C2    C     C_R   0.151057 0.739534 0.302526 0.017652
C3    C     C_R   0.137745 0.726885 0.201860 0.005137
C4    C     C_R   0.600978 0.222053 0.440554 0.546112
C5    C     C_R   0.125986 0.632336 0.225004 -0.114589
C6    C     C_R   0.131010 0.638078 0.275159 -0.126030
C7    C     C_R   0.126137 0.718208 0.151988 -0.175124
C8    C     C_R   0.120902 0.805169 0.128348 0.001837
C9    C     C_R   0.208632 0.948318 0.357298 -0.114740
C10   C     C_R   0.188229 0.939549 0.307163 0.019638
C11   C     C_R   0.163691 0.835720 0.279548 0.019902
C12   C     C_R   0.700992 0.441684 0.239715 -0.107749
C13   C     C_R   0.200312 0.034701 0.283737 0.256729
C14   C     C_R   0.184146 0.024217 0.233197 -0.095916
C15   C     C_R   0.163254 0.922450 0.205376 -0.022311
C16   C     C_R   0.268165 0.876336 0.426020 0.539523
C17   C     C_R   0.155007 0.828584 0.228906 0.001132
C18   C     C_R   0.147042 0.911090 0.154587 0.262708
C19   C     C_R   0.205611 0.855427 0.379253 -0.021254
C20   C     C_R   0.727086 0.959692 0.352188 -0.174721
C21   C     C_R   0.728678 0.947420 0.302428 -0.009130
C22   C     C_R   0.728891 0.924487 0.201815 0.015102
C23   C     C_R   0.691429 0.424532 0.288935 -0.111973
C24   C     C_R   0.796341 0.033183 0.227385 -0.128253
C25   C     C_R   0.797304 0.044378 0.277572 -0.119952
C26   C     C_R   0.735915 0.911177 0.152056 -0.127204
C27   C     C_R   0.678878 0.800606 0.127335 -0.004746
C28   C     C_R   0.627014 0.899076 0.565153 0.549925
C29   C     C_R   0.577970 0.756241 0.352647 0.252300
C30   C     C_R   0.587646 0.740480 0.302333 0.018499
C31   C     C_R   0.658365 0.837968 0.277189 0.018492
C32   C     C_R   0.526383 0.630634 0.276379 -0.130642
C33   C     C_R   0.529143 0.618747 0.226133 -0.157172
C34   C     C_R   0.669222 0.318101 0.303935 0.021715
C35   C     C_R   0.594493 0.716127 0.201120 0.009274
C36   C     C_R   0.659639 0.826280 0.226676 0.066564
C37   C     C_R   0.602853 0.704231 0.151286 -0.135368
C38   C     C_R   0.648409 0.867050 0.377401 0.011344
C39   C     C_R   0.740477 0.296574 0.651964 -0.135713
C40   C     C_R   0.603410 0.227426 0.578390 0.545935
C41   C     C_R   0.753983 0.320634 0.702381 0.025206
C42   C     C_R   0.768145 0.350206 0.804080 0.010907
C43   C     C_R   0.857408 0.341243 0.778846 -0.086153
C44   C     C_R   0.849356 0.324559 0.728316 -0.125400
C45   C     C_R   0.688097 0.352487 0.205251 0.030809
C46   C     C_R   0.777337 0.370297 0.854525 -0.176948
C47   C     C_R   0.686163 0.376105 0.879406 -0.028473
C48   C     C_R   0.564481 0.317896 0.651655 -0.126847
C49   C     C_R   0.573173 0.335642 0.701818 -0.036047
C50   C     C_R   0.666453 0.334464 0.727526 0.051366
C51   C     C_R   0.485760 0.348050 0.726416 -0.148733
C52   C     C_R   0.272242 0.879575 0.563524 0.546993
C53   C     C_R   0.483979 0.350251 0.776983 0.282212
C54   C     C_R   0.576986 0.347675 0.803146 0.027161
C55   C     C_R   0.670681 0.344512 0.778289 -0.032911
C56   C     C_1   0.696233 0.371476 0.154708 -0.068822
C57   C     C_R   0.579668 0.349650 0.853804 0.285849
C58   C     C_R   0.641705 0.288667 0.626939 -0.001292
C59   C     C_1   0.223777 0.862724 0.610440 -0.010391
C60   C     C_R   0.141945 0.735998 0.721410 -0.092107
C61   C     C_R   0.131643 0.727105 0.771730 0.303307
C62   C     C_R   0.180278 0.929197 0.783349 -0.168935
C63   C     C_R   0.193564 0.937880 0.733627 -0.124749
C64   C     C_1   0.633148 0.269497 0.394878 -0.018574
C65   C     C_R   0.173651 0.841156 0.702543 -0.002084
C66   C     C_R   0.149217 0.824382 0.802458 0.052379
C67   C     C_1   0.652827 0.296705 0.354123 -0.072989
C68   C     C_1   0.128799 0.814320 0.853328 -0.011502
C69   C     C_1   0.195914 0.851976 0.651896 -0.053021
C70   C     C_1   0.102759 0.797986 0.894733 -0.001813
C71   C     C_1   0.641165 0.867369 0.611934 -0.011898
C72   C     C_R   0.677284 0.929058 0.738226 -0.107402
C73   C     C_R   0.677859 0.916742 0.787770 -0.111658
C74   C     C_R   0.621658 0.714541 0.769639 -0.098774
C75   C     C_R   0.621031 0.726860 0.720000 -0.108264
C76   C     C_R   0.656461 0.228960 0.269487 -0.118906
C77   C     C_R   0.649893 0.834513 0.704210 0.035131
C78   C     C_1   0.704447 0.396448 0.113539 -0.023443
C79   C     C_R   0.650352 0.809580 0.803624 0.033581
C80   C     C_1   0.663169 0.799790 0.854342 -0.047666
C81   C     C_1   0.646993 0.848695 0.653398 -0.057952
C82   C     C_1   0.681971 0.790608 0.895925 -0.001221
C83   C     C_R   0.064282 0.771802 0.079470 0.554138
C84   C     C_R   0.717115 0.441304 0.067322 0.537558
C85   C     C_R   0.719707 0.782081 0.080586 0.542920
C86   C     C_R   0.056705 0.766275 0.941322 0.538391
C87   C     C_R   0.709665 0.433441 0.929001 0.552357
C88   C     C_R   0.666170 0.246130 0.220257 -0.115699
C89   C     C_R   0.167079 0.748752 0.352411 -0.141226
C90   C     C_R   0.716151 0.776226 0.943022 0.542938
C91   C     C_3   0.343224 0.218095 0.307488 -0.126359
C92   C     C_3   0.383649 0.644190 0.368982 -0.087017
C93   C     C_3   0.417695 0.218315 0.888666 -0.095973
C94   C     C_3   0.284794 0.285693 0.785165 -0.111124
C95   C     C_3   0.166485 0.573578 0.776254 -0.124866
C96   C     C_3   0.257647 0.063185 0.112023 -0.126269
Cr1   Cr    Cr6+3 0.416430 0.829200 0.492370 1.032739
Cr2   Cr    Cr6+3 0.674630 0.087020 0.504170 1.022174
Cr3   Cr    Cr6+3 0.408920 0.083740 0.503490 1.027458
Cr4   Cr    Cr6+3 0.914010 0.832750 0.013970 1.049521
Cr5   Cr    Cr6+3 0.922310 0.578600 0.003000 1.022204
Cr6   Cr    Cr6+3 0.656280 0.574630 0.003870 1.047734
H1    H     H_    0.637540 0.145724 0.280673 0.118609
H2    H     H_    0.655661 0.176467 0.194002 0.109326
H3    H     H_    0.857492 0.386525 0.874134 0.144441
H4    H     H_    0.801860 0.276282 0.632847 0.124832
H5    H     H_    0.917483 0.314564 0.709555 0.095183
H6    H     H_    0.417660 0.354210 0.706110 0.104906
H7    H     H_    0.489779 0.314993 0.632381 0.133987
H8    H     H_    0.125467 0.661471 0.696935 0.108498
H9    H     H_    0.717542 0.524220 0.228472 0.125110
H10   H     H_    0.193556 0.003925 0.806947 0.099462
H11   H     H_    0.219645 0.019975 0.719409 0.115247
H12   H     H_    0.189514 0.096761 0.215965 0.164095
H13   H     H_    0.698745 0.012500 0.726425 0.115416
H14   H     H_    0.701619 0.991115 0.813640 0.108585
H15   H     H_    0.601725 0.631563 0.781498 0.145189
H16   H     H_    0.598736 0.652933 0.694074 0.115022
H17   H     H_    0.700020 0.493559 0.315114 0.126543
H18   H     H_    0.161601 0.676032 0.369645 0.117690
H19   H     H_    0.111372 0.553408 0.204299 0.110307
H20   H     H_    0.122316 0.564359 0.292526 0.102032
H21   H     H_    0.401525 0.185407 0.320946 0.128024
H22   H     H_    0.362846 0.297602 0.330934 0.154440
H23   H     H_    0.236663 0.030175 0.378572 0.176767
H24   H     H_    0.364317 0.242644 0.269929 0.112825
H25   H     H_    0.558696 0.618417 0.132075 0.134661
H26   H     H_    0.378655 0.724225 0.364281 0.135746
H27   H     H_    0.331329 0.605155 0.400488 0.152203
H28   H     H_    0.340531 0.581374 0.336739 0.095426
H29   H     H_    0.932577 0.345565 0.798234 0.111385
H30   H     H_    0.470362 0.196903 0.913593 0.098759
H31   H     H_    0.389380 0.158402 0.854838 0.098947
H32   H     H_    0.336515 0.204651 0.906967 0.139674
H33   H     H_    0.274562 0.197555 0.778406 0.094621
H34   H     H_    0.793868 0.985457 0.133260 0.133133
H35   H     H_    0.257134 0.310616 0.752240 0.097086
H36   H     H_    0.223740 0.281964 0.813732 0.143829
H37   H     H_    0.262206 0.639082 0.776524 0.123647
H38   H     H_    0.134597 0.525098 0.739922 0.106967
H39   H     H_    0.157967 0.510431 0.801897 0.143687
H40   H     H_    0.109383 0.637646 0.132076 0.145887
H41   H     H_    0.330034 0.101534 0.140916 0.104185
H42   H     H_    0.258368 0.135510 0.094423 0.142576
H43   H     H_    0.274816 0.009335 0.083849 0.110616
H44   H     H_    0.780734 0.045366 0.370753 0.150739
H45   H     H_    0.850200 0.108884 0.208671 0.114415
H46   H     H_    0.850767 0.129053 0.296936 0.121238
H47   H     H_    0.481524 0.533181 0.206903 0.110215
H48   H     H_    0.477112 0.553376 0.294684 0.143130
O1    O     O_R   0.296680 0.802170 0.437540 -0.537137
O2    O     O_R   0.637200 0.461990 0.052510 -0.519296
O3    O     O_R   0.664790 0.681920 0.057970 -0.510699
O4    O     O_R   0.525380 0.838530 0.443500 -0.467805
O5    O     O_R   0.815840 0.852920 0.961840 -0.515231
O6    O     O_R   0.012100 0.822630 0.963670 -0.504894
O7    O     O_R   0.037010 0.668460 0.953040 -0.498140
O8    O     O_R   0.813390 0.478970 0.949660 -0.510409
O9    O     O_R   0.632250 0.456930 0.945520 -0.451202
O10   O     O_R   0.660200 0.677230 0.958780 -0.482969
O11   O     O_3   0.830870 0.661990 0.006950 -0.254765
O12   O     O_R   0.662610 0.183990 0.557860 -0.502626
O13   O     O_R   0.702130 0.995190 0.446810 -0.530613
O14   O     O_R   0.661770 0.181390 0.458760 -0.498209
O15   O     O_R   0.499820 0.198480 0.455280 -0.507275
O16   O     O_R   0.311660 0.976250 0.449080 -0.503076
O17   O     O_R   0.297580 0.804960 0.544440 -0.508341
O18   O     O_R   0.526220 0.841130 0.542590 -0.490859
O19   O     O_R   0.703030 0.997990 0.553710 -0.509628
O20   O     O_3   0.222580 0.136429 0.310328 -0.573719
O21   O     O_3   0.500626 0.665139 0.377814 -0.567112
O22   O     O_3   0.481360 0.334764 0.878526 -0.485653
O23   O     O_R   0.500730 0.201280 0.562180 -0.518096
O24   O     O_3   0.401074 0.369679 0.801520 -0.514989
O25   O     O_3   0.095576 0.622907 0.791409 -0.559718
O26   O     O_3   0.146127 0.999061 0.131463 -0.555931
O27   O     O_R   0.312500 0.978850 0.548170 -0.493699
O28   O     O_3   0.499990 0.999990 0.500010 -0.250919
O29   O     O_R   0.820790 0.857990 0.068830 -0.499753
O30   O     O_R   0.016700 0.827330 0.062850 -0.445794
O31   O     O_R   0.041970 0.673520 0.060040 -0.535350
O32   O     O_R   0.817980 0.483660 0.048840 -0.495655

loop_
_geom_bond_atom_site_label_1
_geom_bond_atom_site_label_2
_ccdc_geom_bond_type
Cr4   O30   S    
C15   C18   A    
C66   C68   S    
C63   C65   A    
C93   O22   S    
C91   H24   S    
C39   H4    S    
C8    C83   S    
C16   O1    A    
C35   C36   A    
C61   O25   S    
C37   H25   S    
Cr2   O13   S    
C7    C8    A    
C39   C41   A    
C53   C54   A    
C96   H43   S    
C21   C31   A    
C72   H13   S    
C95   H38   S    
C72   C77   A    
C73   H14   S    
C83   O30   A    
C35   C37   A    
Cr3   O27   S    
C3    C7    A    
C93   H31   S    
C16   C19   S    
C52   O17   A    
C23   H17   S    
C30   C31   A    
C47   C57   A    
C92   O21   S    
C46   H3    S    
C5    H19   S    
C56   C78   T    
C4    O15   A    
C83   O31   A    
C42   C46   A    
C27   C85   S    
C95   O25   S    
C52   O27   A    
C86   O6    A    
Cr2   O12   S    
C46   C47   A    
Cr2   O19   S    
C61   C66   A    
C9    C19   A    
C45   C56   S    
C16   O16   A    
C51   H6    S    
C49   C51   A    
C29   C38   A    
C4    O14   A    
Cr4   O11   S    
Cr2   O28   S    
C93   H30   S    
C9    C10   A    
C76   C88   A    
Cr3   O16   S    
Cr4   O6    S    
C76   H1    S    
C48   H7    S    
Cr5   O7    S    
C91   H21   S    
C13   C14   A    
C2    C6    A    
C75   H16   S    
C2    C11   A    
C92   H26   S    
C88   H2    S    
C53   O24   S    
C73   C79   A    
C40   C58   S    
C74   C75   A    
C62   C66   A    
C64   C67   T    
C45   C88   A    
C26   H34   S    
C24   C25   A    
Cr3   O28   S    
C80   C82   T    
C93   H32   S    
Cr6   O10   S    
C72   C73   A    
C12   C23   A    
Cr1   O17   S    
C39   C58   A    
C10   C13   A    
C8    C18   A    
C60   C61   A    
C51   C53   A    
C47   C87   S    
C34   C67   S    
C2    C89   A    
C92   H28   S    
C43   C44   A    
C40   O12   A    
C62   C63   A    
C19   C89   A    
C52   C59   S    
C42   C55   A    
C96   H42   S    
C20   C38   A    
Cr3   O23   S    
C89   H18   S    
C77   C81   S    
C85   O29   A    
C23   C34   A    
C94   H33   S    
Cr1   O1    S    
C32   H48   S    
C85   O3    A    
Cr1   O4    S    
C29   O21   S    
C48   C58   A    
C75   C77   A    
Cr6   O3    S    
C1    C38   S    
C94   O24   S    
C84   O2    A    
Cr4   O5    S    
C48   C49   A    
C59   C69   T    
Cr5   O8    S    
C95   H39   S    
C91   H22   S    
C26   C27   A    
C94   H36   S    
C41   C44   A    
C20   H44   S    
C28   C71   S    
C42   C43   A    
C6    H20   S    
C70   C86   S    
C41   C50   A    
Cr5   O31   S    
C44   H5    S    
C15   C17   A    
C74   H15   S    
C21   C25   A    
C54   C55   A    
C11   C17   A    
C96   O26   S    
C91   O20   S    
C31   C36   A    
C84   O32   A    
C12   C45   A    
C3    C5    A    
C24   H45   S    
Cr6   O9    S    
C60   C65   A    
Cr2   O14   S    
C13   O20   S    
Cr1   O18   S    
C22   C36   A    
C4    C64   S    
C95   H37   S    
C50   C55   A    
C82   C90   S    
C87   O8    A    
C74   C79   A    
C32   C33   A    
C57   O22   S    
C43   H29   S    
C92   H27   S    
C14   H12   S    
C96   H41   S    
C30   C32   A    
Cr1   O28   S    
C5    C6    A    
C27   C37   A    
Cr6   O11   S    
C65   C69   S    
Cr5   O11   S    
C33   C35   A    
C87   O9    A    
C3    C17   A    
C25   H46   S    
C22   C24   A    
C7    H40   S    
C90   O10   A    
C1    O4    A    
C86   O7    A    
C9    H23   S    
C60   H8    S    
C10   C11   A    
C28   O18   A    
C29   C30   A    
C79   C80   S    
C63   H11   S    
C78   C84   S    
C28   O19   A    
C62   H10   S    
C20   C21   A    
C1    O13   A    
C40   O23   A    
C68   C70   T    
C49   C50   A    
C22   C26   A    
Cr6   O2    S    
C94   H35   S    
C14   C15   A    
C33   H47   S    
Cr3   O15   S    
C90   O5    A    
Cr4   O29   S    
C12   H9    S    
Cr5   O32   S    
C34   C76   A    
C71   C81   T    
C54   C57   A    
C18   O26   S    
