data_mof_unit_50731.cif
_audit_creation_date              2012-12-10T17:02:02-0500
_audit_creation_method            fapswitch 2.2
_symmetry_space_group_name_H-M    P1
_symmetry_Int_Tables_number       1
_space_group_crystal_system       triclinic
_cell_length_a                    10.776671
_cell_length_b                    11.001967
_cell_length_c                    9.846593
_cell_angle_alpha                 110.625153
_cell_angle_beta                  98.566925
_cell_angle_gamma                 90.67518
_cell_volume                      1077.83054621

loop_
_atom_site_label
_atom_site_type_symbol
_atom_type_description
_atom_site_fract_x
_atom_site_fract_y
_atom_site_fract_z
_atom_type_partial_charge
C1    C     C_R   0.493162 0.254268 0.441532 0.839346
C2    C     C_R   0.072515 0.619876 0.544247 0.047755
C3    C     C_R   0.129332 0.500337 0.502420 -0.147764
C4    C     C_R   0.059117 0.379896 0.458802 0.151047
C5    C     C_R   0.927927 0.378806 0.455406 0.161559
C6    C     C_R   0.870873 0.498897 0.497695 -0.138347
C7    C     C_2   0.502758 0.115925 0.410530 -0.355901
C8    C     C_2   0.543858 0.072886 0.519359 -0.171303
C9    C     C_2   0.525008 0.885156 0.587410 -0.361694
C10   C     C_2   0.557799 0.934476 0.489415 0.209969
C11   C     C_2   0.511107 0.506693 0.077310 0.028116
C12   C     C_R   0.263028 0.500083 0.500886 0.820467
C13   C     C_2   0.488896 0.488467 0.915924 -0.081123
C14   C     C_R   0.513952 0.745733 0.558070 0.834424
C15   C     C_R   0.737062 0.499188 0.498978 0.805660
C16   C     C_R   0.143393 0.740456 0.586872 -0.138241
C17   C     C_R   0.085306 0.857563 0.627812 -0.138564
C18   C     C_R   0.956310 0.857091 0.627742 -0.132339
C19   C     C_R   0.884966 0.739512 0.586286 -0.156168
C20   C     C_R   0.941833 0.619242 0.542929 0.041649
Cu1   Cu    Cu3+1 0.521920 0.521810 0.644910 0.936757
Cu2   Cu    Cu3+1 0.478080 0.478190 0.355090 0.942247
H1    H     H_    0.480339 0.049386 0.297119 0.166787
H2    H     H_    0.415809 0.418433 0.840533 0.172305
H3    H     H_    0.625004 0.620259 0.934603 0.193984
H4    H     H_    0.243961 0.745505 0.588812 0.122275
H5    H     H_    0.140649 0.948942 0.659903 0.129412
H6    H     H_    0.911244 0.948080 0.659835 0.136657
H7    H     H_    0.785167 0.744012 0.588549 0.119860
H8    H     H_    0.561845 0.139122 0.633302 0.163419
H9    H     H_    0.499791 0.949631 0.690266 0.118568
N1    N     N_2   0.445130 0.445430 0.137370 -0.127432
N2    N     N_2   0.554930 0.554500 0.862630 -0.292074
O1    O     O_R   0.511700 0.332330 0.577400 -0.576886
O2    O     O_R   0.474680 0.295500 0.332650 -0.576323
O3    O     O_R   0.338160 0.518420 0.622400 -0.578460
O4    O     O_R   0.301140 0.481590 0.377650 -0.571668
O5    O     O_R   0.525320 0.704500 0.667350 -0.577430
O6    O     O_R   0.488300 0.667670 0.422600 -0.566010
O7    O     O_R   0.698860 0.518410 0.622350 -0.567475
O8    O     O_R   0.661840 0.481580 0.377600 -0.582193
C21   C     C_3   0.127457 0.254851 0.417470 -0.857081
H10   H     H_    0.066763 0.164872 0.389161 0.237839
H11   H     H_    0.173317 0.244954 0.320689 0.227307
H12   H     H_    0.200777 0.258316 0.511136 0.218617
H13   H     H_    0.587235 0.575528 0.147958 0.124374
C22   C     C_3   0.343364 0.350982 0.047484 -0.529628
H14   H     H_    0.299881 0.308238 0.117065 0.224009
H15   H     H_    0.269450 0.398644 0.996732 0.171235
H16   H     H_    0.379634 0.270312 0.961442 0.157206
C23   C     C_3   0.850508 0.250049 0.407979 -0.839183
H17   H     H_    0.748471 0.259721 0.406628 0.223790
H18   H     H_    0.862145 0.188686 0.294471 0.231951
H19   H     H_    0.881495 0.198604 0.484700 0.228576
C24   C     C_3   0.607265 0.854181 0.351075 -0.793038
H20   H     H_    0.658185 0.917526 0.308118 0.217882
H21   H     H_    0.675609 0.786456 0.374051 0.217448
H22   H     H_    0.527826 0.799324 0.264560 0.233828

loop_
_geom_bond_atom_site_label_1
_geom_bond_atom_site_label_2
_ccdc_geom_bond_type
C11   N1    D    
C9    C14   S    
C13   N2    D    
C10   C24   S    
C2    C16   A    
C14   O5    A    
C6    C20   A    
C9    C10   D    
Cu2   N1    S    
C19   C20   A    
Cu1   O1    S    
C24   H20   S    
C23   H19   S    
C8    H8    S    
C4    C21   S    
C12   O3    A    
C17   C18   A    
C6    C15   S    
C7    C8    D    
C22   H15   S    
Cu1   O3    S    
Cu1   Cu2   S    
Cu2   O2    S    
C11   C13   S    
C15   O8    A    
C23   H17   S    
Cu1   O7    S    
C21   H11   S    
C7    H1    S    
Cu2   O6    S    
C1    O1    A    
C2    C3    A    
C22   H16   S    
C24   H21   S    
C16   H4    S    
C5    C6    A    
N1    C22   S    
C15   O7    A    
Cu2   O8    S    
Cu1   N2    S    
C21   H10   S    
C9    H9    S    
C2    C20   A    
C3    C4    A    
C17   H5    S    
C4    C5    A    
C18   H6    S    
C1    O2    A    
C8    C10   S    
C18   C19   A    
C24   H22   S    
C12   O4    A    
C5    C23   S    
C11   H13   S    
C3    C12   S    
C14   O6    A    
C1    C7    S    
Cu2   O4    S    
Cu1   O5    S    
C22   H14   S    
C13   H2    S    
H3    N2    S    
C16   C17   A    
C23   H18   S    
C21   H12   S    
C19   H7    S    
