data_mof_unit_48503.cif
_audit_creation_date              2012-12-11T14:50:45-0500
_audit_creation_method            fapswitch 2.2
_symmetry_space_group_name_H-M    P1
_symmetry_Int_Tables_number       1
_space_group_crystal_system       triclinic
_cell_length_a                    10.864808
_cell_length_b                    10.977073
_cell_length_c                    18.91442
_cell_angle_alpha                 90.333097
_cell_angle_beta                  90.038514
_cell_angle_gamma                 60.338797
_cell_volume                      1960.18060375

loop_
_atom_site_label
_atom_site_type_symbol
_atom_type_description
_atom_site_fract_x
_atom_site_fract_y
_atom_site_fract_z
_atom_type_partial_charge
C1    C     C_R   0.236936 0.646745 0.609760 0.549123
C2    C     C_R   0.573297 0.146728 0.784619 -0.130604
C3    C     C_R   0.568487 0.145349 0.712196 -0.022041
C4    C     C_R   0.654615 0.620168 0.601870 0.531921
C5    C     C_R   0.666274 0.169132 0.673962 0.025543
C6    C     C_R   0.211967 0.547509 0.722025 -0.147787
C7    C     C_R   0.199187 0.550643 0.795696 -0.037609
C8    C     C_R   0.174601 0.673161 0.832739 0.015893
C9    C     C_R   0.170813 0.784227 0.795102 -0.106495
C10   C     C_R   0.167561 0.787553 0.721989 -0.013600
C11   C     C_R   0.194335 0.664797 0.684408 0.010586
C12   C     C_3   0.780960 0.513136 0.792662 -0.259076
C13   C     C_R   0.792893 0.610907 0.290952 0.235421
C14   C     C_R   0.801742 0.617924 0.218481 -0.151810
C15   C     C_R   0.679568 0.689675 0.176702 -0.026016
C16   C     C_R   0.628888 0.226541 0.602507 0.545211
C17   C     C_R   0.547321 0.769902 0.209307 0.203918
C18   C     C_R   0.538530 0.773529 0.283637 -0.064772
C19   C     C_R   0.659717 0.678032 0.323884 0.016195
C20   C     C_R   0.571426 0.129442 0.290222 -0.162156
C21   C     C_R   0.572868 0.114227 0.218249 -0.108527
C22   C     C_R   0.649337 0.157740 0.175529 0.047375
C23   C     C_3   0.695680 0.670171 0.814347 0.062300
C24   C     C_R   0.726645 0.216466 0.205358 -0.014338
C25   C     C_R   0.737077 0.218120 0.278834 0.252408
C26   C     C_R   0.650640 0.183418 0.321281 0.060526
C27   C     C_R   0.061334 0.784773 0.306192 0.228199
C28   C     C_R   0.224147 0.647052 0.400977 0.604372
C29   C     C_R   0.034241 0.800254 0.234534 -0.118527
C30   C     C_R   0.115966 0.688827 0.187903 0.014438
C31   C     C_R   0.217901 0.558332 0.212853 0.219438
C32   C     C_R   0.246587 0.543713 0.284448 -0.092082
C33   C     C_R   0.171271 0.658237 0.330562 0.035604
C34   C     C_3   0.674577 0.641138 0.678142 0.034416
C35   C     C_R   0.701572 0.101354 0.895593 0.532895
C36   C     C_R   0.720049 0.685747 0.889750 0.557659
C37   C     C_R   0.117966 0.706366 0.905282 0.554381
C38   C     C_R   0.674021 0.107772 0.103635 0.556450
C39   C     C_R   0.701683 0.695103 0.100776 0.577403
C40   C     C_R   0.643442 0.626850 0.393441 0.584198
C41   C     C_R   0.086081 0.713506 0.114137 0.607056
C42   C     C_R   0.617542 0.231180 0.394052 0.586128
C43   C     C_3   0.538667 0.719173 0.796687 0.085719
C44   C     C_3   0.529242 0.693377 0.717046 -0.196401
C45   C     C_3   0.722348 0.749738 0.690476 -0.245312
C46   C     C_3   0.747939 0.756546 0.770392 -0.200250
C47   C     C_3   0.943457 0.444100 0.687327 -0.402471
C48   C     C_3   0.902872 0.175635 0.822602 -0.386272
C49   C     C_3   0.453643 0.122732 0.679085 -0.384566
C50   C     C_3   0.214918 0.422149 0.832476 -0.371203
C51   C     C_3   0.130770 0.925150 0.686842 -0.352922
C52   C     C_3   0.401492 0.882056 0.317777 -0.301735
C53   C     C_3   0.797202 0.277925 0.160057 -0.305173
C54   C     C_3   0.788102 0.498542 0.712177 -0.103083
C55   C     C_R   0.778276 0.172451 0.710075 -0.149257
C56   C     C_R   0.788745 0.162117 0.784157 -0.034788
C57   C     C_R   0.685930 0.146645 0.821617 0.016965
Cl1   Cl    Cl    0.418051 0.898859 0.819598 -0.704647
Cl2   Cl    Cl    0.952817 0.519091 0.338359 -0.528250
Cl3   Cl    Cl    0.391695 0.859186 0.157572 -0.569130
Cl4   Cl    Cl    0.865642 0.255893 0.314478 -0.478796
Cl5   Cl    Cl    0.957204 0.922659 0.364732 -0.561535
Cl6   Cl    Cl    0.316229 0.416075 0.155416 -0.587388
Cr1   Cr    Cr6+3 0.392930 0.397900 0.502230 1.044183
Cr2   Cr    Cr6+3 0.398240 0.708600 0.501260 1.024513
Cr3   Cr    Cr6+3 0.708800 0.393470 0.496460 1.114384
Cr4   Cr    Cr6+3 0.937620 0.938540 0.007640 1.049844
Cr5   Cr    Cr6+3 0.625150 0.937450 0.994520 1.126602
Cr6   Cr    Cr6+3 0.937990 0.625080 0.001190 1.047440
H1    H     H_    0.862832 0.715671 0.779924 0.116625
H2    H     H_    0.515516 0.065609 0.196154 0.195243
H3    H     H_    0.494037 0.614439 0.710333 0.102216
H4    H     H_    0.949976 0.899318 0.215040 0.157778
H5    H     H_    0.332285 0.445176 0.303525 0.164875
H6    H     H_    0.448166 0.791940 0.692473 0.176262
H7    H     H_    0.692760 0.867530 0.787883 0.173133
H8    H     H_    0.639662 0.852645 0.671658 0.129396
H9    H     H_    0.889780 0.458313 0.814816 0.156066
H10   H     H_    0.725919 0.459065 0.814373 0.098864
H11   H     H_    0.758744 0.418448 0.698223 0.158036
H12   H     H_    0.819915 0.723304 0.659940 0.125620
H13   H     H_    0.010646 0.332451 0.702040 0.110844
H14   H     H_    0.955750 0.451442 0.629788 0.180700
H15   H     H_    0.988084 0.504109 0.713274 0.136826
H16   H     H_    0.980182 0.074360 0.845446 0.174849
H17   H     H_    0.959684 0.211398 0.787359 0.111176
H18   H     H_    0.856604 0.251672 0.866940 0.140889
H19   H     H_    0.489969 0.063124 0.628669 0.149039
H20   H     H_    0.423314 0.061308 0.713872 0.168264
H21   H     H_    0.356748 0.224093 0.669499 0.145119
H22   H     H_    0.111420 0.441802 0.853335 0.169064
H23   H     H_    0.854365 0.188487 0.680629 0.119355
H24   H     H_    0.252609 0.331535 0.795654 0.115428
H25   H     H_    0.292812 0.392150 0.876139 0.161568
H26   H     H_    0.223610 0.922337 0.661324 0.165680
H27   H     H_    0.045598 0.952101 0.647360 0.149366
H28   H     H_    0.093184 0.011865 0.725394 0.120462
H29   H     H_    0.328066 0.839916 0.322916 0.202141
H30   H     H_    0.420554 0.917646 0.369553 0.142949
H31   H     H_    0.349086 0.978991 0.285714 0.188384
H32   H     H_    0.757361 0.297082 0.104934 0.138129
H33   H     H_    0.772841 0.381743 0.181489 0.168722
H34   H     H_    0.490841 0.137443 0.811948 0.187210
H35   H     H_    0.913701 0.206999 0.159685 0.193069
H36   H     H_    0.235193 0.452977 0.693650 0.129983
H37   H     H_    0.161740 0.874130 0.822929 0.182952
H38   H     H_    0.502868 0.656169 0.827464 0.135544
H39   H     H_    0.906314 0.565261 0.194728 0.192683
H40   H     H_    0.506632 0.100474 0.321644 0.150182
O1    O     O_R   0.507430 0.255570 0.581420 -0.526103
O2    O     O_R   0.837200 0.593290 0.915250 -0.551508
O3    O     O_R   0.065330 0.635370 0.931590 -0.503213
O4    O     O_R   0.280190 0.527390 0.578910 -0.507598
O5    O     O_R   0.068300 0.828790 0.091860 -0.483050
O6    O     O_R   0.798730 0.057480 0.079370 -0.529384
O7    O     O_R   0.584680 0.080480 0.076790 -0.474248
O8    O     O_R   0.626790 0.809640 0.067050 -0.441966
O9    O     O_R   0.816010 0.596460 0.076500 -0.533729
O10   O     O_R   0.045680 0.638310 0.081070 -0.472672
O11   O     O_3   0.833590 0.833690 0.001120 -0.295074
O12   O     O_R   0.524460 0.695920 0.424060 -0.536365
O13   O     O_R   0.260310 0.739740 0.584580 -0.521910
O14   O     O_R   0.532250 0.695150 0.573830 -0.519790
O15   O     O_R   0.744930 0.503430 0.576380 -0.525052
O16   O     O_R   0.699250 0.276390 0.571950 -0.509669
O17   O     O_R   0.499020 0.256400 0.419850 -0.537280
O18   O     O_R   0.272400 0.528160 0.429140 -0.491984
O19   O     O_R   0.251910 0.740570 0.423020 -0.484422
O20   O     O_R   0.736530 0.504260 0.414810 -0.402203
O21   O     O_R   0.691460 0.277160 0.422180 -0.425572
O22   O     O_3   0.499990 0.499990 0.499980 -0.282437
O23   O     O_R   0.089490 0.825610 0.930610 -0.510378
O24   O     O_R   0.818370 0.054540 0.929880 -0.511196
O25   O     O_R   0.605870 0.077310 0.915530 -0.510803
O26   O     O_R   0.646440 0.806700 0.917570 -0.437177

loop_
_geom_bond_atom_site_label_1
_geom_bond_atom_site_label_2
_ccdc_geom_bond_type
C51   H28   S    
C55   C56   A    
C27   C29   A    
Cr4   O23   S    
C1    C11   S    
C41   O5    A    
C40   O20   A    
C35   O24   A    
C46   H7    S    
C3    C49   S    
C2    C57   A    
C16   O1    A    
C7    C8    A    
C45   C46   S    
C27   C33   A    
C40   O12   A    
C12   C23   S    
C29   C30   A    
C21   H2    S    
Cr4   O24   S    
Cr4   O5    S    
C32   H5    S    
C30   C31   A    
Cr6   O3    S    
C29   H4    S    
C53   H35   S    
C22   C38   S    
C12   H10   S    
Cr6   O9    S    
C23   C43   S    
C56   C57   A    
C4    O15   A    
C47   H15   S    
C18   C19   A    
C47   H13   S    
Cr4   O6    S    
C1    O13   A    
C37   O3    A    
C43   Cl1   S    
C53   H32   S    
C8    C9    A    
C5    C16   S    
C12   H9    S    
C30   C41   S    
C44   H3    S    
C47   H14   S    
Cr4   O11   S    
C49   H21   S    
C28   O18   A    
C51   H27   S    
Cr3   O20   S    
C14   H39   S    
C23   C46   S    
C13   C14   A    
C49   H19   S    
C1    O4    A    
C10   C51   S    
C35   O25   A    
Cr2   O22   S    
C54   H11   S    
C4    C34   S    
C13   C19   A    
C18   C52   S    
Cr2   O19   S    
C31   Cl6   S    
C34   C44   S    
C24   C25   A    
C10   C11   A    
C6    C11   A    
C50   H25   S    
C48   H17   S    
C25   Cl4   S    
C9    H37   S    
C39   O8    A    
C52   H31   S    
C4    O14   A    
C44   H6    S    
C43   C44   S    
C55   H23   S    
C27   Cl5   S    
Cr5   O8    S    
C38   O7    A    
Cr1   O1    S    
C31   C32   A    
Cr1   O22   S    
C53   H33   S    
Cr1   O18   S    
C36   O2    A    
C17   C18   A    
C48   H18   S    
C42   O21   A    
C34   C45   S    
C43   H38   S    
Cr2   O13   S    
C41   O10   A    
C15   C39   S    
Cr5   O7    S    
C47   C54   S    
C28   C33   S    
C34   C54   S    
Cr2   O12   S    
C22   C24   A    
C8    C37   S    
C36   O26   A    
C26   C42   S    
Cr3   O22   S    
C16   O16   A    
C48   C56   S    
Cr1   O4    S    
C52   H30   S    
C48   H16   S    
C5    C55   A    
Cr5   O26   S    
C45   H12   S    
C7    C50   S    
C49   H20   S    
C3    C5    A    
Cr3   O16   S    
C50   H24   S    
C15   C17   A    
C6    C7    A    
C13   Cl2   S    
C39   O9    A    
Cr6   O11   S    
Cr1   O17   S    
C37   O23   A    
C35   C57   S    
C32   C33   A    
Cr5   O25   S    
C2    C3    A    
C24   C53   S    
C25   C26   A    
C38   O6    A    
Cr6   O2    S    
C20   C26   A    
C2    H34   S    
C52   H29   S    
C6    H36   S    
Cr6   O10   S    
C9    C10   A    
Cr3   O15   S    
Cr2   O14   S    
C12   C54   S    
C46   H1    S    
C19   C40   S    
C42   O17   A    
C17   Cl3   S    
C20   H40   S    
C50   H22   S    
C20   C21   A    
C23   C36   S    
C14   C15   A    
C45   H8    S    
C21   C22   A    
Cr5   O11   S    
C28   O19   A    
C51   H26   S    
Cr3   O21   S    
