data_mof_unit_67065.cif
_audit_creation_date              2012-12-11T17:41:21-0500
_audit_creation_method            fapswitch 2.2
_symmetry_space_group_name_H-M    P1
_symmetry_Int_Tables_number       1
_space_group_crystal_system       triclinic
_cell_length_a                    8.196064
_cell_length_b                    12.808406
_cell_length_c                    14.286734
_cell_angle_alpha                 93.31746
_cell_angle_beta                  90.736445
_cell_angle_gamma                 98.497652
_cell_volume                      1480.50147183

loop_
_atom_site_label
_atom_site_type_symbol
_atom_type_description
_atom_site_fract_x
_atom_site_fract_y
_atom_site_fract_z
_atom_type_partial_charge
Ba1   Ba    Ba6+2 0.855630 0.555280 0.454520 1.665286
Ba2   Ba    Ba6+2 0.334200 0.444810 0.545490 1.673978
C1    C     C_3   0.618967 0.949037 0.187206 -0.369260
C2    C     C_R   0.183244 0.497849 0.196301 0.036203
C3    C     C_R   0.338844 0.548596 0.226566 -0.291442
C4    C     C_3   0.146907 0.790085 0.194831 0.362696
C5    C     C_R   0.452249 0.593858 0.163437 0.019034
C6    C     C_R   0.408852 0.595063 0.068985 -0.145113
C7    C     C_R   0.251084 0.549252 0.035809 -0.000863
C8    C     C_R   0.137740 0.497110 0.098708 -0.030555
C9    C     C_R   0.056696 0.500242 0.902362 -0.023479
C10   C     C_R   0.944423 0.446480 0.965090 0.010559
C11   C     C_R   0.014403 0.494822 0.804020 0.045281
C12   C     C_3   0.655076 0.853359 0.237759 0.361216
C13   C     C_R   0.870925 0.428311 0.772534 -0.198455
C14   C     C_R   0.751358 0.389002 0.835664 0.003195
C15   C     C_R   0.789708 0.395444 0.931299 -0.165761
C16   C     C_3   0.131376 0.819451 0.093817 -0.362672
C17   C     C_R   0.207809 0.553704 0.940138 -0.039873
C18   C     C_R   0.765574 0.175079 0.532003 -0.285714
C19   C     C_R   0.432592 0.813235 0.458041 -0.268931
C20   C     C_R   0.408818 0.992720 0.423831 -0.110526
C21   C     C_R   0.343846 0.885983 0.419352 -0.012333
C22   C     C_R   0.579558 0.846291 0.509531 0.037229
C23   C     C_3   0.502025 0.317020 0.258377 0.293816
C24   C     C_R   0.644692 0.956526 0.517147 -0.044997
C25   C     C_R   0.557728 0.030190 0.472918 -0.046687
C26   C     C_R   0.620223 0.139966 0.481108 0.028353
C27   C     C_R   0.856485 0.104064 0.570188 -0.031836
C28   C     C_3   0.206913 0.758998 0.651562 0.289076
C29   C     C_R   0.794783 0.995886 0.565604 -0.096033
C30   C     C_3   0.268130 0.876368 0.670277 -0.422036
C31   C     C_3   0.957140 0.236311 0.338839 0.316158
C32   C     C_3   0.988155 0.121066 0.326688 0.288577
C33   C     C_3   0.599923 0.717474 0.750857 0.268058
C34   C     C_3   0.534833 0.304590 0.154168 -0.396093
C35   C     C_3   0.584397 0.780392 0.843639 -0.453480
C36   C     C_3   0.144628 0.102011 0.193218 0.351734
C37   C     C_3   0.130799 0.101861 0.086668 -0.189643
C38   C     C_3   0.074978 0.203213 0.055680 -0.356927
C39   C     C_2   0.662938 0.617748 0.767992 0.579181
C40   C     C_3   0.972022 0.102459 0.786350 0.316511
C41   C     C_3   0.990421 0.020887 0.857368 -0.384422
C42   C     C_3   0.527468 0.144521 0.771291 0.403512
C43   C     C_3   0.539696 0.051745 0.830521 -0.405073
C44   C     C_R   0.984967 0.446020 0.061347 -0.043569
H1    H     H_    0.750431 0.879496 0.293502 0.099523
H2    H     H_    0.588121 0.010971 0.238811 0.092467
H3    H     H_    0.705998 0.823659 0.868761 0.133776
H4    H     H_    0.533529 0.727853 0.898119 0.070114
H5    H     H_    0.495474 0.836160 0.835218 0.126476
H6    H     H_    0.539308 0.819392 0.271226 -0.065699
H7    H     H_    0.512950 0.925562 0.137522 0.087592
H8    H     H_    0.377556 0.339261 0.268624 -0.017469
H9    H     H_    0.595687 0.382114 0.287832 0.087948
H10   H     H_    0.443591 0.241595 0.119437 0.109044
H11   H     H_    0.527210 0.379991 0.121008 0.069670
H12   H     H_    0.401605 0.888795 0.688232 0.075736
H13   H     H_    0.659787 0.282794 0.143934 0.122635
H14   H     H_    0.727663 0.981831 0.147004 0.175059
H15   H     H_    0.160419 0.754346 0.045308 0.072472
H16   H     H_    0.958902 0.179583 0.822967 0.014913
H17   H     H_    0.857881 0.072128 0.745747 -0.032381
H18   H     H_    0.114433 0.037568 0.891700 0.134325
H19   H     H_    0.893937 0.022344 0.911007 0.071313
H20   H     H_    0.975039 0.940558 0.821814 0.119097
H21   H     H_    0.654217 0.174814 0.748612 -0.139942
H22   H     H_    0.449941 0.117108 0.707708 0.081551
H23   H     H_    0.249082 0.919291 0.606821 0.109824
H24   H     H_    0.612250 0.078850 0.895889 0.108811
H25   H     H_    0.603274 0.994054 0.790045 0.078595
H26   H     H_    0.067665 0.713061 0.202104 0.094310
H27   H     H_    0.414561 0.013845 0.849073 0.123707
H28   H     H_    0.374851 0.549087 0.299748 0.069513
H29   H     H_    0.499440 0.630806 0.021757 0.071630
H30   H     H_    0.698015 0.361618 0.979133 0.068880
H31   H     H_    0.843173 0.417307 0.698060 0.100039
H32   H     H_    0.897108 0.403327 0.106101 0.094646
H33   H     H_    0.295241 0.596744 0.895288 0.088602
H34   H     H_    0.199975 0.909457 0.728530 0.153226
H35   H     H_    0.339720 0.045796 0.390335 0.082788
H36   H     H_    0.866797 0.944368 0.599409 0.111508
H37   H     H_    0.813420 0.258659 0.537405 0.060003
H38   H     H_    0.277521 0.781707 0.209195 -0.075331
H39   H     H_    0.382014 0.730144 0.452130 0.063967
H40   H     H_    0.003715 0.833649 0.078231 0.155008
H41   H     H_    0.219370 0.891578 0.081654 0.084172
H42   H     H_    0.296622 0.722801 0.607863 -0.027457
H43   H     H_    0.090740 0.750212 0.611896 0.111681
H44   H     H_    0.215049 0.038724 0.212111 0.053011
H45   H     H_    0.823592 0.237602 0.340914 -0.027490
H46   H     H_    0.218354 0.177324 0.220196 0.054733
H47   H     H_    0.252726 0.094318 0.056014 0.058359
H48   H     H_    0.041145 0.032691 0.060075 0.122325
H49   H     H_    0.158678 0.273250 0.086147 0.115741
H50   H     H_    0.946701 0.207352 0.078042 0.152773
H51   H     H_    0.079242 0.205557 0.978426 0.119254
H52   H     H_    0.711591 0.603204 0.836275 -0.148665
H53   H     H_    0.015872 0.270580 0.406410 -0.006492
H54   H     H_    0.889034 0.070421 0.362150 0.003458
H55   H     H_    0.104692 0.111512 0.363403 0.008455
H56   H     H_    0.477429 0.700067 0.718054 0.060982
O1    O     O_2   0.887370 0.460630 0.272300 -0.476726
O2    O     O_2   0.193089 0.115080 0.557724 -0.485866
O3    O     O_3   0.112620 0.114706 0.730681 -0.575517
O4    O     O_3   0.129410 0.451380 0.388510 -0.488296
O5    O     O_3   0.575400 0.626570 0.547370 -0.444364
O6    O     O_2   0.344320 0.238700 0.455090 -0.459944
O7    O     O_3   0.511537 0.220646 0.299000 -0.664014
O8    O     O_2   0.419951 0.417817 0.835598 -0.475084
O9    O     O_3   0.453483 0.219531 0.824662 -0.579838
O10   O     O_3   0.670210 0.653170 0.329170 -0.485587
O11   O     O_2   0.791452 0.591018 0.166384 -0.494052
O12   O     O_3   0.710249 0.776122 0.693462 -0.653130
O13   O     O_3   0.016790 0.290940 0.261358 -0.642244
O14   O     O_3   0.714934 0.781810 0.173061 -0.595802
O15   O     O_2   0.845380 0.761330 0.544970 -0.464048
O16   O     O_3   0.088930 0.704860 0.376040 -0.490412
O17   O     O_2   0.002382 0.887664 0.429686 -0.493629
O18   O     O_3   0.984512 0.085473 0.230949 -0.630792
O19   O     O_2   0.663586 0.552780 0.702702 -0.574129
O20   O     O_3   0.095307 0.868751 0.255470 -0.588018
O21   O     O_2   0.302330 0.539400 0.727760 -0.464728
O22   O     O_3   0.060300 0.548700 0.611500 -0.484078
O23   O     O_3   0.519500 0.346920 0.670840 -0.424286
O24   O     O_3   0.181590 0.710072 0.736620 -0.652270
O25   O     O_3   0.614310 0.373510 0.452640 -0.474585
O26   O     O_3   0.100780 0.295230 0.623970 -0.468251
P1    P     P_3+3 0.054400 0.427280 0.286870 0.964649
P2    P     P_3+3 0.668300 0.742890 0.573060 1.002844
P3    P     P_3+3 0.134152 0.840374 0.371201 0.944932
P4    P     P_3+3 0.135310 0.572810 0.713130 0.986412
P5    P     P_3+3 0.062426 0.156420 0.620828 0.961896
P6    P     P_3+3 0.657830 0.652661 0.207240 0.955445
P7    P     P_3+3 0.526190 0.241749 0.421290 0.926731
P8    P     P_3+3 0.537337 0.345040 0.792683 1.030110

loop_
_geom_bond_atom_site_label_1
_geom_bond_atom_site_label_2
_ccdc_geom_bond_type
O4    P1    S    
C27   P5    S    
C28   O24   S    
O21   P4    D    
O7    P7    S    
C26   P7    S    
C1    H7    S    
Ba2   O5    S    
O8    P8    D    
C30   H12   S    
C34   H13   S    
C5    C6    A    
Ba2   O21   S    
C4    H26   S    
C9    C17   A    
C24   C25   A    
C16   H40   S    
C29   H36   S    
O3    P5    S    
C33   C35   S    
C22   C24   A    
Ba1   P1    S    
C31   H45   S    
Ba1   O10   S    
C36   C37   S    
C35   H5    S    
O9    P8    S    
C43   H25   S    
C13   C14   A    
C36   H46   S    
C1    H2    S    
O22   P4    S    
C33   O12   S    
C43   H27   S    
Ba1   Ba2   S    
C39   O19   D    
C3    H28   S    
C37   H47   S    
O16   P3    S    
C7    C17   A    
C12   H6    S    
C14   C15   A    
C10   C15   A    
C8    C44   A    
C15   H30   S    
C32   H54   S    
C7    C8    A    
C40   H16   S    
C23   O7    S    
Ba1   O4    S    
C36   O18   S    
C1    H14   S    
C33   H56   S    
C24   C29   A    
O12   P2    S    
C38   H50   S    
C28   H43   S    
C41   H18   S    
C18   C27   A    
C32   O18   S    
C4    C16   S    
C19   H39   S    
C31   O13   S    
C32   H55   S    
C4    H38   S    
O2    P5    D    
C20   H35   S    
C23   H9    S    
C23   H8    S    
O6    P7    D    
C10   C44   A    
Ba1   P2    S    
C38   H51   S    
C44   H32   S    
C6    C7    A    
C18   C26   A    
O17   P3    D    
Ba2   O4    S    
C6    H29   S    
C31   H53   S    
C42   O9    S    
C37   H48   S    
C34   H10   S    
C30   H34   S    
C35   H3    S    
Ba2   P4    S    
O24   P4    S    
C41   H19   S    
C31   C32   S    
C2    P1    S    
C21   P3    S    
Ba1   O15   S    
C17   H33   S    
O15   P2    D    
O1    P1    D    
C30   H23   S    
C1    C12   S    
C5    P6    S    
O23   P8    S    
Ba1   O5    S    
C34   H11   S    
O11   P6    D    
C11   C13   A    
C19   C22   A    
C42   H22   S    
C40   C41   S    
C4    O20   S    
C38   H49   S    
C28   H42   S    
C14   P8    S    
O20   P3    S    
C37   C38   S    
C42   C43   S    
C3    C5    A    
O13   P1    S    
Ba1   O1    S    
O5    P2    S    
C43   H24   S    
C39   H52   S    
Ba1   O25   S    
O10   P6    S    
C2    C3    A    
C9    C10   A    
C16   H15   S    
C12   H1    S    
Ba2   O22   S    
C36   H44   S    
C16   H41   S    
C20   C25   A    
C19   C21   A    
Ba1   O22   S    
C27   C29   A    
O26   P5    S    
Ba2   O25   S    
C28   C30   S    
C35   H4    S    
C9    C11   A    
C13   H31   S    
C41   H20   S    
C12   O14   S    
Ba2   O6    S    
O25   P7    S    
C11   P4    S    
Ba1   O16   S    
C33   C39   S    
C40   O3    S    
C23   C34   S    
Ba2   O23   S    
C22   P2    S    
O14   P6    S    
C18   H37   S    
C25   C26   A    
C20   C21   A    
C42   H21   S    
C2    C8    A    
C40   H17   S    
Ba2   O26   S    
