data_mof_unit_47921.cif
_audit_creation_date              2013-03-05T16:30:51-0500
_audit_creation_method            fapswitch 2.2
_symmetry_space_group_name_H-M    P1
_symmetry_Int_Tables_number       1
_space_group_crystal_system       triclinic
_cell_length_a                    18.326753
_cell_length_b                    18.432829
_cell_length_c                    18.421889
_cell_angle_alpha                 120.061065
_cell_angle_beta                  120.279981
_cell_angle_gamma                 89.909475
_cell_volume                      4381.16613876

loop_
_atom_site_label
_atom_site_type_symbol
_atom_site_description
_atom_site_fract_x
_atom_site_fract_y
_atom_site_fract_z
_atom_type_partial_charge
Zn1   Zn    Zn3+2 0.869870 0.956630 0.413250 1.035683
Zn2   Zn    Zn3+2 0.043380 0.130130 0.586750 1.023475
Zn3   Zn    Zn3+2 0.043390 0.956630 0.413260 0.998502
Zn4   Zn    Zn3+2 0.043360 0.956610 0.586740 1.055939
O1    O     O_3   1.000000 0.000000 0.500000 -0.523322
O2    O     O_R   0.115780 0.055050 0.731580 -0.622433
O3    O     O_R   0.823490 0.884220 0.268410 -0.589223
O4    O     O_R   0.944920 0.176520 0.560720 -0.626926
O5    O     O_R   0.115810 0.884200 0.439290 -0.626720
O6    O     O_R   0.115820 0.176530 0.560730 -0.606400
O7    O     O_R   0.944890 0.884180 0.560700 -0.603560
O8    O     O_R   0.115830 0.055100 0.439300 -0.651075
O9    O     O_R   0.823460 0.884190 0.439270 -0.637686
O10   O     O_R   0.823480 0.055090 0.439280 -0.642519
O11   O     O_R   0.115790 0.884180 0.560710 -0.602436
O12   O     O_R   0.115790 0.176500 0.731590 -0.614790
O13   O     O_R   0.944940 0.884220 0.268420 -0.658633
C1    C     C_R   0.138420 0.140059 0.779928 0.830948
C2    C     C_R   0.859683 0.859567 0.219889 0.872833
C3    C     C_R   0.859578 0.139552 0.500655 0.806254
C4    C     C_R   0.138289 0.858729 0.498388 0.887318
C5    C     C_R   0.139628 0.140073 0.499606 0.810700
C6    C     C_R   0.859717 0.864503 0.504314 0.846594
C7    C     C_R   0.634468 0.998975 0.467944 -0.137624
H1    H     H_    0.644162 0.066219 0.524498 0.156631
C8    C     C_R   0.683408 0.950936 0.501449 0.104769
C9    C     C_R   0.670265 0.862166 0.428539 0.091634
C10   C     C_R   0.609392 0.824305 0.321888 0.141482
C11   C     C_R   0.559520 0.873178 0.290658 -0.041220
H2    H     H_    0.510238 0.843249 0.209507 0.215650
C12   C     C_R   0.570851 0.959701 0.362624 0.068978
C13   C     C_R   0.657801 0.750655 0.463137 0.254450
C14   C     C_R   0.697746 0.711856 0.516799 -0.179382
C15   C     C_R   0.792487 0.743503 0.587483 -0.002925
C16   C     C_R   0.845373 0.798544 0.587688 0.059861
C17   C     C_R   0.804135 0.820856 0.516846 -0.102876
C18   C     C_R   0.711191 0.807101 0.465323 -0.177218
C19   C     C_R   0.835411 0.782403 0.756390 -0.203559
H3    H     H_    0.792429 0.822852 0.754998 0.149679
C20   C     C_R   0.891112 0.786609 0.845878 -0.196004
H4    H     H_    0.889368 0.829375 0.911618 0.140470
C21   C     C_R   0.950546 0.738274 0.851498 0.156889
C22   C     C_R   0.953106 0.685420 0.766157 -0.112310
H5    H     H_    0.999914 0.649188 0.771331 0.229403
C23   C     C_R   0.897028 0.680206 0.675240 0.272020
C24   C     C_R   0.838538 0.730508 0.671180 0.034591
C25   C     C_R   0.709910 0.775540 0.051086 -0.015363
C26   C     C_R   0.803624 0.805850 0.108013 -0.026487
C27   C     C_R   0.843101 0.787109 0.054665 -0.203925
H6    H     H_    0.915189 0.811284 0.095646 0.172448
C28   C     C_R   0.789891 0.732999 0.947086 -0.200303
H7    H     H_    0.822089 0.714956 0.907961 0.197787
C29   C     C_R   0.696385 0.698845 0.891247 -0.026014
C30   C     C_R   0.657747 0.724149 0.944874 -0.006454
C31   C     C_3   0.586423 0.670124 0.932648 -0.219531
C32   C     C_3   0.643711 0.726519 0.051320 0.490452
H8    H     H_    0.521214 0.680365 0.895248 0.213515
C33   C     C_R   0.239955 0.791287 0.573684 -0.021746
C34   C     C_R   0.188354 0.797779 0.491975 -0.096070
C35   C     C_R   0.186652 0.742505 0.402622 0.098015
C36   C     C_R   0.241091 0.687899 0.401820 0.035780
C37   C     C_R   0.297105 0.688018 0.490807 -0.069668
C38   C     C_R   0.290981 0.738475 0.572664 -0.008613
C39   C     C_3   0.329825 0.766687 0.679759 -0.501757
C40   C     C_3   0.271303 0.827158 0.681484 0.525162
H9    H     H_    0.309424 0.711035 0.681363 0.235732
H10   H     H_    0.403205 0.803259 0.732209 0.212592
C41   C     C_R   0.230525 0.161258 0.947036 0.009678
C42   C     C_R   0.185392 0.195820 0.891405 -0.084617
C43   C     C_R   0.182586 0.282708 0.944769 0.038003
C44   C     C_R   0.237338 0.337396 0.054085 0.055362
C45   C     C_R   0.293882 0.304236 0.108212 -0.128713
C46   C     C_R   0.283225 0.214130 0.053086 0.032864
C47   C     C_3   0.351836 0.168891 0.058790 0.129494
C48   C     C_3   0.293171 0.110267 0.941386 -0.386920
H11   H     H_    0.418280 0.213202 0.094518 0.117279
H12   H     H_    0.324703 0.121752 0.908265 0.208357
H13   H     H_    0.262188 0.039197 0.905670 0.285367
C49   C     C_R   0.218955 0.288710 0.560803 0.077670
C50   C     C_R   0.189465 0.195970 0.493709 -0.108394
C51   C     C_R   0.205571 0.157921 0.417486 -0.193446
H14   H     H_    0.179739 0.086592 0.360494 0.182231
C52   C     C_R   0.259461 0.211613 0.417525 -0.197671
H15   H     H_    0.273679 0.180305 0.360494 0.193615
C53   C     C_R   0.298043 0.304020 0.493887 -0.087256
C54   C     C_R   0.272615 0.341698 0.561064 0.084562
C55   C     C_3   0.329378 0.406270 0.676045 -0.217191
C56   C     C_3   0.269830 0.347776 0.676045 0.089095
H16   H     H_    0.400036 0.407443 0.713088 0.162237
H17   H     H_    0.305287 0.314351 0.712983 0.100628
C57   C     C_R   0.835875 0.281111 0.590301 -0.048024
C58   C     C_R   0.802101 0.193278 0.505418 -0.010976
C59   C     C_R   0.710270 0.157036 0.424791 -0.204498
H18   H     H_    0.680577 0.087891 0.359683 0.194823
C60   C     C_R   0.657273 0.211617 0.424159 -0.201408
H19   H     H_    0.587375 0.182523 0.359517 0.215452
C61   C     C_R   0.695826 0.303592 0.502837 -0.034495
C62   C     C_R   0.785117 0.336151 0.587394 0.009999
C63   C     C_3   0.866832 0.414494 0.647557 0.489636
C64   C     C_3   0.922195 0.352961 0.654122 -0.451680
H20   H     H_    0.954471 0.340289 0.613462 0.260100
H21   H     H_    0.966741 0.368027 0.732444 0.216525
Zn5   Zn    Zn3+2 0.630090 0.543330 0.586660 1.050545
Zn6   Zn    Zn3+2 0.456570 0.543320 0.586650 0.990213
Zn7   Zn    Zn3+2 0.456580 0.369830 0.413160 1.016923
Zn8   Zn    Zn3+2 0.456590 0.543350 0.413170 1.036104
O14   O     O_3   0.499960 0.499960 0.499910 -0.522093
O15   O     O_R   0.384170 0.615770 0.439200 -0.642793
O16   O     O_R   0.676480 0.444870 0.560630 -0.582974
O17   O     O_R   0.555020 0.615730 0.731490 -0.626932
O18   O     O_R   0.384160 0.323450 0.268320 -0.622490
O19   O     O_R   0.384130 0.444860 0.560610 -0.617417
O20   O     O_R   0.555060 0.615780 0.439210 -0.579184
O21   O     O_R   0.384140 0.323430 0.439180 -0.643113
O22   O     O_R   0.676490 0.615760 0.560640 -0.629072
O23   O     O_R   0.676470 0.615740 0.731500 -0.631464
O24   O     O_R   0.384180 0.444900 0.268330 -0.609759
O25   O     O_R   0.384150 0.615750 0.560620 -0.634636
O26   O     O_R   0.555030 0.323430 0.439190 -0.642973
C65   C     C_R   0.358333 0.637978 0.497783 0.814649
C66   C     C_R   0.640347 0.360076 0.499928 0.858261
C67   C     C_R   0.640236 0.639706 0.779821 0.828523
C68   C     C_R   0.358480 0.360091 0.219925 0.824528
C69   C     C_R   0.359637 0.359902 0.499615 0.807573
C70   C     C_R   0.640609 0.644090 0.504239 0.865470
N1    N     N_3   0.514855 0.005454 0.327366 -0.412088
H22   H     H_    0.532327 0.069727 0.389783 0.191932
H23   H     H_    0.527093 0.012218 0.281089 0.222031
N2    N     N_3   0.009152 0.742520 0.943364 -0.370939
H24   H     H_    0.074921 0.773315 0.973660 0.207287
H25   H     H_    0.998099 0.783116 0.999053 0.169182
N3    N     N_R   0.903661 0.628171 0.590367 0.231234
O27   O     O_R   0.981065 0.623458 0.607586 -0.281415
O28   O     O_R   0.833094 0.586891 0.495640 -0.321029
N4    N     N_3   0.578048 0.575668 0.880886 -0.423673
H26   H     H_    0.535861 0.544257 0.886699 0.236855
H27   H     H_    0.640470 0.567941 0.916352 0.234010
N5    N     N_R   0.598607 0.782049 0.091866 0.197203
O29   O     O_R   0.638019 0.867613 0.160778 -0.387965
O30   O     O_R   0.517256 0.745767 0.057192 -0.393639
N6    N     N_R   0.676376 0.675392 0.094997 0.194033
O31   O     O_R   0.619879 0.621034 0.083552 -0.367880
O32   O     O_R   0.760085 0.680376 0.141496 -0.415263
N7    N     N_3   0.128822 0.740452 0.312094 -0.404432
H28   H     H_    0.168242 0.758446 0.294130 0.217240
H29   H     H_    0.084923 0.675261 0.250928 0.213943
N8    N     N_3   0.235701 0.631994 0.308977 -0.453537
H30   H     H_    0.222573 0.566402 0.286759 0.201552
H31   H     H_    0.296284 0.654441 0.322180 0.259528
N9    N     N_R   0.199375 0.802036 0.687249 0.214832
O33   O     O_R   0.185298 0.862119 0.751679 -0.339209
O34   O     O_R   0.145910 0.719958 0.624375 -0.341930
N10   N     N_R   0.324674 0.922173 0.757261 0.200293
O35   O     O_R   0.319230 0.974995 0.728727 -0.427217
O36   O     O_R   0.377265 0.954726 0.854798 -0.353356
N11   N     N_3   0.125739 0.315369 0.888336 -0.411900
H32   H     H_    0.080806 0.332501 0.907888 0.181604
H33   H     H_    0.165396 0.372156 0.909048 0.228751
N12   N     N_3   0.236625 0.426145 0.109774 -0.419499
H34   H     H_    0.255745 0.462450 0.089538 0.219883
H35   H     H_    0.171516 0.423083 0.089039 0.179000
N13   N     N_R   0.357217 0.119726 0.102758 0.267784
O37   O     O_R   0.435268 0.126845 0.172391 -0.378046
O38   O     O_R   0.284957 0.069710 0.074206 -0.351565
N14   N     N_3   0.743596 0.992683 0.610251 -0.451996
H36   H     H_    0.724604 0.953712 0.627940 0.213366
H37   H     H_    0.808293 0.995511 0.629552 0.166724
N15   N     N_3   0.322522 0.495121 0.708477 -0.374706
H38   H     H_    0.255364 0.491450 0.669645 0.257650
H39   H     H_    0.350923 0.532899 0.787375 0.247076
N16   N     N_R   0.215919 0.390634 0.711197 0.240205
O39   O     O_R   0.130308 0.370545 0.646200 -0.340328
O40   O     O_R   0.252766 0.444717 0.809554 -0.363008
N17   N     N_R   0.870227 0.445883 0.589881 0.201002
O41   O     O_R   0.797742 0.430871 0.507497 -0.354763
O42   O     O_R   0.947786 0.481832 0.615703 -0.306480
N18   N     N_3   0.596779 0.737016 0.243518 -0.334449
H40   H     H_    0.639131 0.707631 0.274837 0.230570
H41   H     H_    0.530774 0.696722 0.200808 0.251150
N19   N     N_R   0.889847 0.487352 0.748364 0.193964
O43   O     O_R   0.972514 0.540034 0.822338 -0.370410
O44   O     O_R   0.828172 0.501570 0.764475 -0.387405
N20   N     N_R   0.564556 0.741398 0.416091 0.218271
O45   O     O_R   0.538338 0.790127 0.472747 -0.396755
O46   O     O_R   0.505408 0.680897 0.318092 -0.388843
N21   N     N_3   0.940802 0.838503 0.665793 -0.387261
H42   H     H_    0.953941 0.873434 0.738958 0.187996
H43   H     H_    0.970897 0.789534 0.656190 0.257805

loop_
_geom_bond_atom_site_label_1
_geom_bond_atom_site_label_2
_geom_bond_distance
_ccdc_geom_bond_type
C19   C20   1.393147 A    
C55   C56   1.535312 S    
C8    N14   1.433227 S    
N1    H22   1.045655 S    
C46   C47   1.496241 S    
O15   C65   1.276171 A    
C13   N20   1.435163 S    
C60   H19   1.081975 S    
N16   O39   1.302153 A    
O16   C66   1.279612 A    
C61   C62   1.400140 A    
N4    H26   1.044752 S    
N14   H36   1.045471 S    
C53   C54   1.396593 A    
O6    C5    1.283099 A    
C41   C48   1.493811 S    
N2    H25   1.045690 S    
Zn7   O14   1.955494 S    
C10   C11   1.401528 A    
C8    C9    1.418676 A    
C59   H18   1.082418 S    
C47   H11   1.113305 S    
C52   H15   1.083010 S    
C43   N11   1.435770 S    
C17   C18   1.412976 A    
N8    H31   1.044685 S    
C7    C8    1.398672 A    
O19   C69   1.283420 A    
C29   C67   1.446494 S    
N6    O32   1.300802 A    
C19   H3    1.083520 S    
C50   C51   1.407618 A    
C31   C32   1.540858 S    
O20   C70   1.283640 A    
Zn8   O14   1.955075 S    
C6    C17   1.471039 S    
O8    C5    1.283725 A    
O9    C6    1.280981 A    
C53   C69   1.456394 S    
C15   C16   1.401558 A    
O7    C6    1.279183 A    
C40   N9    1.468240 S    
C48   H12   1.111948 S    
C55   N15   1.466220 S    
N17   O41   1.300712 A    
C64   H20   1.112027 S    
C40   N10   1.466926 S    
Zn3   O8    1.944272 S    
N8    H30   1.045485 S    
N15   H38   1.046451 S    
C25   C26   1.400474 A    
C41   C42   1.392087 A    
N18   H41   1.044760 S    
C61   C66   1.455432 S    
N12   H35   1.044943 S    
C43   C44   1.417778 A    
C15   C24   1.484604 S    
C57   C64   1.486581 S    
N10   O36   1.301064 A    
Zn2   O12   1.938818 S    
C10   N18   1.436666 S    
N16   O40   1.300555 A    
C37   C65   1.447924 S    
O24   C68   1.281809 A    
O21   C69   1.283148 A    
C1    C42   1.456080 S    
N15   H39   1.045275 S    
Zn7   O18   1.938774 S    
C34   C35   1.420086 A    
N14   H37   1.044733 S    
C56   N16   1.466237 S    
C42   C43   1.416872 A    
C14   C70   1.476680 S    
C49   C56   1.501054 S    
C51   C52   1.398771 A    
N19   O44   1.301457 A    
C51   H14   1.082989 S    
Zn6   O25   1.941107 S    
O26   C66   1.278625 A    
O2    C1    1.285282 A    
C47   C48   1.522687 S    
Zn8   O20   1.939654 S    
O18   C68   1.285138 A    
C28   H7    1.080003 S    
C39   H10   1.111982 S    
O10   C3    1.274874 A    
Zn7   O21   1.944177 S    
C7    H1    1.083347 S    
N7    H29   1.045575 S    
C57   C58   1.392933 A    
C47   N13   1.463433 S    
C2    C26   1.451547 S    
N3    O27   1.301517 A    
C27   C28   1.395415 A    
C41   C46   1.375488 A    
C29   C30   1.392023 A    
N3    O28   1.301412 A    
C49   C50   1.398033 A    
C35   C36   1.416150 A    
C28   C29   1.402882 A    
C16   C17   1.409107 A    
C39   H9    1.111621 S    
O17   C67   1.277799 A    
Zn5   O22   1.947084 S    
C22   H5    1.081901 S    
N20   O45   1.300832 A    
C31   H8    1.112548 S    
C11   H2    1.081049 S    
Zn3   O5    1.941109 S    
N20   O46   1.300473 A    
C32   N5    1.463865 S    
C33   C40   1.498707 S    
N12   H34   1.044969 S    
O11   C4    1.282730 A    
C11   C12   1.396236 A    
C37   C38   1.384496 A    
C64   H21   1.112131 S    
C14   C15   1.418729 A    
N7    H28   1.045609 S    
O4    C3    1.279701 A    
C13   C18   1.401084 A    
Zn4   O7    1.939654 S    
C22   C23   1.404935 A    
N5    O30   1.301104 A    
N18   H40   1.043488 S    
C25   C30   1.378155 A    
C32   N6    1.471748 S    
Zn4   O2    1.938894 S    
C20   H4    1.082413 S    
C52   C53   1.407243 A    
C56   H17   1.112539 S    
C27   H6    1.083004 S    
O3    C2    1.278837 A    
C55   H16   1.112276 S    
C45   C68   1.456348 S    
Zn1   O1    1.939900 S    
C3    C58   1.449449 S    
Zn2   O1    1.955494 S    
Zn1   O9    1.947335 S    
C21   C22   1.400981 A    
N21   H43   1.042631 S    
Zn2   O6    1.944176 S    
N19   O43   1.300839 A    
C54   C55   1.497176 S    
Zn6   O19   1.944122 S    
N2    H24   1.045423 S    
O23   C67   1.276618 A    
C33   C38   1.348700 A    
N4    H27   1.046348 S    
C30   C31   1.494506 S    
C26   C27   1.408804 A    
N1    H23   1.045003 S    
Zn1   O3    1.942148 S    
Zn2   O4    1.936625 S    
C45   C46   1.392562 A    
Zn3   O1    1.955600 S    
C60   C61   1.408363 A    
C4    C34   1.446083 S    
N13   O37   1.300142 A    
C44   N12   1.435573 S    
O22   C70   1.279901 A    
C63   C64   1.529902 S    
Zn5   O16   1.944467 S    
C13   C14   1.414742 A    
Zn4   O11   1.941476 S    
N11   H33   1.045026 S    
Zn5   O23   1.942144 S    
C33   C34   1.385265 A    
C7    C12   1.400735 A    
C5    C50   1.456979 S    
C63   N19   1.464051 S    
Zn8   O24   1.938939 S    
N13   O38   1.302309 A    
N6    O31   1.300764 A    
C39   C40   1.545587 S    
Zn6   O17   1.934197 S    
O5    C4    1.278504 A    
C59   C60   1.397466 A    
C63   N17   1.466359 S    
Zn8   O15   1.941226 S    
C9    C18   1.492005 S    
C16   N21   1.440863 S    
C31   N4    1.467717 S    
C20   C21   1.402342 A    
C58   C59   1.404783 A    
O13   C2    1.278148 A    
N17   O42   1.300415 A    
Zn3   O13   1.934194 S    
C21   N2    1.434669 S    
N9    O34   1.301995 A    
C49   C54   1.383714 A    
C57   C62   1.377934 A    
C36   N8    1.435674 S    
C36   C37   1.428460 A    
C48   H13   1.110651 S    
O25   C65   1.286054 A    
C19   C24   1.403068 A    
N5    O29   1.301464 A    
C38   C39   1.492147 S    
C23   C24   1.414151 A    
Zn4   O1    1.955078 S    
N11   H32   1.044940 S    
C23   N3    1.438120 S    
O12   C1    1.281446 A    
C62   C63   1.511954 S    
C9    C10   1.417799 A    
N9    O33   1.301095 A    
Zn7   O26   1.936582 S    
Zn5   O14   1.939898 S    
Zn1   O10   1.944468 S    
C12   N1    1.435317 S    
C44   C45   1.417141 A    
N21   H42   1.045445 S    
Zn6   O14   1.955601 S    
C35   N7    1.435406 S    
C25   C32   1.516920 S    
N10   O35   1.301482 A    
