data_mof_unit_5407.cif
_audit_creation_date              2012-12-11T14:29:44-0500
_audit_creation_method            fapswitch 2.2
_symmetry_space_group_name_H-M    P1
_symmetry_Int_Tables_number       1
_space_group_crystal_system       triclinic
_cell_length_a                    6.942013
_cell_length_b                    14.775851
_cell_length_c                    16.213336
_cell_angle_alpha                 90.33568
_cell_angle_beta                  89.350233
_cell_angle_gamma                 89.535076
_cell_volume                      1662.87801652

loop_
_atom_site_label
_atom_site_type_symbol
_atom_type_description
_atom_site_fract_x
_atom_site_fract_y
_atom_site_fract_z
_atom_type_partial_charge
O1    O     O_R   0.494400 0.416610 0.413880 -0.530652
O2    O     O_R   0.823920 0.406790 0.585520 -0.503346
O3    O     O_R   0.994250 0.583390 0.586120 -0.510252
C1    C     C_R   0.654364 0.384539 0.613104 0.832799
O4    O     O_R   0.824110 0.405730 0.414490 -0.554469
O5    O     O_R   0.994440 0.582310 0.413870 -0.552054
C2    C     C_R   0.656872 0.384641 0.385835 0.684841
O6    O     O_R   0.494210 0.417690 0.586130 -0.519452
O7    O     O_3   0.660810 0.557940 0.500000 -0.389651
V1    V     V_3+5 0.935650 0.489250 0.500000 1.575908
O8    O     O_R   0.324160 0.593210 0.414480 -0.554771
C3    C     C_R   0.155588 0.615185 0.386518 0.700858
O9    O     O_R   0.323970 0.594270 0.585510 -0.546620
C4    C     C_R   0.153560 0.613605 0.616023 0.814443
V2    V     V_3+5 0.435660 0.510750 0.500000 1.525669
O10   O     O_3   0.160630 0.442060 0.500000 -0.346217
C5    C     C_R   0.231767 0.565983 0.792207 0.380260
C6    C     C_R   0.339158 0.550508 0.863374 -0.143157
C7    C     C_R   0.379026 0.621043 0.917126 -0.206549
C8    C     C_R   0.304755 0.706932 0.902368 -0.148956
C9    C     C_R   0.209462 0.726595 0.827843 0.035160
C10   C     C_R   0.193115 0.656799 0.767133 -0.057284
C11   C     C_R   0.125736 0.813072 0.814210 -0.150076
C12   C     C_R   0.053906 0.834181 0.735029 0.080743
C13   C     C_R   0.065419 0.768918 0.670018 0.052336
C14   C     C_R   0.135566 0.680013 0.685623 -0.167673
C15   C     C_R   0.978419 0.921279 0.718036 -0.162947
C16   C     C_R   0.917575 0.943985 0.639188 -0.148295
C17   C     C_R   0.932074 0.881050 0.575129 0.012579
C18   C     C_R   0.005557 0.794499 0.590136 -0.182909
H1    H     H_    0.377762 0.482292 0.881252 0.172796
H2    H     H_    0.455101 0.607642 0.973745 0.142670
H3    H     H_    0.325168 0.757323 0.949890 0.128251
H4    H     H_    0.968454 0.973453 0.765007 0.110535
H5    H     H_    0.861182 0.011373 0.628015 0.128288
H6    H     H_    0.015433 0.747855 0.538510 0.093769
C19   C     C_2   0.985333 0.711274 0.284539 -0.111312
C20   C     C_2   0.150489 0.683244 0.319876 -0.292767
H7    H     H_    0.849382 0.683968 0.306420 0.134144
H8    H     H_    0.288073 0.710122 0.300286 0.132497
C21   C     C_2   0.972719 0.778760 0.216545 -0.114517
C22   C     C_2   0.125817 0.814992 0.177493 -0.286021
H9    H     H_    0.828750 0.798508 0.197791 0.137572
H10   H     H_    0.270875 0.796045 0.194577 0.131760
C23   C     C_2   0.778753 0.204374 0.778008 -0.114921
C24   C     C_2   0.614241 0.178559 0.815750 -0.307441
H11   H     H_    0.914610 0.174771 0.797262 0.146117
H12   H     H_    0.476287 0.205770 0.797189 0.146592
C25   C     C_2   0.789820 0.271441 0.709818 -0.043430
C26   C     C_2   0.637812 0.317544 0.680006 -0.271878
H13   H     H_    0.931931 0.283135 0.683573 0.188366
H14   H     H_    0.494250 0.306947 0.704561 0.162664
C27   C     C_2   0.763373 0.201576 0.220307 -0.317067
C28   C     C_2   0.602700 0.160498 0.192615 0.297219
H15   H     H_    0.897024 0.193911 0.185421 0.172222
C29   C     C_2   0.773283 0.254971 0.298059 0.033345
C30   C     C_2   0.650904 0.325012 0.312587 -0.238192
H16   H     H_    0.541933 0.340906 0.267380 0.175474
O11   O     O_R   0.770210 0.079270 0.910680 -0.542671
O12   O     O_R   0.440150 0.091160 0.082270 -0.497516
O13   O     O_R   0.269970 0.914530 0.082860 -0.532527
C31   C     C_R   0.606155 0.108030 0.114239 0.674446
O14   O     O_R   0.440480 0.090100 0.911240 -0.544136
O15   O     O_R   0.270310 0.913460 0.910610 -0.547924
C32   C     C_R   0.609314 0.111453 0.882886 0.745070
O16   O     O_R   0.769870 0.080340 0.082930 -0.553821
O17   O     O_3   0.603660 0.938980 0.996790 -0.381761
V3    V     V_3+5 0.328750 0.007610 0.996740 1.508769
O18   O     O_R   0.940600 0.902510 0.911180 -0.542731
C33   C     C_R   0.111135 0.880772 0.882758 0.669350
O19   O     O_R   0.940270 0.903570 0.082200 -0.546316
C34   C     C_R   0.109304 0.882091 0.110503 0.769537
V4    V     V_3+5 0.828770 0.986010 0.996670 1.445366
O20   O     O_3   0.103730 0.054750 0.996710 -0.361661
C35   C     C_1   0.872317 0.905414 0.493333 0.313842
N1    N     N_1   0.824475 0.924936 0.427596 -0.316222
S1    S     S_3+6 0.386102 0.156677 0.252748 -0.007619
O21   O     O_2   0.429801 0.156498 0.343350 -0.317290
O22   O     O_2   0.264431 0.237997 0.232686 -0.374028
O23   O     O_3   0.262122 0.062484 0.230219 -0.503074
H17   H     H_    0.138386 0.069076 0.260776 0.354187
C36   C     C_1   0.916416 0.228722 0.357639 0.436832
N2    N     N_1   0.029755 0.207714 0.405842 -0.275250
S2    S     S_3+6 0.089631 0.474063 0.758687 -0.047629
O24   O     O_2   0.177362 0.430936 0.683149 -0.342797
O25   O     O_2   0.075889 0.403505 0.824928 -0.355320
O26   O     O_3   0.866313 0.511638 0.737665 -0.511270
H18   H     H_    0.814806 0.535278 0.790862 0.327163

loop_
_geom_bond_atom_site_label_1
_geom_bond_atom_site_label_2
_ccdc_geom_bond_type
O26   H18   S    
O14   C32   A    
V4    O20   S    
C7    C8    A    
S2    O26   S    
C1    O6    A    
S1    O21   D    
C17   C18   A    
O15   V3    S    
C16   C17   A    
S2    O25   D    
O5    C3    A    
S1    O23   S    
V3    O20   S    
V2    O10   S    
C29   C30   D    
O12   C31   A    
C6    C7    A    
C21   C22   D    
C23   H11   S    
O8    V2    S    
C27   C28   D    
C25   H13   S    
C26   H14   S    
C11   C12   A    
C12   C15   A    
O18   V4    S    
O17   V4    S    
O15   C33   A    
O7    V1    S    
O11   V4    S    
C28   S1    S    
S1    O22   D    
O9    C4    A    
C19   C21   S    
C21   H9    S    
C11   C33   S    
C22   H10   S    
C7    H2    S    
C27   H15   S    
C15   H4    S    
C24   H12   S    
C31   O16   A    
O17   V3    S    
C12   C13   A    
C16   H5    S    
C24   C32   S    
O4    C2    A    
C28   C31   S    
C13   C14   A    
C23   C24   D    
O16   V4    S    
C4    C14   S    
C1    C26   S    
O2    C1    A    
C35   N1    T    
C19   C20   D    
C23   C25   S    
C22   C34   S    
C5    C6    A    
S2    O24   D    
O3    C4    A    
O1    V2    S    
C8    H3    S    
O13   C34   A    
C36   N2    T    
O6    V2    S    
O9    V2    S    
O2    V1    S    
O19   V4    S    
C27   C29   S    
C13   C18   A    
O14   V3    S    
O1    C2    A    
O23   H17   S    
O5    V1    S    
O8    C3    A    
C29   C36   S    
C17   C35   S    
C5    C10   A    
C18   H6    S    
C5    S2    S    
C9    C11   A    
O7    V2    S    
O4    V1    S    
C19   H7    S    
O3    V1    S    
V1    O10   S    
O11   C32   A    
C20   H8    S    
O13   V3    S    
C30   H16   S    
C3    C20   S    
O18   C33   A    
O19   C34   A    
C8    C9    A    
O12   V3    S    
C25   C26   D    
C10   C14   A    
C15   C16   A    
C6    H1    S    
C9    C10   A    
C2    C30   S    
