data_mof_unit_23615.cif
_audit_creation_date              2012-12-10T17:31:04-0500
_audit_creation_method            fapswitch 2.2
_symmetry_space_group_name_H-M    P1
_symmetry_Int_Tables_number       1
_space_group_crystal_system       triclinic
_cell_length_a                    12.022188
_cell_length_b                    12.804309
_cell_length_c                    15.543539
_cell_angle_alpha                 86.298946
_cell_angle_beta                  117.003719
_cell_angle_gamma                 93.778392
_cell_volume                      2125.59908488

loop_
_atom_site_label
_atom_site_type_symbol
_atom_type_description
_atom_site_fract_x
_atom_site_fract_y
_atom_site_fract_z
_atom_type_partial_charge
C1    C     C_R   0.476216 0.299548 0.497495 0.904805
C2    C     C_R   0.607341 0.971840 0.447728 0.508143
C3    C     C_R   0.395639 0.136777 0.544005 -0.297433
C4    C     C_R   0.607292 0.863154 0.459235 -0.295593
C5    C     C_R   0.525910 0.133388 0.462068 -0.243020
C6    C     C_R   0.477941 0.866351 0.541963 -0.244702
C7    C     C_R   0.534163 0.026398 0.477908 0.001731
C8    C     C_R   0.470468 0.973532 0.526872 0.002746
C9    C     C_R   0.002351 0.603501 0.412929 -0.435598
C10   C     C_R   0.997572 0.396387 0.587080 -0.439262
C11   C     C_R   0.125590 0.596573 0.423576 0.628081
C12   C     C_R   0.524156 0.700383 0.503082 0.907515
C13   C     C_R   0.875048 0.404499 0.577704 0.623803
C14   C     C_R   0.160496 0.454009 0.537125 -0.109901
C15   C     C_R   0.838904 0.545069 0.461966 -0.117096
C16   C     C_R   0.578446 0.494441 0.681202 0.896609
C17   C     C_R   0.421671 0.505834 0.318872 0.900555
C18   C     C_R   0.039779 0.461884 0.531215 0.059516
C19   C     C_R   0.959652 0.537261 0.468006 0.058124
C20   C     C_R   0.630212 0.487577 0.786943 -0.152971
C21   C     C_R   0.372834 0.519890 0.213795 -0.154096
C22   C     C_R   0.773476 0.418976 0.945043 -0.323964
C23   C     C_R   0.630861 0.437694 0.110482 -0.237080
C24   C     C_R   0.257937 0.619988 0.065475 -0.324840
C25   C     C_R   0.747343 0.446128 0.848626 0.479610
C26   C     C_R   0.268912 0.580042 0.155377 0.473507
C27   C     C_R   0.554427 0.519069 0.825704 -0.327769
C28   C     C_R   0.447083 0.484516 0.175362 -0.316517
C29   C     C_R   0.586435 0.503306 0.923682 0.084484
C30   C     C_R   0.438926 0.524643 0.087023 0.088275
C31   C     C_R   0.692276 0.444379 0.982295 0.058933
C32   C     C_R   0.342866 0.594963 0.031681 0.055511
C33   C     C_R   0.509184 0.537897 0.961952 0.038369
C34   C     C_R   0.417478 0.612259 0.911222 -0.241736
C35   C     C_R   0.526084 0.499039 0.054030 0.045896
C36   C     C_3   0.842307 0.237030 0.628204 0.075325
C37   C     C_3   0.788426 0.175409 0.688671 -0.712816
C38   C     C_3   0.162073 0.766666 0.381694 0.067383
C39   C     C_3   0.214332 0.832942 0.322430 -0.709739
C40   C     C_3   0.061914 0.586228 0.122014 0.108035
C41   C     C_3   0.974540 0.600300 0.166268 -0.707072
C42   C     C_3   0.951120 0.463567 0.871724 0.096315
C43   C     C_3   0.029438 0.467444 0.817560 -0.705052
C44   C     C_3   0.209316 0.990375 0.562505 0.076804
C45   C     C_R   0.713472 0.411599 0.076143 0.143619
C46   C     C_3   0.172331 0.041093 0.631243 -0.792024
C47   C     C_3   0.796425 0.009458 0.444343 0.079006
C48   C     C_3   0.834894 0.959204 0.376242 -0.801147
C49   C     C_R   0.335093 0.640288 0.944645 0.147073
C50   C     C_R   0.540639 0.811721 0.504253 -0.144525
C51   C     C_R   0.461378 0.188065 0.498167 -0.141550
C52   C     C_R   0.397228 0.028137 0.556999 0.507892
H1    H     H_    0.939421 0.659084 0.361138 0.152235
H2    H     H_    0.574043 0.175555 0.425133 0.198736
H3    H     H_    0.654066 0.818825 0.429129 0.169899
H4    H     H_    0.348257 0.181272 0.573485 0.169378
H5    H     H_    0.776876 0.603497 0.413632 0.148911
H6    H     H_    0.222299 0.395229 0.585075 0.146170
H7    H     H_    0.940315 0.213674 0.655792 0.116553
H8    H     H_    0.787796 0.215036 0.551583 0.137767
H9    H     H_    0.692644 0.199963 0.668406 0.261353
H10   H     H_    0.784942 0.090364 0.676910 0.190865
H11   H     H_    0.847968 0.189676 0.766487 0.258908
H12   H     H_    0.060951 0.341349 0.639209 0.149216
H13   H     H_    0.218459 0.784284 0.459225 0.140984
H14   H     H_    0.064767 0.790395 0.357148 0.111691
H15   H     H_    0.151683 0.824978 0.244127 0.252244
H16   H     H_    0.221669 0.916594 0.340054 0.189445
H17   H     H_    0.308158 0.807258 0.338091 0.268299
H18   H     H_    0.048445 0.504277 0.097785 0.130256
H19   H     H_    0.032467 0.641712 0.058437 0.122479
H20   H     H_    0.985797 0.681010 0.191769 0.254587
H21   H     H_    0.876347 0.588273 0.110957 0.195721
H22   H     H_    0.993790 0.542556 0.227127 0.277944
H23   H     H_    0.514921 0.428419 0.219295 0.173042
H24   H     H_    0.998015 0.411457 0.936955 0.130519
H25   H     H_    0.950404 0.544576 0.893919 0.123296
H26   H     H_    0.125252 0.497937 0.864767 0.204756
H27   H     H_    0.987477 0.519868 0.752020 0.263706
H28   H     H_    0.036100 0.387502 0.797106 0.257062
H29   H     H_    0.160878 0.912001 0.545887 0.152300
H30   H     H_    0.173756 0.037054 0.492643 0.124396
H31   H     H_    0.218070 0.120265 0.649130 0.236602
H32   H     H_    0.069520 0.048604 0.596886 0.186638
H33   H     H_    0.200854 0.992120 0.698943 0.287803
H34   H     H_    0.465530 0.550374 0.776563 0.182602
H35   H     H_    0.830754 0.962228 0.513882 0.124060
H36   H     H_    0.845021 0.087711 0.461873 0.152572
H37   H     H_    0.807693 0.008638 0.308924 0.281562
H38   H     H_    0.937678 0.951385 0.411534 0.187066
H39   H     H_    0.788967 0.880192 0.357527 0.237640
H40   H     H_    0.856025 0.376309 0.989706 0.176089
H41   H     H_    0.186292 0.674468 0.024252 0.180240
H42   H     H_    0.654479 0.410295 0.183277 0.172659
H43   H     H_    0.410451 0.653311 0.846248 0.177000
H44   H     H_    0.429918 0.824019 0.578886 0.197452
I1    I     I_    0.863743 0.316644 0.170671 -0.444668
I2    I     I_    0.202030 0.752452 0.856932 -0.448918
N1    N     N_R   0.799120 0.480200 0.517090 -0.129953
N2    N     N_R   0.200880 0.519800 0.482910 -0.128158
O1    O     O_R   0.580150 0.341050 0.504560 -0.595333
O2    O     O_3   0.167417 0.659508 0.367383 -0.551668
O3    O     O_3   0.187567 0.607757 0.190517 -0.559984
O4    O     O_3   0.828770 0.423570 0.811892 -0.560166
O5    O     O_3   0.339850 0.976031 0.608339 -0.616725
O6    O     O_3   0.665935 0.024065 0.397360 -0.617947
O7    O     O_R   0.419850 0.658950 0.495440 -0.591003
O8    O     O_R   0.388090 0.353760 0.493600 -0.625995
O9    O     O_R   0.611910 0.646240 0.506400 -0.629813
O10   O     O_R   0.650890 0.490020 0.640860 -0.527596
O11   O     O_R   0.349110 0.509980 0.359140 -0.529059
O12   O     O_R   0.458830 0.502730 0.629890 -0.643797
O13   O     O_R   0.541170 0.497270 0.370110 -0.638898
O14   O     O_3   0.835244 0.345244 0.637137 -0.551275
Zn1   Zn    Zn3+2 0.628240 0.491510 0.507320 0.995601
Zn2   Zn    Zn3+2 0.371760 0.508490 0.492680 1.000495

loop_
_geom_bond_atom_site_label_1
_geom_bond_atom_site_label_2
_ccdc_geom_bond_type
C21   C26   A    
C23   C45   A    
C40   H19   S    
C27   C29   A    
C39   H16   S    
C14   C18   A    
C2    C7    A    
N2    Zn2   S    
C36   H7    S    
C36   O14   S    
C42   H24   S    
C37   H10   S    
C16   O10   A    
C7    C8    A    
C44   O5    S    
C43   H26   S    
C15   C19   A    
C40   H18   S    
C30   C35   A    
C36   C37   S    
C24   C26   A    
C44   H30   S    
N1    Zn1   S    
C38   C39   S    
C32   C49   A    
C20   C25   A    
C43   H27   S    
C29   C33   A    
C22   C25   A    
C18   C19   A    
C49   I2    S    
C9    C19   A    
C38   H14   S    
C48   H39   S    
O11   Zn2   S    
C8    C52   A    
C13   O14   S    
C46   H33   S    
C41   H22   S    
C48   H38   S    
C15   H5    S    
C17   O11   A    
C12   O9    A    
C37   H11   S    
C44   C46   S    
C14   H6    S    
C22   C31   A    
C17   O13   A    
C5    H2    S    
C34   H43   S    
C44   H29   S    
C5    C7    A    
C3    C51   A    
C6    C8    A    
C43   H28   S    
C2    O6    S    
C17   C21   S    
C4    C50   A    
C11   N2    A    
C47   H35   S    
C13   N1    A    
C27   H34   S    
C2    C4    A    
C24   C32   A    
C26   O3    S    
C1    C51   S    
C3    H4    S    
C12   C50   S    
C47   C48   S    
C38   H13   S    
C16   C20   S    
C47   O6    S    
C33   C34   A    
C39   H17   S    
C6    C50   A    
C9    C11   A    
C41   H20   S    
C46   H32   S    
C40   C41   S    
C21   C28   A    
C52   O5    S    
C6    H44   S    
C48   H37   S    
C4    H3    S    
O1    Zn1   S    
C9    H1    S    
C42   C43   S    
C1    O1    A    
O12   Zn2   S    
C16   O12   A    
C34   C49   A    
C39   H15   S    
C10   H12   S    
C15   N1    A    
C36   H8    S    
C10   C13   A    
C42   O4    S    
C12   O7    A    
C37   H9    S    
C3    C52   A    
C25   O4    S    
C14   N2    A    
C20   C27   A    
C23   C35   A    
C23   H42   S    
C47   H36   S    
O8    Zn2   S    
C28   C30   A    
C38   O2    S    
C45   I1    S    
C24   H41   S    
C40   O3    S    
C30   C32   A    
C10   C18   A    
C33   C35   A    
C11   O2    S    
O7    Zn2   S    
O9    Zn1   S    
C1    O8    A    
C41   H21   S    
C46   H31   S    
C42   H25   S    
C29   C31   A    
C31   C45   A    
C22   H40   S    
C5    C51   A    
C28   H23   S    
O10   Zn1   S    
O13   Zn1   S    
