data_mof_unit_47835.cif
_audit_creation_date              2012-12-10T17:03:53-0500
_audit_creation_method            fapswitch 2.2
_symmetry_space_group_name_H-M    P1
_symmetry_Int_Tables_number       1
_space_group_crystal_system       triclinic
_cell_length_a                    9.855254
_cell_length_b                    11.049095
_cell_length_c                    15.839566
_cell_angle_alpha                 94.693218
_cell_angle_beta                  79.45242
_cell_angle_gamma                 111.678339
_cell_volume                      1575.53275552

loop_
_atom_site_label
_atom_site_type_symbol
_atom_type_description
_atom_site_fract_x
_atom_site_fract_y
_atom_site_fract_z
_atom_type_partial_charge
C1    C     C_R   0.556424 0.745533 0.506213 0.865602
C2    C     C_R   0.443569 0.254467 0.493798 0.866726
C3    C     C_R   0.319374 0.408977 0.072800 -0.241899
C4    C     C_R   0.676223 0.524632 0.921947 -0.229427
C5    C     C_R   0.217030 0.381542 0.017777 -0.195167
C6    C     C_R   0.778168 0.546018 0.976545 -0.228594
C7    C     C_2   0.588209 0.885110 0.509592 -0.356152
C8    C     C_2   0.411770 0.114891 0.490445 -0.355116
C9    C     C_2   0.484621 0.930433 0.498526 -0.146659
C10   C     C_2   0.515342 0.069568 0.501543 -0.145865
C11   C     C_2   0.923412 0.490867 0.493107 0.063155
C12   C     C_2   0.076715 0.509352 0.506757 0.063446
C13   C     C_R   0.411408 0.485793 0.662641 0.812577
C14   C     C_R   0.588310 0.512862 0.337256 0.812645
C15   C     C_R   0.356901 0.467624 0.755241 -0.085348
C16   C     C_R   0.640503 0.518430 0.243954 -0.085719
C17   C     C_R   0.157243 0.383408 0.874990 0.160497
C18   C     C_R   0.837838 0.556933 0.120687 0.153494
C19   C     C_R   0.205873 0.411119 0.787373 -0.228779
C20   C     C_R   0.790063 0.547679 0.209757 -0.226007
C21   C     C_R   0.459832 0.498876 0.810962 -0.249357
C22   C     C_R   0.537484 0.493976 0.188808 -0.255493
C23   C     C_R   0.416710 0.466033 0.898087 0.046885
C24   C     C_R   0.579558 0.495878 0.099224 0.051859
C25   C     C_R   0.262793 0.410628 0.930590 0.147684
C26   C     C_R   0.732729 0.533154 0.065252 0.151994
C27   C     C_R   0.522743 0.486899 0.953462 0.085717
C28   C     C_R   0.473337 0.465038 0.042886 0.083591
Cu1   Cu    Cu3+1 0.362980 0.479380 0.485080 0.937531
Cu2   Cu    Cu3+1 0.637020 0.520620 0.514920 0.938384
H1    H     H_    0.424606 0.477564 0.217502 0.155654
H2    H     H_    0.573916 0.550126 0.784448 0.150913
H3    H     H_    0.624061 0.135381 0.512998 0.182149
H4    H     H_    0.375896 0.864620 0.487082 0.182056
N1    N     N_2   0.842890 0.551600 0.537350 -0.141827
N2    N     N_2   0.157110 0.448400 0.462650 -0.142047
O1    O     O_R   0.426810 0.668300 0.492040 -0.583578
O2    O     O_R   0.573190 0.331700 0.507960 -0.583296
O3    O     O_R   0.658240 0.703130 0.517240 -0.579540
O4    O     O_R   0.341760 0.296870 0.482760 -0.579660
O5    O     O_R   0.319390 0.472820 0.610170 -0.588051
O6    O     O_R   0.680610 0.527180 0.389830 -0.588050
O7    O     O_R   0.550820 0.507640 0.635370 -0.581334
O8    O     O_R   0.449180 0.492360 0.364630 -0.582875
H5    H     H_    0.100898 0.336945 0.044587 0.179354
H6    H     H_    0.893938 0.574468 0.948287 0.165330
H7    H     H_    0.870197 0.566146 0.252338 0.153541
H8    H     H_    0.125925 0.386570 0.744096 0.153872
N3    N     N_3   0.001530 0.323492 0.907076 -0.599200
H9    H     H_    0.939942 0.303974 0.857075 0.218282
H10   H     H_    0.969936 0.391033 0.947844 0.231925
N4    N     N_3   0.992522 0.590269 0.086385 -0.621594
H11   H     H_    0.051689 0.588279 0.134407 0.221076
H12   H     H_    0.032910 0.686457 0.065624 0.219199
H13   H     H_    0.273556 0.379541 0.138272 0.141030
H14   H     H_    0.721944 0.534107 0.854607 0.141284
H15   H     H_    0.303264 0.048827 0.478947 0.148214
H16   H     H_    0.696722 0.951175 0.521080 0.148534
H17   H     H_    0.124340 0.577599 0.556087 0.149601
H18   H     H_    0.875945 0.422897 0.443611 0.148902
N5    N     N_3   0.097104 0.359859 0.399654 -0.540868
H19   H     H_    0.168150 0.390255 0.341558 0.233551
H20   H     H_    0.100372 0.270435 0.413882 0.240458
N6    N     N_3   0.902518 0.639495 0.600734 -0.539984
H21   H     H_    0.898972 0.729021 0.586986 0.240559
H22   H     H_    0.831394 0.608372 0.658709 0.234216

loop_
_geom_bond_atom_site_label_1
_geom_bond_atom_site_label_2
_ccdc_geom_bond_type
C11   C12   S    
C7    C9    D    
N1    N6    S    
C23   C27   A    
C8    H15   S    
C12   N2    D    
Cu1   Cu2   S    
C9    C10   S    
C2    O2    A    
C7    H16   S    
N5    H19   S    
C18   C26   A    
C13   C15   S    
C16   C20   A    
C14   O6    A    
C17   C25   A    
N6    H21   S    
C3    C5    A    
C22   C24   A    
C13   O5    A    
C18   N4    S    
C4    H14   S    
C15   C19   A    
Cu1   N2    S    
N6    H22   S    
C6    C26   A    
C15   C21   A    
C3    H13   S    
Cu2   N1    S    
C5    C25   A    
Cu1   O4    S    
C4    C6    A    
C3    C28   A    
C17   C19   A    
C24   C26   A    
Cu2   O3    S    
C10   H3    S    
C18   C20   A    
C23   C25   A    
Cu1   O8    S    
C9    H4    S    
C11   N1    D    
C21   H2    S    
C14   C16   S    
Cu2   O7    S    
C20   H7    S    
C22   H1    S    
C1    O3    A    
Cu1   O1    S    
C11   H18   S    
C2    O4    A    
C13   O7    A    
C4    C27   A    
N4    H11   S    
Cu2   O2    S    
C14   O8    A    
N3    H9    S    
C17   N3    S    
C27   C28   A    
N5    H20   S    
C19   H8    S    
Cu2   O6    S    
C16   C22   A    
C6    H6    S    
Cu1   O5    S    
C1    C7    S    
C12   H17   S    
C5    H5    S    
C21   C23   A    
C8    C10   D    
C2    C8    S    
C24   C28   A    
N4    H12   S    
C1    O1    A    
N3    H10   S    
N2    N5    S    
