data_mof_unit_8420.cif
_audit_creation_date              2012-12-11T16:28:22-0500
_audit_creation_method            fapswitch 2.2
_symmetry_space_group_name_H-M    P1
_symmetry_Int_Tables_number       1
_space_group_crystal_system       triclinic
_cell_length_a                    16.868826
_cell_length_b                    7.24189
_cell_length_c                    14.98983
_cell_angle_alpha                 90.00194
_cell_angle_beta                  94.39867
_cell_angle_gamma                 90.006804
_cell_volume                      1825.79661981

loop_
_atom_site_label
_atom_site_type_symbol
_atom_type_description
_atom_site_fract_x
_atom_site_fract_y
_atom_site_fract_z
_atom_type_partial_charge
O1    O     O_R   0.663460 0.361760 0.165970 -0.503618
O2    O     O_R   0.336540 0.638240 0.834030 -0.503617
O3    O     O_R   0.836540 0.861760 0.334030 -0.503722
O4    O     O_R   0.163460 0.138240 0.665970 -0.503718
O5    O     O_R   0.827100 0.689870 0.163730 -0.535169
O6    O     O_R   0.172900 0.310130 0.836270 -0.535169
O7    O     O_R   0.672900 0.189870 0.336270 -0.535091
O8    O     O_R   0.327100 0.810130 0.663730 -0.535089
C1    C     C_R   0.854062 0.523297 0.144467 0.744089
C2    C     C_R   0.145938 0.476702 0.855534 0.744091
C3    C     C_R   0.645933 0.023290 0.355528 0.744305
C4    C     C_R   0.354067 0.976709 0.644473 0.744316
O9    O     O_R   0.663490 0.691370 0.155500 -0.541723
O10   O     O_R   0.336510 0.308630 0.844500 -0.541724
O11   O     O_R   0.836510 0.191370 0.344500 -0.541736
O12   O     O_R   0.163490 0.808630 0.655500 -0.541740
O13   O     O_R   0.671770 0.863320 0.325740 -0.516332
O14   O     O_R   0.328230 0.136680 0.674260 -0.516331
O15   O     O_R   0.828230 0.363320 0.174260 -0.516209
O16   O     O_R   0.171770 0.636680 0.825740 -0.516207
C5    C     C_R   0.638888 0.520729 0.129950 0.812307
C6    C     C_R   0.361112 0.479271 0.870050 0.812306
C7    C     C_R   0.861131 0.020764 0.370025 0.812509
C8    C     C_R   0.138867 0.979236 0.629977 0.812508
H1    H     H_    0.111612 0.995950 0.215061 0.149694
H2    H     H_    0.888388 0.004096 0.784934 0.149694
H3    H     H_    0.388515 0.498890 0.284975 0.149700
H4    H     H_    0.611485 0.501105 0.715025 0.149700
O17   O     O_3   0.752910 0.528800 0.305860 -0.355586
O18   O     O_3   0.247090 0.471200 0.694140 -0.355587
O19   O     O_3   0.747090 0.028800 0.194140 -0.355395
O20   O     O_3   0.252910 0.971200 0.805860 -0.355399
V1    V     V_3+5 0.749460 0.803010 0.239640 1.559701
V2    V     V_3+5 0.250540 0.196990 0.760360 1.559696
V3    V     V_3+5 0.750540 0.303010 0.260360 1.559755
V4    V     V_3+5 0.249460 0.696990 0.739640 1.559754
C9    C     C_1   0.469115 0.994491 0.530437 0.019054
C10   C     C_1   0.530885 0.005508 0.469564 0.019053
C11   C     C_1   0.030888 0.494486 0.969566 0.019041
C12   C     C_1   0.969113 0.505514 0.030434 0.019038
H5    H     H_    0.778251 0.926279 0.678370 0.162573
H6    H     H_    0.221757 0.073720 0.321631 0.162573
H7    H     H_    0.721516 0.422921 0.821628 0.162593
H8    H     H_    0.278483 0.577073 0.178371 0.162593
C13   C     C_R   0.024204 0.995123 0.312467 0.175048
C14   C     C_R   0.975793 0.004912 0.687525 0.175054
C15   C     C_R   0.475834 0.496097 0.187515 0.175017
C16   C     C_R   0.524165 0.503903 0.812485 0.175017
C17   C     C_R   0.101240 0.006626 0.285335 -0.204090
C18   C     C_R   0.898762 0.993401 0.714661 -0.204087
C19   C     C_R   0.398874 0.508984 0.214688 -0.204158
C20   C     C_R   0.601125 0.491012 0.785312 -0.204158
C21   C     C_R   0.164180 0.045761 0.346144 -0.130875
C22   C     C_R   0.835826 0.954241 0.653855 -0.130878
C23   C     C_R   0.335990 0.548344 0.153863 -0.130902
C24   C     C_R   0.664010 0.451651 0.846137 -0.130901
C25   C     C_R   0.152695 0.064515 0.436453 0.210780
C26   C     C_R   0.847309 0.935478 0.563545 0.210772
C27   C     C_R   0.347411 0.566077 0.063506 0.210852
C28   C     C_R   0.652589 0.433921 0.936494 0.210853
C29   C     C_R   0.077690 0.021891 0.469954 -0.032475
C30   C     C_R   0.922311 0.978107 0.530043 -0.032482
C31   C     C_R   0.422337 0.522636 0.030026 -0.032654
C32   C     C_R   0.577663 0.477364 0.969974 -0.032655
C33   C     C_R   0.010175 0.006047 0.405891 0.046919
C34   C     C_R   0.989824 0.993963 0.594105 0.046949
C35   C     C_R   0.489843 0.506550 0.094085 0.046984
C36   C     C_R   0.510157 0.493449 0.905915 0.046984
C37   C     C_R   0.068070 0.999160 0.563580 -0.135986
C38   C     C_R   0.931929 0.000841 0.436417 -0.135991
C39   C     C_R   0.431924 0.499300 0.936429 -0.135837
C40   C     C_R   0.568075 0.500700 0.063571 -0.135837
C41   C     C_1   0.416684 0.985616 0.582212 -0.149970
C42   C     C_1   0.583316 0.014384 0.417789 -0.149972
C43   C     C_1   0.083321 0.485601 0.917794 -0.150110
C44   C     C_1   0.916679 0.514399 0.082206 -0.150121
Br1   Br    Br    0.234541 0.209139 0.497549 -0.578695
Br2   Br    Br    0.765466 0.790840 0.502451 -0.578691
Br3   Br    Br    0.265526 0.710155 0.002198 -0.578509
Br4   Br    Br    0.734475 0.289846 0.997803 -0.578508
N1    N     N_3   0.961827 0.966565 0.243459 -0.650696
H9    H     H_    0.974243 0.845960 0.208747 0.226720
H10   H     H_    0.961911 0.077269 0.198608 0.228003
N2    N     N_3   0.038157 0.033519 0.756518 -0.650749
H11   H     H_    0.025741 0.154134 0.791205 0.226722
H12   H     H_    0.038073 0.922872 0.801389 0.228000
N3    N     N_3   0.538115 0.466328 0.256454 -0.650828
H13   H     H_    0.538350 0.576744 0.301440 0.228020
H14   H     H_    0.525373 0.345805 0.291000 0.226727
N4    N     N_3   0.461885 0.533675 0.743546 -0.650829
H15   H     H_    0.461649 0.423260 0.698560 0.228020
H16   H     H_    0.474629 0.654196 0.709000 0.226726

loop_
_geom_bond_atom_site_label_1
_geom_bond_atom_site_label_2
_ccdc_geom_bond_type
C26   C30   A    
N3    H13   S    
O1    C5    A    
C23   C27   A    
O3    C7    A    
N1    H9    S    
O7    C3    A    
O5    C1    A    
C18   C22   A    
C32   C36   A    
N2    H12   S    
C14   C34   A    
H2    C18   S    
H6    C21   S    
C10   C42   T    
O4    C8    A    
C34   C37   A    
O3    V1    S    
O2    V4    S    
C33   C38   A    
C30   C38   A    
C35   C40   A    
O8    V4    S    
O11   V3    S    
C9    C41   T    
C1    O15   A    
C28   Br4   S    
C2    O16   A    
O5    V1    S    
O2    C6    A    
O19   V1    S    
C1    C44   S    
C11   C43   T    
O11   C7    A    
O12   C8    A    
C16   N4    S    
C4    C41   S    
C7    C38   S    
O13   V1    S    
C15   C35   A    
N1    H10   S    
H3    C19   S    
C8    C37   S    
O4    V2    S    
C31   C35   A    
C30   C34   A    
C5    C40   S    
C25   Br1   S    
N2    H11   S    
C27   Br3   S    
C11   C12   S    
C21   C25   A    
C15   C19   A    
O6    V2    S    
O20   V2    S    
O9    V1    S    
C9    C10   S    
C2    C43   S    
N4    H16   S    
C13   C17   A    
O8    C4    A    
O9    C5    A    
C16   C36   A    
O14   V2    S    
C14   N2    S    
C31   C39   A    
N3    H14   S    
C13   C33   A    
C6    C39   S    
O1    V3    S    
C22   C26   A    
C29   C37   A    
O17   V3    S    
C3    O13   A    
O7    V3    S    
C13   N1    S    
C3    C42   S    
O10   V2    S    
C25   C29   A    
C14   C18   A    
C27   C31   A    
O18   V4    S    
C28   C32   A    
O10   C6    A    
O15   V3    S    
O12   V4    S    
H4    C20   S    
H8    C23   S    
N4    H15   S    
C36   C39   A    
C17   C21   A    
C19   C23   A    
C32   C40   A    
H1    C17   S    
H5    C22   S    
O6    C2    A    
C26   Br2   S    
O16   V4    S    
C29   C33   A    
H7    C24   S    
C16   C20   A    
C24   C28   A    
C12   C44   T    
C4    O14   A    
C20   C24   A    
C15   N3    S    
