data_mof_unit_26835.cif
_audit_creation_date              2012-10-26T19:58:18-0400
_audit_creation_method            fapswitch 2.2
_symmetry_space_group_name_H-M    P1
_symmetry_Int_Tables_number       1
_space_group_crystal_system       triclinic
_cell_length_a                    7.420842
_cell_length_b                    8.692775
_cell_length_c                    13.401242
_cell_angle_alpha                 94.011171
_cell_angle_beta                  77.060283
_cell_angle_gamma                 103.210542
_cell_volume                      820.074272396

loop_
_atom_site_label
_atom_site_type_symbol
_atom_type_description
_atom_site_fract_x
_atom_site_fract_y
_atom_site_fract_z
_atom_type_partial_charge
C1    C     C_R   0.545449 0.800251 0.502910 0.549066
C2    C     C_R   0.335175 0.492980 0.807124 -0.009607
C3    C     C_2   0.571208 0.968126 0.504095 -0.156079
C4    C     C_R   0.398755 0.497260 0.694622 0.519895
C5    C     C_2   0.429268 0.031835 0.495069 -0.143678
C6    C     C_R   0.454715 0.199744 0.496803 0.544260
C7    C     C_R   0.603746 0.516016 0.305639 0.565715
C8    C     C_R   0.879421 0.689324 0.048757 -0.116407
C9    C     C_R   0.668787 0.547024 0.194787 -0.020935
C10   C     C_R   0.152144 0.408612 0.849510 -0.138181
C11   C     C_R   0.100357 0.374815 0.953101 -0.140498
C12   C     C_R   0.417954 0.506002 0.975479 0.061234
C13   C     C_R   0.232221 0.418398 0.015003 -0.083730
C14   C     C_R   0.462991 0.554577 0.872141 0.028534
C15   C     C_R   0.560317 0.548317 0.034788 0.039953
C16   C     C_R   0.737315 0.647297 0.992451 0.004729
C17   C     C_R   0.770236 0.707332 0.894825 -0.133337
C18   C     C_R   0.634115 0.664254 0.836352 -0.112822
C19   C     C_R   0.532783 0.495443 0.134769 -0.131673
C20   C     C_R   0.847897 0.641976 0.149944 0.194465
Cu1   Cu    Cu3+1 0.321300 0.483160 0.488710 1.013123
Cu2   Cu    Cu3+1 0.678700 0.516840 0.511290 1.021602
H1    H     H_    0.292522 0.960309 0.486503 0.161170
H2    H     H_    0.663938 0.720674 0.763313 0.133868
H3    H     H_    0.708032 0.039625 0.512524 0.136994
H4    H     H_    0.910761 0.906260 0.289268 0.323954
H5    H     H_    0.011565 0.618999 0.578404 0.229743
H6    H     H_    0.988003 0.380251 0.422106 0.254196
H7    H     H_    0.902114 0.788650 0.863390 0.107434
H8    H     H_    0.014289 0.763657 0.014002 0.157769
H9    H     H_    0.403480 0.415449 0.169152 0.146743
H10   H     H_    0.050869 0.363440 0.801779 0.138052
H11   H     H_    0.182625 0.383941 0.093710 0.146019
H12   H     H_    0.958659 0.309209 0.985052 0.128404
N1    N     N_2   0.947230 0.542220 0.528320 -0.234624
N2    N     N_2   0.052770 0.457780 0.471680 -0.220522
O1    O     O_R   0.383920 0.714220 0.492660 -0.496446
O2    O     O_2   0.204293 0.809637 0.148623 -0.301325
O3    O     O_3   0.958576 0.825392 0.317986 -0.479874
O4    O     O_R   0.685730 0.742660 0.511730 -0.474095
O5    O     O_R   0.275440 0.478800 0.636790 -0.519585
O6    O     O_R   0.577250 0.507240 0.655860 -0.515077
O7    O     O_R   0.314270 0.257340 0.488270 -0.499566
O8    O     O_R   0.616080 0.285780 0.507340 -0.518191
O9    O     O_R   0.422750 0.492760 0.344140 -0.476987
O10   O     O_R   0.724560 0.521200 0.363210 -0.424914
O11   O     O_2   0.088864 0.575163 0.254078 -0.269510
S1    S     S_3+6 0.032899 0.712749 0.216888 0.010741

loop_
_geom_bond_atom_site_label_1
_geom_bond_atom_site_label_2
_ccdc_geom_bond_type
C2    C4    S    
C13   H11   S    
C17   H7    S    
C14   C18   A    
C9    C20   A    
O2    S1    D    
N1    N2    D    
C5    H1    S    
C12   C15   A    
C1    O1    A    
C3    C5    D    
C19   H9    S    
C17   C18   A    
C8    H8    S    
C8    C16   A    
Cu1   N2    S    
C6    O8    A    
Cu1   Cu2   S    
C15   C19   A    
Cu2   N1    S    
C11   C13   A    
Cu2   O6    S    
C4    O6    A    
C8    C20   A    
Cu1   O5    S    
C7    O9    A    
Cu2   O10   S    
C12   C14   A    
Cu1   O9    S    
C6    O7    A    
C5    C6    S    
C2    C14   A    
C18   H2    S    
H4    O3    S    
C10   C11   A    
C15   C16   A    
C2    C10   A    
C7    O10   A    
C10   H10   S    
C3    H3    S    
Cu1   O1    S    
C12   C13   A    
H6    N2    S    
C4    O5    A    
C7    C9    S    
Cu2   O4    S    
O3    S1    S    
C20   S1    S    
C1    O4    A    
H5    N1    S    
Cu1   O7    S    
C9    C19   A    
C11   H12   S    
Cu2   O8    S    
O11   S1    D    
C16   C17   A    
C1    C3    S    
