data_mof_unit_58807.cif
_audit_creation_date              2012-12-10T19:47:25-0500
_audit_creation_method            fapswitch 2.2
_symmetry_space_group_name_H-M    P1
_symmetry_Int_Tables_number       1
_space_group_crystal_system       triclinic
_cell_length_a                    10.904642
_cell_length_b                    10.885154
_cell_length_c                    12.711225
_cell_angle_alpha                 91.864952
_cell_angle_beta                  91.322443
_cell_angle_gamma                 90.376518
_cell_volume                      1507.56463175

loop_
_atom_site_label
_atom_site_type_symbol
_atom_type_description
_atom_site_fract_x
_atom_site_fract_y
_atom_site_fract_z
_atom_type_partial_charge
C1    C     C_R   0.261895 0.498700 0.502021 0.875695
C2    C     C_R   0.738105 0.501301 0.497979 0.875691
C3    C     C_R   0.496469 0.871678 0.496520 -0.028646
C4    C     C_R   0.503532 0.128321 0.503479 -0.028648
C5    C     C_R   0.461440 0.936276 0.406138 0.072740
C6    C     C_R   0.538563 0.063723 0.593862 0.072743
C7    C     C_R   0.204414 0.338239 0.835893 0.081169
C8    C     C_R   0.795584 0.661794 0.164121 0.081176
C9    C     C_R   0.169805 0.358487 0.730880 0.665788
C10   C     C_R   0.830199 0.641536 0.269131 0.665795
C11   C     C_R   0.118546 0.471297 0.703192 -0.069433
C12   C     C_R   0.881454 0.528721 0.296810 -0.069441
C13   C     C_R   0.103115 0.564039 0.780846 -0.276459
C14   C     C_R   0.896882 0.435986 0.219147 -0.276454
C15   C     C_R   0.137538 0.544754 0.885915 0.192652
C16   C     C_R   0.862457 0.455284 0.114081 0.192665
C17   C     C_R   0.188821 0.432173 0.912881 -0.275286
C18   C     C_R   0.811172 0.567867 0.087125 -0.275303
C19   C     C_R   0.935034 0.488387 0.591759 -0.179466
C20   C     C_R   0.064965 0.511614 0.408241 -0.179469
C21   C     C_R   0.871674 0.501682 0.495676 -0.041361
C22   C     C_R   0.128326 0.498320 0.504324 -0.041365
C23   C     C_R   0.502070 0.261937 0.501529 0.867744
C24   C     C_R   0.497930 0.738062 0.498471 0.867743
C25   C     C_R   0.937833 0.513429 0.402404 0.074253
C26   C     C_R   0.062168 0.486575 0.597596 0.074255
C27   C     C_2   0.478761 0.456665 0.031964 -0.254645
C28   C     C_2   0.521241 0.543339 0.968036 -0.254650
C29   C     C_1   0.520347 0.528322 0.852558 0.219291
C30   C     C_1   0.479654 0.471680 0.147442 0.219283
C31   C     C_R   0.723073 0.248304 0.801762 -0.182213
C32   C     C_R   0.276931 0.751713 0.198226 -0.182222
C33   C     C_R   0.687251 0.194152 0.704415 0.650915
C34   C     C_R   0.312755 0.805852 0.295577 0.650914
C35   C     C_R   0.578715 0.123401 0.695415 -0.001291
C36   C     C_R   0.421292 0.876599 0.304582 -0.001284
C37   C     C_R   0.510251 0.103617 0.785664 -0.173338
C38   C     C_R   0.489759 0.896388 0.214336 -0.173331
C39   C     C_R   0.547538 0.156238 0.882800 -0.154579
C40   C     C_R   0.452471 0.843781 0.117197 -0.154607
C41   C     C_R   0.652868 0.229564 0.890609 -0.211539
C42   C     C_R   0.347137 0.770462 0.109381 -0.211533
C43   C     C_R   0.534002 0.936328 0.588945 -0.228430
C44   C     C_R   0.465999 0.063672 0.411054 -0.228431
Cu1   Cu    Cu3+1 0.492140 0.492110 0.395880 1.020402
Cu2   Cu    Cu3+1 0.507860 0.507890 0.604120 1.020405
H1    H     H_    0.679420 0.271444 0.965864 0.201284
H2    H     H_    0.320582 0.728594 0.034123 0.201283
H3    H     H_    0.060538 0.649776 0.759777 0.169835
H4    H     H_    0.939457 0.350246 0.240210 0.169831
H5    H     H_    0.885396 0.477532 0.663919 0.165160
H6    H     H_    0.114604 0.522468 0.336081 0.165166
H7    H     H_    0.557191 0.628986 0.002459 0.162746
H8    H     H_    0.442801 0.371018 0.997541 0.162753
H9    H     H_    0.805418 0.304381 0.808435 0.154784
H10   H     H_    0.194584 0.695642 0.191548 0.154788
H11   H     H_    0.427874 0.047363 0.780613 0.176922
H12   H     H_    0.572139 0.952637 0.219392 0.176938
H13   H     H_    0.494511 0.140523 0.952085 0.144318
H14   H     H_    0.505500 0.859502 0.047913 0.144308
H15   H     H_    0.562436 0.887395 0.658288 0.158598
H16   H     H_    0.437564 0.112604 0.341712 0.158599
H17   H     H_    0.213250 0.416952 0.994461 0.160755
H18   H     H_    0.786744 0.583097 0.005546 0.160750
N1    N     N_1   0.480320 0.480250 0.239400 -0.166182
N2    N     N_1   0.519680 0.519750 0.760600 -0.166180
O1    O     O_R   0.313000 0.493330 0.412070 -0.590069
O2    O     O_R   0.687000 0.506670 0.587930 -0.590071
O3    O     O_R   0.326280 0.506660 0.587930 -0.577035
O4    O     O_R   0.673720 0.493340 0.412070 -0.577039
O5    O     O_R   0.493370 0.312980 0.412070 -0.600232
O6    O     O_R   0.506630 0.687020 0.587930 -0.600234
O7    O     O_R   0.506650 0.326310 0.587930 -0.564535
O8    O     O_R   0.493350 0.673690 0.412070 -0.564538
N3    N     N_3   0.117900 0.637255 0.966544 -0.613688
H19   H     H_    0.056327 0.601773 0.019630 0.218346
H20   H     H_    0.076409 0.714416 0.934652 0.218823
N4    N     N_3   0.882098 0.362792 0.033443 -0.613687
H21   H     H_    0.943665 0.398284 0.980356 0.218348
H22   H     H_    0.923595 0.285631 0.065327 0.218822
F1    F     F_    0.757667 0.210828 0.619294 -0.679883
F2    F     F_    0.242336 0.789170 0.380695 -0.679884
N5    N     N_3   0.251656 0.220698 0.863699 -0.558471
H23   H     H_    0.272162 0.219855 0.944431 0.190272
H24   H     H_    0.181720 0.155733 0.849376 0.242531
N6    N     N_3   0.748349 0.779340 0.136328 -0.558426
H25   H     H_    0.818311 0.844297 0.150620 0.242503
H26   H     H_    0.727797 0.780179 0.055598 0.190266
F3    F     F_    0.181191 0.266647 0.656871 -0.658240
F4    F     F_    0.818820 0.733371 0.343147 -0.658230

loop_
_geom_bond_atom_site_label_1
_geom_bond_atom_site_label_2
_ccdc_geom_bond_type
C15   N3    S    
C40   H14   S    
Cu1   O5    S    
C7    N5    S    
C24   O8    A    
C27   H8    S    
C39   C41   A    
Cu1   Cu2   S    
C3    C43   A    
C28   C29   S    
C19   C21   A    
Cu2   N2    S    
C2    O2    A    
N4    H22   S    
C20   C25   A    
C5    C36   S    
C6    C35   S    
C7    C9    A    
C19   C26   A    
Cu2   O3    S    
C33   C35   A    
C38   H12   S    
C7    C17   A    
Cu1   O1    S    
C31   C33   A    
C16   N4    S    
C40   C42   A    
C1    C22   S    
C27   C30   S    
C3    C24   S    
C23   O7    A    
N6    H26   S    
C23   O5    A    
C4    C6    A    
C9    F3    S    
C4    C23   S    
N6    H25   S    
C4    C44   A    
C11   C26   S    
C44   H16   S    
C43   H15   S    
C8    C18   A    
Cu1   O8    S    
C32   C34   A    
N3    H19   S    
Cu2   O2    S    
N3    H20   S    
N5    H23   S    
C39   H13   S    
C2    C21   S    
C41   H1    S    
C16   C18   A    
C42   H2    S    
C9    C11   A    
C10   C12   A    
C13   H3    S    
C8    C10   A    
N5    H24   S    
C5    C44   A    
C20   C22   A    
C6    C43   A    
C13   C15   A    
Cu1   N1    S    
C14   C16   A    
C24   O6    A    
C15   C17   A    
C21   C25   A    
C31   C41   A    
C35   C37   A    
Cu1   O4    S    
N4    H21   S    
Cu2   O6    S    
C12   C14   A    
C3    C5    A    
C28   H7    S    
C12   C25   S    
C36   C38   A    
C20   H6    S    
C17   H17   S    
C38   C40   A    
C11   C13   A    
C18   H18   S    
C14   H4    S    
C1    O1    A    
C34   C36   A    
C8    N6    S    
C1    O3    A    
C30   N1    T    
C29   N2    T    
C19   H5    S    
C10   F4    S    
C37   C39   A    
C22   C26   A    
C27   C28   D    
C32   C42   A    
C34   F2    S    
C31   H9    S    
C2    O4    A    
C33   F1    S    
C32   H10   S    
Cu2   O7    S    
C37   H11   S    
