data_mof_unit_65044.cif
_audit_creation_date              2012-10-26T18:12:36-0400
_audit_creation_method            fapswitch 2.2
_symmetry_space_group_name_H-M    P1
_symmetry_Int_Tables_number       1
_space_group_crystal_system       triclinic
_cell_length_a                    36.251822
_cell_length_b                    29.370607
_cell_length_c                    21.761001
_cell_angle_alpha                 88.455223
_cell_angle_beta                  125.919226
_cell_angle_gamma                 91.304079
_cell_volume                      18756.4050348

loop_
_atom_site_label
_atom_site_type_symbol
_atom_type_description
_atom_site_fract_x
_atom_site_fract_y
_atom_site_fract_z
_atom_type_partial_charge
C1    C     C_R   0.914440 0.999837 0.914443 0.537059
C2    C     C_1   0.229348 0.000420 0.230335 -0.007148
C3    C     C_3   0.454435 0.504855 0.238646 -0.226267
C4    C     C_1   0.863313 0.999565 0.862980 -0.064451
C5    C     C_1   0.136687 0.000435 0.137020 -0.064451
C6    C     C_1   0.363313 0.499565 0.862980 -0.064451
C7    C     C_1   0.636687 0.500435 0.137020 -0.064451
C8    C     C_3   0.923139 0.947236 0.749091 -0.415700
C9    C     C_3   0.076861 0.052764 0.250909 -0.415700
C10   C     C_3   0.072151 0.937918 0.258870 -0.415841
C11   C     C_3   0.927849 0.062082 0.741130 -0.415841
C12   C     C_3   0.423139 0.447236 0.749091 -0.415699
C13   C     C_1   0.270652 0.499580 0.769665 -0.007148
C14   C     C_3   0.576861 0.552764 0.250909 -0.415700
C15   C     C_3   0.572151 0.437918 0.258870 -0.415841
C16   C     C_3   0.427849 0.562082 0.741130 -0.415841
C17   C     C_3   0.910724 0.970813 0.611931 -0.372138
C18   C     C_3   0.089276 0.029187 0.388069 -0.372138
C19   C     C_3   0.062394 0.926694 0.382789 -0.360112
C20   C     C_3   0.937606 0.073305 0.617211 -0.360112
C21   C     C_3   0.410724 0.470813 0.611931 -0.372138
C22   C     C_3   0.589276 0.529187 0.388069 -0.372138
C23   C     C_3   0.562394 0.426694 0.382789 -0.360112
C24   C     C_1   0.729348 0.500420 0.230335 -0.007148
C25   C     C_3   0.437606 0.573305 0.617211 -0.360112
C26   C     C_R   0.974699 0.915301 0.660434 0.039054
C27   C     C_R   0.010727 0.887212 0.717468 -0.113803
C28   C     C_R   0.016037 0.842525 0.703630 -0.110971
C29   C     C_R   0.985647 0.824000 0.632440 -0.099780
C30   C     C_R   0.951356 0.850965 0.573867 -0.118867
C31   C     C_R   0.947218 0.896302 0.586505 -0.070668
C32   C     C_R   0.025301 0.084699 0.339566 0.039054
C33   C     C_R   0.989273 0.112788 0.282532 -0.113803
C34   C     C_R   0.983963 0.157475 0.296370 -0.110971
C35   C     C_1   0.728245 0.999668 0.727025 -0.005977
C36   C     C_R   0.014353 0.176000 0.367560 -0.099780
C37   C     C_R   0.048644 0.149035 0.426132 -0.118867
C38   C     C_R   0.052782 0.103698 0.413495 -0.070668
C39   C     C_R   0.984971 0.904086 0.286498 0.007793
C40   C     C_R   0.951056 0.902850 0.299712 -0.116159
C41   C     C_R   0.923888 0.864255 0.284833 -0.116653
C42   C     C_R   0.930374 0.824923 0.258340 -0.096524
C43   C     C_R   0.964559 0.823872 0.247728 -0.108655
C44   C     C_R   0.991777 0.862343 0.262555 -0.109415
C45   C     C_R   0.015029 0.095914 0.713502 0.007793
C46   C     C_1   0.271755 0.000332 0.272975 -0.005977
C47   C     C_R   0.048944 0.097150 0.700288 -0.116159
C48   C     C_R   0.076112 0.135745 0.715167 -0.116653
C49   C     C_R   0.069626 0.175077 0.741660 -0.096524
C50   C     C_R   0.035441 0.176128 0.752271 -0.108655
C51   C     C_R   0.008223 0.137657 0.737445 -0.109415
C52   C     C_R   0.474699 0.415301 0.660434 0.039054
C53   C     C_R   0.510727 0.387212 0.717468 -0.113803
C54   C     C_R   0.516037 0.342525 0.703630 -0.110971
C55   C     C_R   0.485647 0.324000 0.632440 -0.099780
C56   C     C_R   0.451356 0.350965 0.573867 -0.118867
C57   C     C_1   0.228245 0.499668 0.727025 -0.005977
C58   C     C_R   0.447218 0.396302 0.586505 -0.070668
C59   C     C_R   0.525301 0.584699 0.339566 0.039054
C60   C     C_R   0.489272 0.612788 0.282532 -0.113803
C61   C     C_R   0.483963 0.657475 0.296370 -0.110971
C62   C     C_R   0.514353 0.676000 0.367560 -0.099781
C63   C     C_R   0.548644 0.649035 0.426132 -0.118866
C64   C     C_R   0.552782 0.603698 0.413495 -0.070668
C65   C     C_R   0.484971 0.404086 0.286498 0.007793
C66   C     C_R   0.451055 0.402850 0.299712 -0.116159
C67   C     C_R   0.423888 0.364255 0.284833 -0.116653
C68   C     C_1   0.771755 0.500332 0.272975 -0.005977
C69   C     C_R   0.430374 0.324923 0.258340 -0.096524
C70   C     C_R   0.464559 0.323872 0.247728 -0.108656
C71   C     C_R   0.491777 0.362343 0.262555 -0.109415
C72   C     C_R   0.515029 0.595914 0.713502 0.007793
C73   C     C_R   0.548944 0.597150 0.700288 -0.116159
C74   C     C_R   0.576112 0.635745 0.715167 -0.116653
C75   C     C_R   0.569626 0.675077 0.741660 -0.096524
C76   C     C_R   0.535441 0.676128 0.752271 -0.108655
C77   C     C_R   0.508223 0.637657 0.737445 -0.109415
C78   C     C_3   0.074147 0.957427 0.890188 -0.379311
C79   C     C_1   0.677975 0.999791 0.676616 -0.040047
C80   C     C_3   0.925853 0.042573 0.109812 -0.379311
C81   C     C_3   0.922372 0.959530 0.118627 -0.396503
C82   C     C_3   0.077628 0.040470 0.881373 -0.396504
C83   C     C_3   0.574147 0.457427 0.890188 -0.379311
C84   C     C_3   0.425853 0.542573 0.109812 -0.379311
C85   C     C_3   0.422372 0.459530 0.118627 -0.396503
C86   C     C_3   0.577628 0.540470 0.881373 -0.396504
C87   C     C_1   0.322025 0.000209 0.323384 -0.040047
C88   C     C_1   0.177975 0.499791 0.676616 -0.040047
C89   C     C_R   0.085560 0.000163 0.085556 0.537058
C90   C     C_1   0.822025 0.500209 0.323384 -0.040047
C91   C     C_1   0.635562 0.999894 0.634341 -0.039218
C92   C     C_1   0.364438 0.000106 0.365659 -0.039217
C93   C     C_1   0.135562 0.499894 0.634341 -0.039218
C94   C     C_1   0.864438 0.500106 0.365659 -0.039217
C95   C     C_R   0.999945 0.914514 0.498085 0.557786
C96   C     C_R   0.000054 0.085486 0.501915 0.557786
C97   C     C_R   0.499945 0.414514 0.498085 0.557786
C98   C     C_R   0.500054 0.585486 0.501915 0.557786
C99   C     C_R   0.999258 0.002547 0.620325 0.556482
C100  C     C_R   0.414440 0.499837 0.914443 0.537059
C101  C     C_R   0.000742 0.997453 0.379674 0.556482
C102  C     C_R   0.499258 0.502547 0.620325 0.556482
C103  C     C_R   0.500742 0.497453 0.379674 0.556482
C104  C     C_R   0.500035 0.084430 0.499260 0.538890
C105  C     C_R   0.499965 0.915570 0.500740 0.538890
C106  C     C_R   0.000035 0.584430 0.499260 0.538890
C107  C     C_R   0.999965 0.415570 0.500740 0.538890
C108  C     C_R   0.584400 0.999997 0.583961 0.539128
C109  C     C_R   0.415600 0.000003 0.416039 0.539128
C110  C     C_R   0.084400 0.499997 0.583961 0.539128
C111  C     C_R   0.585560 0.500163 0.085556 0.537058
C112  C     C_R   0.915600 0.500003 0.416039 0.539128
C113  C     C_1   0.000074 0.863468 0.495273 -0.041409
C114  C     C_1   0.999926 0.136532 0.504727 -0.041410
C115  C     C_1   0.500074 0.363468 0.495273 -0.041409
C116  C     C_1   0.499926 0.636532 0.504727 -0.041410
C117  C     C_R   0.996427 0.000604 0.875909 0.568647
C118  C     C_R   0.003573 0.999396 0.124091 0.568647
C119  C     C_R   0.496426 0.500604 0.875909 0.568647
C120  C     C_R   0.503573 0.499396 0.124091 0.568647
C121  C     C_1   0.000236 0.821092 0.494052 -0.043531
C122  C     C_1   0.820914 0.999523 0.820273 -0.049166
C123  C     C_1   0.999764 0.178908 0.505948 -0.043531
C124  C     C_1   0.500236 0.321092 0.494052 -0.043531
C125  C     C_1   0.499764 0.678908 0.505948 -0.043531
C126  C     C_1   0.000222 0.770817 0.494097 -0.016028
C127  C     C_1   0.999778 0.229183 0.505903 -0.016028
C128  C     C_1   0.500222 0.270817 0.494097 -0.016028
C129  C     C_1   0.499778 0.729183 0.505903 -0.016028
C130  C     C_1   0.500170 0.228389 0.494851 -0.011826
C131  C     C_1   0.499830 0.771611 0.505149 -0.011826
C132  C     C_1   0.000170 0.728389 0.494851 -0.011826
C133  C     C_1   0.179086 0.000477 0.179727 -0.049166
C134  C     C_1   0.999830 0.271611 0.505149 -0.011826
C135  C     C_1   0.500110 0.178076 0.496184 -0.041648
C136  C     C_1   0.499890 0.821924 0.503816 -0.041648
C137  C     C_1   0.000110 0.678076 0.496184 -0.041648
C138  C     C_1   0.999890 0.321924 0.503816 -0.041648
C139  C     C_1   0.500070 0.135635 0.497500 -0.040075
C140  C     C_1   0.499930 0.864365 0.502500 -0.040075
C141  C     C_1   0.000070 0.635635 0.497500 -0.040075
C142  C     C_1   0.999930 0.364365 0.502500 -0.040075
C143  C     C_3   0.967334 0.959931 0.755149 -0.094799
C144  C     C_1   0.320914 0.499523 0.820273 -0.049166
C145  C     C_3   0.032666 0.040069 0.244851 -0.094799
C146  C     C_3   0.024973 0.951320 0.239105 -0.087650
C147  C     C_3   0.975026 0.048680 0.760895 -0.087650
C148  C     C_3   0.467334 0.459931 0.755149 -0.094799
C149  C     C_3   0.532666 0.540069 0.244851 -0.094799
C150  C     C_3   0.524973 0.451320 0.239105 -0.087650
C151  C     C_3   0.475026 0.548680 0.760895 -0.087650
C152  C     C_3   0.962667 0.962823 0.677831 0.032337
C153  C     C_3   0.037333 0.037177 0.322169 0.032337
C154  C     C_3   0.018932 0.945323 0.306238 0.016320
C155  C     C_1   0.679086 0.500477 0.179727 -0.049166
C156  C     C_3   0.981068 0.054677 0.693762 0.016320
C157  C     C_3   0.462667 0.462823 0.677831 0.032337
C158  C     C_3   0.537333 0.537177 0.322169 0.032337
C159  C     C_3   0.518932 0.445323 0.306238 0.016320
C160  C     C_3   0.481068 0.554677 0.693762 0.016320
C161  C     C_3   0.047374 0.998529 0.834477 -0.013624
C162  C     C_3   0.952626 0.001471 0.165522 -0.013624
C163  C     C_3   0.547374 0.498529 0.834477 -0.013624
C164  C     C_3   0.452626 0.501471 0.165522 -0.013624
C165  C     C_3   0.995808 0.001955 0.807121 0.061025
C166  C     C_1   0.770652 0.999580 0.769665 -0.007148
C167  C     C_3   0.004192 0.998045 0.192879 0.061025
C168  C     C_3   0.495808 0.501955 0.807121 0.061025
C169  C     C_3   0.504192 0.498045 0.192879 0.061025
C170  C     C_3   0.996458 0.004304 0.686167 0.030758
C171  C     C_3   0.003542 0.995696 0.313833 0.030758
C172  C     C_3   0.496458 0.504304 0.686167 0.030758
C173  C     C_3   0.503542 0.495696 0.313833 0.030758
C174  C     C_3   0.045565 0.995145 0.761354 -0.226267
C175  C     C_3   0.954435 0.004855 0.238646 -0.226267
C176  C     C_3   0.545565 0.495145 0.761354 -0.226267
Cu1   Cu    Cu3+1 0.000000 0.957500 0.000000 0.877270
Cu2   Cu    Cu3+1 0.500030 0.000000 0.562500 0.934462
Cu3   Cu    Cu3+1 0.999970 0.500000 0.437500 0.934462
Cu4   Cu    Cu3+1 0.000030 0.500000 0.562500 0.934462
Cu5   Cu    Cu3+1 0.000000 0.042500 0.000000 0.877269
Cu6   Cu    Cu3+1 0.500000 0.457500 0.000000 0.877269
Cu7   Cu    Cu3+1 0.500000 0.542500 0.000000 0.877270
Cu8   Cu    Cu3+1 0.957500 0.000000 0.457520 0.872472
Cu9   Cu    Cu3+1 0.042500 0.000000 0.542480 0.872472
Cu10  Cu    Cu3+1 0.457500 0.500000 0.457520 0.872472
Cu11  Cu    Cu3+1 0.542500 0.500000 0.542480 0.872472
Cu12  Cu    Cu3+1 0.499970 0.000000 0.437500 0.934462
H1    H     H_    0.986998 0.929621 0.786427 0.136469
H2    H     H_    0.941892 0.037952 0.241713 0.123149
H3    H     H_    0.555436 0.569513 0.677821 0.147533
H4    H     H_    0.601983 0.635247 0.705020 0.107273
H5    H     H_    0.590555 0.704968 0.752679 0.109795
H6    H     H_    0.529526 0.707048 0.771148 0.107201
H7    H     H_    0.481132 0.641222 0.743957 0.096533
H8    H     H_    0.086815 0.965643 0.949182 0.154939
H9    H     H_    0.054662 0.925695 0.878770 0.118520
H10   H     H_    0.104596 0.949614 0.891889 0.116872
H11   H     H_    0.945338 0.074305 0.121230 0.118520
H12   H     H_    0.913185 0.034357 0.050818 0.154940
H13   H     H_    0.928666 0.981535 0.234221 0.125244
H14   H     H_    0.895404 0.050385 0.108111 0.116872
H15   H     H_    0.922757 0.954010 0.068769 0.154233
H16   H     H_    0.931626 0.927309 0.150887 0.139616
H17   H     H_    0.886317 0.965240 0.096663 0.126911
H18   H     H_    0.068373 0.072691 0.849113 0.139616
H19   H     H_    0.077243 0.045990 0.931231 0.154233
H20   H     H_    0.113683 0.034759 0.903337 0.126911
H21   H     H_    0.586815 0.465643 0.949182 0.154939
H22   H     H_    0.554662 0.425695 0.878770 0.118520
H23   H     H_    0.604596 0.449614 0.891889 0.116872
H24   H     H_    0.071334 0.018465 0.765779 0.125244
H25   H     H_    0.445338 0.574305 0.121230 0.118520
H26   H     H_    0.413185 0.534357 0.050818 0.154940
H27   H     H_    0.395404 0.550385 0.108111 0.116872
H28   H     H_    0.422757 0.454010 0.068769 0.154233
H29   H     H_    0.431626 0.427309 0.150887 0.139616
H30   H     H_    0.386317 0.465241 0.096663 0.126911
H31   H     H_    0.568373 0.572691 0.849113 0.139616
H32   H     H_    0.577243 0.545990 0.931231 0.154233
H33   H     H_    0.613683 0.534759 0.903337 0.126911
H34   H     H_    0.558108 0.462048 0.758287 0.123149
H35   H     H_    0.441892 0.537952 0.241713 0.123149
H36   H     H_    0.428666 0.481535 0.234221 0.125244
H37   H     H_    0.571334 0.518465 0.765779 0.125244
H38   H     H_    0.899664 0.976015 0.731194 0.128558
H39   H     H_    0.904854 0.918532 0.709787 0.128178
H40   H     H_    0.930821 0.934185 0.803617 0.164291
H41   H     H_    0.013002 0.070379 0.213572 0.136469
H42   H     H_    0.100336 0.023985 0.268806 0.128558
H43   H     H_    0.069179 0.065815 0.196383 0.164291
H44   H     H_    0.095145 0.081468 0.290213 0.128178
H45   H     H_    0.075568 0.947485 0.212846 0.156213
H46   H     H_    0.101588 0.952333 0.311357 0.125122
H47   H     H_    0.076363 0.900439 0.266365 0.114239
H48   H     H_    0.898412 0.047667 0.688642 0.125122
H49   H     H_    0.924432 0.052515 0.787154 0.156213
H50   H     H_    0.923636 0.099561 0.733634 0.114239
H51   H     H_    0.399664 0.476015 0.731194 0.128558
H52   H     H_    0.003354 0.925597 0.195788 0.145872
H53   H     H_    0.404854 0.418532 0.709787 0.128177
H54   H     H_    0.430821 0.434185 0.803617 0.164291
H55   H     H_    0.600336 0.523985 0.268806 0.128558
H56   H     H_    0.569179 0.565815 0.196383 0.164291
H57   H     H_    0.595145 0.581468 0.290213 0.128178
H58   H     H_    0.575568 0.447485 0.212846 0.156213
H59   H     H_    0.601588 0.452333 0.311357 0.125122
H60   H     H_    0.576363 0.400439 0.266365 0.114239
H61   H     H_    0.398412 0.547667 0.688642 0.125122
H62   H     H_    0.424432 0.552515 0.787154 0.156213
H63   H     H_    0.996645 0.074402 0.804212 0.145872
H64   H     H_    0.423636 0.599561 0.733634 0.114239
H65   H     H_    0.890582 0.938851 0.598512 0.107309
H66   H     H_    0.893442 0.993317 0.626169 0.121611
H67   H     H_    0.903415 0.982998 0.557549 0.145558
H68   H     H_    0.109418 0.061149 0.401488 0.107309
H69   H     H_    0.096585 0.017001 0.442451 0.145557
H70   H     H_    0.106558 0.006683 0.373831 0.121611
H71   H     H_    0.055762 0.922178 0.426324 0.153984
H72   H     H_    0.071761 0.892525 0.375665 0.119032
H73   H     H_    0.094122 0.945775 0.408697 0.114402
H74   H     H_    0.486998 0.429621 0.786427 0.136469
H75   H     H_    0.928239 0.107475 0.624335 0.119032
H76   H     H_    0.944238 0.077822 0.573676 0.153984
H77   H     H_    0.905878 0.054225 0.591303 0.114402
H78   H     H_    0.390582 0.438851 0.598512 0.107309
H79   H     H_    0.393442 0.493317 0.626169 0.121611
H80   H     H_    0.403415 0.482998 0.557549 0.145558
H81   H     H_    0.609418 0.561149 0.401488 0.107309
H82   H     H_    0.596585 0.517002 0.442451 0.145557
H83   H     H_    0.606558 0.506683 0.373831 0.121611
H84   H     H_    0.555762 0.422178 0.426324 0.153984
H85   H     H_    0.513002 0.570379 0.213572 0.136469
H86   H     H_    0.571761 0.392525 0.375665 0.119032
H87   H     H_    0.594122 0.445775 0.408697 0.114402
H88   H     H_    0.428239 0.607475 0.624335 0.119032
H89   H     H_    0.444238 0.577822 0.573676 0.153984
H90   H     H_    0.405878 0.554225 0.591303 0.114402
H91   H     H_    0.034924 0.898208 0.774142 0.086289
H92   H     H_    0.043434 0.821906 0.748975 0.108097
H93   H     H_    0.989221 0.789053 0.622260 0.119076
H94   H     H_    0.928322 0.837006 0.517734 0.108440
H95   H     H_    0.921097 0.915499 0.537288 0.120047
H96   H     H_    0.503355 0.425598 0.195788 0.145872
H97   H     H_    0.965075 0.101791 0.225858 0.086289
H98   H     H_    0.956566 0.178094 0.251025 0.108097
H99   H     H_    0.010779 0.210947 0.377740 0.119076
H100  H     H_    0.071678 0.162994 0.482266 0.108440
H101  H     H_    0.078903 0.084501 0.462712 0.120047
H102  H     H_    0.944564 0.930486 0.322179 0.147533
H103  H     H_    0.898017 0.864753 0.294980 0.107273
H104  H     H_    0.909445 0.795032 0.247320 0.109795
H105  H     H_    0.970474 0.792952 0.228852 0.107201
H106  H     H_    0.018867 0.858778 0.256042 0.096533
H107  H     H_    0.496645 0.574402 0.804212 0.145872
H108  H     H_    0.055436 0.069514 0.677821 0.147533
H109  H     H_    0.101983 0.135247 0.705020 0.107273
H110  H     H_    0.090555 0.204968 0.752679 0.109795
H111  H     H_    0.029526 0.207048 0.771148 0.107201
H112  H     H_    0.981132 0.141222 0.743957 0.096533
H113  H     H_    0.534924 0.398208 0.774142 0.086289
H114  H     H_    0.543434 0.321906 0.748975 0.108097
H115  H     H_    0.489221 0.289053 0.622260 0.119076
H116  H     H_    0.428322 0.337006 0.517734 0.108440
H117  H     H_    0.421097 0.415499 0.537288 0.120047
H118  H     H_    0.058108 0.962048 0.758287 0.123149
H119  H     H_    0.465075 0.601792 0.225858 0.086289
H120  H     H_    0.456566 0.678094 0.251025 0.108097
H121  H     H_    0.510779 0.710947 0.377740 0.119076
H122  H     H_    0.571678 0.662994 0.482266 0.108440
H123  H     H_    0.578903 0.584501 0.462712 0.120047
H124  H     H_    0.444564 0.430486 0.322179 0.147533
H125  H     H_    0.398017 0.364753 0.294980 0.107273
H126  H     H_    0.409445 0.295032 0.247320 0.109795
H127  H     H_    0.470474 0.292952 0.228852 0.107201
H128  H     H_    0.518867 0.358778 0.256042 0.096533
O1    O     O_R   0.938020 0.964110 0.938040 -0.492259
O2    O     O_R   0.000010 0.035890 0.091160 -0.515279
O3    O     O_R   0.000010 0.964110 0.091160 -0.516653
O4    O     O_R   0.999990 0.035890 0.908840 -0.516652
O5    O     O_R   0.499990 0.464110 0.908840 -0.515279
O6    O     O_R   0.500010 0.535890 0.091160 -0.515279
O7    O     O_R   0.500010 0.464110 0.091160 -0.516653
O8    O     O_R   0.499990 0.535890 0.908840 -0.516652
O9    O     O_R   0.964100 0.938030 0.464100 -0.503874
O10   O     O_R   0.035900 0.061970 0.535900 -0.503873
O11   O     O_R   0.035900 0.938030 0.535900 -0.483953
O12   O     O_R   0.061980 0.035890 0.061960 -0.492259
O13   O     O_R   0.964100 0.061970 0.464100 -0.483953
O14   O     O_R   0.464100 0.438030 0.464100 -0.503874
O15   O     O_R   0.535900 0.561970 0.535900 -0.503873
O16   O     O_R   0.535900 0.438030 0.535900 -0.483953
O17   O     O_R   0.464100 0.561970 0.464100 -0.483953
O18   O     O_R   0.964110 1.000000 0.555280 -0.515261
O19   O     O_R   0.035890 0.000000 0.444720 -0.515260
O20   O     O_R   0.464110 0.500000 0.555280 -0.515261
O21   O     O_R   0.535890 0.500000 0.444720 -0.515260
O22   O     O_R   0.035850 1.000000 0.627010 -0.522567
O23   O     O_R   0.061980 0.964110 0.061960 -0.490379
O24   O     O_R   0.964150 1.000000 0.372990 -0.522567
O25   O     O_R   0.535850 0.500000 0.627010 -0.522567
O26   O     O_R   0.464150 0.500000 0.372990 -0.522567
O27   O     O_R   0.499940 0.061950 0.447200 -0.483829
O28   O     O_R   0.500060 0.938050 0.552800 -0.483830
O29   O     O_R   0.500060 0.061950 0.552800 -0.484188
O30   O     O_R   0.499940 0.938050 0.447200 -0.484189
O31   O     O_R   0.999940 0.561950 0.447200 -0.483829
O32   O     O_R   0.000060 0.438050 0.552800 -0.483830
O33   O     O_R   0.000060 0.561950 0.552800 -0.484188
O34   O     O_R   0.938020 0.035890 0.938040 -0.490378
O35   O     O_R   0.999940 0.438050 0.447200 -0.484189
O36   O     O_R   0.561950 1.000000 0.509180 -0.484041
O37   O     O_R   0.438050 0.000000 0.490820 -0.484042
O38   O     O_R   0.061950 0.500000 0.509180 -0.484041
O39   O     O_R   0.938050 0.500000 0.490820 -0.484042
O40   O     O_R   0.561950 0.000000 0.614710 -0.483841
O41   O     O_R   0.438050 0.000000 0.385290 -0.483842
O42   O     O_R   0.061950 0.500000 0.614710 -0.483841
O43   O     O_R   0.938050 0.500000 0.385290 -0.483842
O44   O     O_R   0.438020 0.464110 0.938040 -0.492259
O45   O     O_R   0.561980 0.535890 0.061960 -0.492259
O46   O     O_R   0.561980 0.464110 0.061960 -0.490379
O47   O     O_R   0.438020 0.535890 0.938040 -0.490378
O48   O     O_R   0.999990 0.964110 0.908840 -0.515279

loop_
_geom_bond_atom_site_label_1
_geom_bond_atom_site_label_2
_ccdc_geom_bond_type
C3    H36   S    
Cu12  O30   S    
C136  C140  T    
C54   H114  S    
C16   H64   S    
C62   H121  S    
C135  C139  T    
C10   H47   S    
Cu5   O2    S    
C151  H107  S    
Cu7   O45   S    
C19   H71   S    
C104  O29   A    
C30   H94   S    
C73   C74   A    
Cu6   Cu7   S    
C137  C141  T    
C23   H87   S    
C120  O6    A    
C1    O1    A    
C68   C90   S    
C115  C124  T    
C97   C115  S    
C105  O28   A    
C93   C110  S    
Cu2   Cu12  S    
C59   C60   A    
C44   H106  S    
C96   O10   A    
C96   C114  S    
C112  O43   A    
C70   H127  S    
C51   H112  S    
C28   H92   S    
C41   H103  S    
C102  C172  S    
C23   H84   S    
C150  C159  S    
C39   C154  S    
C8    H38   S    
C1    O34   A    
C18   H68   S    
C132  C137  S    
C109  O41   A    
C31   H95   S    
C75   C76   A    
C37   C38   A    
Cu12  O41   S    
C152  C170  S    
C146  C154  S    
C160  C172  S    
C4    C122  T    
C86   H32   S    
C83   H21   S    
C52   C58   A    
C3    C164  S    
C14   H56   S    
C146  H52   S    
C12   H54   S    
C43   H105  S    
C43   C44   A    
C107  O32   A    
C95   O11   A    
C170  C174  S    
C10   H45   S    
C101  O19   A    
C72   C73   A    
C77   H7    S    
Cu4   O33   S    
Cu9   O11   S    
C105  C140  S    
C161  C174  S    
C14   C149  S    
C156  C170  S    
C16   C151  S    
C69   C70   A    
C92   C109  S    
C125  C129  S    
C15   H60   S    
C85   C164  S    
C86   C163  S    
C78   H10   S    
C148  H74   S    
Cu5   O34   S    
C161  C165  S    
C22   H83   S    
C146  C167  S    
C98   O17   A    
C81   C162  S    
Cu2   O40   S    
C127  C134  T    
C11   C147  S    
C82   H20   S    
C8    H40   S    
C53   C54   A    
C5    C133  T    
C118  O2    A    
C176  H34   S    
C149  C169  S    
C36   C37   A    
Cu8   O9    S    
C25   H88   S    
C107  O35   A    
C59   C158  S    
C120  C169  S    
C13   C57   T    
C99   O18   A    
C118  C167  S    
Cu8   Cu9   S    
C13   C144  S    
C100  O47   A    
C147  C165  S    
Cu3   O35   S    
C23   C159  S    
C149  C158  S    
C102  O25   A    
C79   C91   T    
C95   O9    A    
Cu7   O8    S    
C20   H76   S    
C89   O23   A    
Cu4   O42   S    
Cu6   O44   S    
C106  O31   A    
C81   H16   S    
C17   H66   S    
C106  O33   A    
Cu8   O18   S    
C131  C136  S    
C39   C40   A    
C112  O39   A    
C66   H124  S    
C162  C175  S    
Cu10  O17   S    
C80   H11   S    
C38   H101  S    
Cu3   Cu4   S    
C9    H42   S    
C6    C100  S    
C85   H30   S    
C29   C30   A    
C123  C127  S    
C15   H58   S    
C126  C132  T    
C143  H1    S    
C153  C171  S    
C45   C156  S    
C78   H8    S    
C80   C162  S    
C76   H6    S    
C21   H78   S    
C10   C146  S    
C114  C123  T    
Cu10  O26   S    
C22   H81   S    
Cu1   O48   S    
C116  C125  T    
Cu6   O46   S    
C6    C144  T    
C100  O44   A    
C52   C53   A    
C46   C87   S    
C145  H41   S    
C54   C55   A    
C52   C157  S    
C3    H35   S    
C102  O20   A    
C25   H90   S    
C99   O22   A    
C16   H61   S    
Cu11  O25   S    
C39   C44   A    
Cu8   O13   S    
C26   C152  S    
C163  C168  S    
Cu10  Cu11  S    
C53   H113  S    
C60   H119  S    
Cu1   Cu5   S    
Cu12  O36   S    
C35   C79   S    
C56   C58   A    
C154  C171  S    
C8    C143  S    
C34   C36   A    
C148  C157  S    
C61   C62   A    
C108  O36   A    
C5    C89   S    
Cu4   O32   S    
C63   C64   A    
Cu7   O6    S    
C113  C121  T    
Cu10  O14   S    
C78   C161  S    
C49   C50   A    
C64   H123  S    
C172  C176  S    
C104  O27   A    
C55   C56   A    
C41   C42   A    
C130  C135  S    
C82   H18   S    
C175  H2    S    
C99   C170  S    
C84   H25   S    
C11   H50   S    
C147  H63   S    
C26   C27   A    
C9    H44   S    
C28   C29   A    
C58   H117  S    
C30   C31   A    
C35   C166  T    
C105  O30   A    
Cu9   O22   S    
C143  C165  S    
C109  O37   A    
C108  O40   A    
C21   H80   S    
Cu5   O12   S    
Cu11  O16   S    
C80   H14   S    
C117  C165  S    
C119  O5    A    
C40   H102  S    
C70   C71   A    
C86   H33   S    
C84   H27   S    
C71   H128  S    
C124  C128  S    
C14   H57   S    
C45   C47   A    
C96   O13   A    
C87   C92   T    
C103  O26   A    
C90   C94   T    
C10   H46   S    
C2    C133  S    
Cu3   O43   S    
C138  C142  T    
C85   H28   S    
C19   H72   S    
C22   C158  S    
Cu3   O31   S    
C60   C61   A    
C149  H85   S    
C50   H111  S    
Cu9   O10   S    
C158  C173  S    
Cu10  O20   S    
Cu3   O38   S    
C50   C51   A    
C63   H122  S    
C150  H96   S    
C147  C156  S    
C48   C49   A    
Cu12  O27   S    
C15   H59   S    
Cu8   O24   S    
C101  O24   A    
C148  C168  S    
C17   C152  S    
Cu1   O1    S    
C42   C43   A    
C48   H109  S    
C106  C141  S    
C145  C167  S    
C11   H48   S    
C83   C163  S    
Cu6   O7    S    
C117  O48   A    
C91   C108  S    
Cu7   O47   S    
C128  C130  T    
C117  O4    A    
C14   H55   S    
C110  O42   A    
C118  O3    A    
Cu2   O29   S    
C104  C139  S    
C32   C33   A    
C103  O21   A    
C157  C172  S    
C55   H115  S    
C56   H116  S    
C9    C145  S    
C7    C111  S    
C101  C171  S    
C86   H31   S    
C49   H110  S    
C18   H70   S    
C83   H22   S    
C24   C68   T    
C32   C153  S    
C150  C169  S    
C7    C155  T    
C29   H93   S    
C12   H53   S    
C19   C154  S    
C36   H99   S    
C119  C168  S    
C15   C150  S    
Cu11  O21   S    
C122  C166  S    
C174  H118  S    
Cu4   O39   S    
C65   C159  S    
Cu1   O23   S    
C81   H15   S    
C2    C46   T    
C176  H37   S    
C17   H65   S    
C59   C64   A    
C62   C63   A    
C174  H24   S    
C20   H75   S    
C23   H86   S    
C120  O7    A    
C45   C51   A    
C151  C168  S    
C80   H12   S    
C34   H98   S    
C98   O15   A    
C103  C173  S    
C94   C112  S    
C85   H29   S    
C3    C173  S    
C12   H51   S    
C67   H125  S    
C18   H69   S    
Cu1   O3    S    
C78   H9    S    
C32   C38   A    
Cu9   O19   S    
C84   C164  S    
C24   C155  S    
C97   O14   A    
C145  C153  S    
C22   H82   S    
C26   C31   A    
Cu6   O5    S    
C164  C169  S    
C25   C160  S    
C163  C176  S    
C37   H100  S    
C82   H19   S    
C8    H39   S    
C84   H26   S    
C17   H67   S    
Cu5   O4    S    
C42   H104  S    
C74   C75   A    
C76   C77   A    
C175  H13   S    
C25   H89   S    
C16   H62   S    
C27   H91   S    
C65   C71   A    
C171  C175  S    
C67   C69   A    
C72   C77   A    
C19   H73   S    
C98   C116  S    
C47   C48   A    
Cu2   O28   S    
C111  O46   A    
C33   C34   A    
C107  C142  S    
C47   H108  S    
C73   H3    S    
C18   C153  S    
C74   H4    S    
C75   H5    S    
C40   C41   A    
C111  O45   A    
C65   C66   A    
C61   H120  S    
C81   H17   S    
C110  O38   A    
C88   C93   T    
C143  C152  S    
C20   C156  S    
C21   C157  S    
C69   H126  S    
C33   H97   S    
C20   H77   S    
C134  C138  S    
C82   C161  S    
C11   H49   S    
C72   C160  S    
C57   C88   S    
C9    H43   S    
C1    C4    S    
C151  C160  S    
C12   C148  S    
C121  C126  S    
C95   C113  S    
C66   C67   A    
C21   H79   S    
C97   O16   A    
C162  C167  S    
Cu11  O15   S    
C119  O8    A    
C159  C173  S    
C27   C28   A    
C89   O12   A    
Cu2   O37   S    
C83   H23   S    
C129  C131  T    
