data_mof_unit_26395.cif
_audit_creation_date              2012-12-10T17:58:21-0500
_audit_creation_method            fapswitch 2.2
_symmetry_space_group_name_H-M    P1
_symmetry_Int_Tables_number       1
_space_group_crystal_system       triclinic
_cell_length_a                    9.661292
_cell_length_b                    10.774677
_cell_length_c                    15.332016
_cell_angle_alpha                 90.079853
_cell_angle_beta                  69.921616
_cell_angle_gamma                 90.029107
_cell_volume                      1499.01996313

loop_
_atom_site_label
_atom_site_type_symbol
_atom_type_description
_atom_site_fract_x
_atom_site_fract_y
_atom_site_fract_z
_atom_type_partial_charge
C1    C     C_R   0.001532 0.262816 0.497239 0.836167
C2    C     C_R   0.998580 0.737201 0.502672 0.832899
C3    C     C_R   0.571314 0.301724 0.096295 -0.121531
C4    C     C_R   0.428765 0.305044 0.903688 -0.111501
C5    C     C_R   0.714637 0.350959 0.054786 -0.099879
C6    C     C_R   0.294488 0.369405 0.941434 -0.162418
C7    C     C_R   0.955648 0.060682 0.431720 -0.018177
C8    C     C_R   0.046696 0.939354 0.567110 -0.011779
C9    C     C_R   0.950446 0.931888 0.439029 -0.225405
C10   C     C_R   0.050671 0.068156 0.560396 -0.208697
C11   C     C_R   0.996857 0.871361 0.504782 -0.112999
C12   C     C_R   0.003770 0.128705 0.494838 -0.118361
C13   C     C_R   0.539480 0.431961 0.563255 0.018458
C14   C     C_R   0.460581 0.567931 0.436690 0.004055
C15   C     C_R   0.391709 0.431910 0.563214 0.050804
C16   C     C_R   0.608321 0.568003 0.436762 0.046015
C17   C     C_R   0.912506 0.495991 0.673565 0.838916
C18   C     C_R   0.087519 0.497564 0.326369 0.817224
C19   C     C_R   0.853621 0.471842 0.774525 -0.084157
C20   C     C_R   0.147150 0.476854 0.224984 -0.047427
C21   C     C_R   0.874099 0.480959 0.927083 -0.104164
C22   C     C_R   0.135522 0.499369 0.070856 -0.149741
C23   C     C_R   0.922601 0.517640 0.833975 -0.059075
C24   C     C_R   0.081080 0.527857 0.165552 -0.139838
C25   C     C_R   0.725032 0.401195 0.811912 -0.184800
C26   C     C_R   0.275422 0.405781 0.187198 -0.161633
C27   C     C_R   0.672779 0.365302 0.906534 0.116212
C28   C     C_R   0.330032 0.373491 0.091999 0.102191
C29   C     C_R   0.756975 0.397249 0.962635 0.049912
C30   C     C_R   0.251419 0.413986 0.034352 0.052388
C31   C     C_R   0.529007 0.317053 0.950870 0.028684
C32   C     C_R   0.471652 0.319671 0.048846 0.006278
Cu1   Cu    Cu3+1 0.140660 0.500020 0.500000 0.998760
Cu2   Cu    Cu3+1 0.859340 0.499980 0.500000 1.001609
H1    H     H_    0.566503 0.376993 0.614168 0.146395
H2    H     H_    0.433702 0.622869 0.385688 0.127314
N1    N     N_R   0.352080 0.500030 0.499980 -0.179183
N2    N     N_R   0.647920 0.499970 0.500020 -0.175755
O1    O     O_R   0.118740 0.319660 0.500000 -0.578282
O2    O     O_R   0.881260 0.680340 0.500000 -0.581186
O3    O     O_R   0.881170 0.319630 0.500010 -0.561172
O4    O     O_R   0.118830 0.680370 0.499990 -0.565052
O5    O     O_R   0.055570 0.500030 0.629830 -0.545890
O6    O     O_R   0.944430 0.499970 0.370170 -0.540463
O7    O     O_R   0.818000 0.500000 0.629840 -0.589865
O8    O     O_R   0.182000 0.500000 0.370160 -0.594412
C33   C     C_2   0.818865 0.350219 0.105821 0.889449
O9    O     O_2   0.795328 0.415762 0.174521 -0.576357
O10   O     O_R   0.937967 0.268216 0.078931 -0.765853
H3    H     H_    0.993434 0.266929 0.124289 0.356277
C34   C     C_2   0.208178 0.396124 0.881338 0.901560
O11   O     O_2   0.228048 0.494201 0.839242 -0.590075
O12   O     O_R   0.114206 0.306890 0.865698 -0.691878
H4    H     H_    0.110840 0.227667 0.901895 0.342309
H5    H     H_    0.331991 0.378321 0.233474 0.162213
H6    H     H_    0.665497 0.378307 0.766250 0.148934
H7    H     H_    0.988569 0.590704 0.192125 0.165674
H8    H     H_    0.013180 0.582270 0.808297 0.205872
H9    H     H_    0.924636 0.521273 0.972165 0.115852
H10   H     H_    0.090019 0.547516 0.026089 0.141108
C35   C     C_2   0.527390 0.221321 0.180875 0.850662
O13   O     O_2   0.592259 0.226175 0.236585 -0.568286
O14   O     O_R   0.408424 0.139784 0.196879 -0.743804
H11   H     H_    0.386821 0.091107 0.256644 0.340773
C36   C     C_2   0.466629 0.223556 0.819522 0.818530
O15   O     O_2   0.398522 0.229375 0.765630 -0.589589
O16   O     O_R   0.582871 0.138943 0.802271 -0.739748
H12   H     H_    0.600053 0.089424 0.743193 0.343693
C37   C     C_2   0.919054 0.118672 0.354226 0.872871
O17   O     O_2   0.972154 0.218676 0.322166 -0.590971
O18   O     O_R   0.828286 0.055608 0.314876 -0.747180
H13   H     H_    0.816259 0.101795 0.260387 0.375294
C38   C     C_2   0.088315 0.880921 0.642470 0.860516
O19   O     O_2   0.032521 0.782872 0.677225 -0.614636
O20   O     O_R   0.188277 0.940888 0.676125 -0.734363
H14   H     H_    0.206799 0.893077 0.727970 0.349998
H15   H     H_    0.916255 0.877321 0.390446 0.176356
H16   H     H_    0.085176 0.122528 0.608954 0.193103
H17   H     H_    0.309424 0.376697 0.614157 0.170986
H18   H     H_    0.690631 0.623193 0.385835 0.129272

loop_
_geom_bond_atom_site_label_1
_geom_bond_atom_site_label_2
_ccdc_geom_bond_type
C23   H8    S    
C27   C29   A    
C38   O19   D    
C25   H6    S    
C26   H5    S    
C10   H16   S    
C33   O10   S    
O12   H4    S    
C5    C33   S    
Cu1   O1    S    
Cu2   O2    S    
Cu1   O4    S    
C17   O7    A    
C13   H1    S    
C37   O17   D    
C22   H10   S    
C4    C36   S    
C37   O18   S    
C35   O14   S    
C15   N1    A    
C1    C12   S    
C31   C32   A    
C24   H7    S    
C36   O16   S    
C6    C34   S    
C18   C20   S    
Cu1   O8    S    
C38   O20   S    
C35   O13   D    
Cu2   O3    S    
C2    C11   S    
C18   O8    A    
C5    C29   A    
C3    C35   S    
C21   C23   A    
C7    C12   A    
C15   H17   S    
C27   C31   A    
C34   O11   D    
Cu1   O5    S    
C20   C24   A    
C28   C32   A    
Cu2   O6    S    
C4    C6    A    
C21   C29   A    
Cu1   N1    S    
O16   H12   S    
C34   O12   S    
C19   C23   A    
O20   H14   S    
C17   O5    A    
C18   O6    A    
C33   O9    D    
Cu1   Cu2   S    
Cu2   O7    S    
C9    H15   S    
C9    C11   A    
C13   N2    A    
C10   C12   A    
C1    O3    A    
C6    C30   A    
O10   H3    S    
C13   C15   A    
C14   C16   A    
C7    C9    A    
C22   C30   A    
Cu2   N2    S    
C3    C5    A    
C7    C37   S    
C21   H9    S    
C25   C27   A    
C26   C28   A    
C28   C30   A    
O18   H13   S    
C14   N1    A    
C14   H2    S    
C20   C26   A    
C2    O4    A    
C8    C11   A    
C8    C38   S    
C17   C19   S    
C22   C24   A    
C3    C32   A    
C19   C25   A    
C4    C31   A    
C1    O1    A    
O14   H11   S    
C2    O2    A    
C8    C10   A    
C36   O15   D    
C16   H18   S    
C16   N2    A    
