data_mof_unit_16506.cif
_audit_creation_date              2012-12-11T16:24:27-0500
_audit_creation_method            fapswitch 2.2
_symmetry_space_group_name_H-M    P1
_symmetry_Int_Tables_number       1
_space_group_crystal_system       triclinic
_cell_length_a                    14.725512
_cell_length_b                    14.748041
_cell_length_c                    33.292531
_cell_angle_alpha                 96.197111
_cell_angle_beta                  96.285212
_cell_angle_gamma                 61.306868
_cell_volume                      6291.52212254

loop_
_atom_site_label
_atom_site_type_symbol
_atom_type_description
_atom_site_fract_x
_atom_site_fract_y
_atom_site_fract_z
_atom_type_partial_charge
C1    C     C_R   0.391391 0.699013 0.445860 0.547632
C2    C     C_1   0.300528 0.341120 0.229919 -0.019287
C3    C     C_3   0.820547 0.515631 0.194403 -0.297858
C4    C     C_3   0.100874 0.831466 0.330991 0.014889
C5    C     C_3   0.101045 0.727453 0.331149 -0.271464
C6    C     C_3   0.010656 0.738176 0.353210 -0.494573
C7    C     C_3   0.615207 0.796002 0.365287 -0.308419
C8    C     C_3   0.108120 0.853693 0.154986 -0.015310
C9    C     C_3   0.091081 0.873092 0.200372 -0.235450
C10   C     C_3   0.976029 0.931124 0.208176 -0.474478
C11   C     C_3   0.175191 0.614149 0.603152 0.021564
C12   C     C_3   0.061288 0.663567 0.612974 -0.274715
C13   C     C_1   0.305676 0.345522 0.266240 -0.019822
C14   C     C_3   0.031201 0.761216 0.640992 -0.490353
C15   C     C_3   0.593487 0.145778 0.662412 0.021007
C16   C     C_3   0.659032 0.044027 0.638375 -0.266455
C17   C     C_3   0.771280 0.022292 0.638288 -0.493278
C18   C     C_3   0.536420 0.105250 0.908808 -0.289361
C19   C     C_3   0.941352 0.044912 0.863441 0.032468
C20   C     C_3   0.893265 0.045750 0.902055 -0.258411
C21   C     C_3   0.832328 0.985427 0.894967 -0.503140
C22   C     C_3   0.082137 0.098550 0.789093 0.016156
C23   C     C_3   0.105813 0.170065 0.766840 -0.283032
C24   C     C_R   0.405548 0.385929 0.434013 0.562162
C25   C     C_3   0.222272 0.126856 0.764097 -0.461481
C26   C     C_3   0.919806 0.447290 0.579770 -0.282187
C27   C     C_3   0.603706 0.158245 0.371411 0.020499
C28   C     C_3   0.647122 0.047249 0.352575 -0.266687
C29   C     C_3   0.746575 0.014648 0.331812 -0.497575
C30   C     C_3   0.150889 0.589062 0.177636 -0.292359
C31   C     C_R   0.290342 0.292776 0.102280 -0.008631
C32   C     C_R   0.742073 0.381382 0.407053 0.027604
C33   C     C_R   0.726200 0.460364 0.382664 -0.124809
C34   C     C_R   0.740266 0.439429 0.341513 -0.120030
C35   C     C_R   0.773061 0.338732 0.324124 0.039878
C36   C     C_R   0.797307 0.257759 0.348818 -0.129653
C37   C     C_R   0.780495 0.279258 0.390111 -0.140035
C38   C     C_R   0.318420 0.347911 0.309472 0.001615
C39   C     C_R   0.804481 0.303452 0.199909 0.347704
C40   C     C_R   0.779526 0.320932 0.280189 0.332846
C41   C     C_R   0.815617 0.390568 0.140467 0.148034
C42   C     C_R   0.699184 0.410894 0.447051 0.537417
C43   C     C_R   0.855940 0.380480 0.102649 0.287018
C44   C     C_R   0.913517 0.195186 0.098929 -0.194806
C45   C     C_R   0.875431 0.204836 0.136299 -0.171357
C46   C     C_R   0.828475 0.301029 0.157885 0.005912
C47   C     C_R   0.906775 0.281551 0.082094 0.002968
C48   C     C_R   0.373905 0.750627 0.408035 -0.050733
C49   C     C_R   0.400322 0.263828 0.328130 -0.091043
C50   C     C_R   0.284088 0.772855 0.382842 -0.146596
C51   C     C_R   0.277198 0.796990 0.342282 0.254976
C52   C     C_R   0.364351 0.795577 0.327590 0.070838
C53   C     C_R   0.451305 0.783106 0.353777 0.102498
C54   C     C_R   0.393506 0.701554 0.561234 0.538047
C55   C     C_R   0.454386 0.761515 0.394090 -0.122130
C56   C     C_R   0.361013 0.815892 0.203281 0.339560
C57   C     C_R   0.365566 0.801786 0.283915 0.371392
C58   C     C_R   0.266237 0.824410 0.135128 0.277156
C59   C     C_R   0.243711 0.857972 0.095619 -0.119258
C60   C     C_R   0.427171 0.271598 0.369716 0.269793
C61   C     C_R   0.380714 0.906266 0.105169 -0.148650
C62   C     C_R   0.404359 0.872142 0.144135 -0.169643
C63   C     C_R   0.346132 0.833544 0.159855 0.052926
C64   C     C_R   0.297604 0.903292 0.081138 -0.019748
C65   C     C_R   0.370232 0.363609 0.583565 -0.006151
C66   C     C_R   0.406595 0.387942 0.548557 0.565995
C67   C     C_R   0.277837 0.435359 0.601512 0.243991
C68   C     C_R   0.259803 0.417167 0.639738 -0.168212
C69   C     C_R   0.334304 0.332106 0.660790 0.003813
C70   C     C_R   0.422319 0.256436 0.641457 0.256857
C71   C     C_R   0.377795 0.242339 0.168452 -0.134123
C72   C     C_R   0.437163 0.271456 0.602390 -0.168815
C73   C     C_R   0.310162 0.336134 0.784964 0.331194
C74   C     C_R   0.324499 0.328942 0.704097 0.367683
C75   C     C_R   0.203933 0.374023 0.843647 -0.146011
C76   C     C_R   0.195473 0.357792 0.883034 -0.171830
C77   C     C_R   0.383497 0.266089 0.893900 0.124416
C78   C     C_R   0.702538 0.413314 0.562400 0.548086
C79   C     C_R   0.391166 0.284515 0.854287 -0.113024
C80   C     C_R   0.301725 0.333792 0.828392 0.007078
C81   C     C_R   0.284541 0.299902 0.907967 0.048075
C82   C     C_R   0.374067 0.223439 0.126629 -0.135856
C83   C     C_R   0.757332 0.380652 0.602405 0.042642
C84   C     C_R   0.810669 0.430941 0.624348 0.136794
C85   C     C_R   0.837582 0.416376 0.665798 -0.106431
C86   C     C_R   0.814662 0.350874 0.684988 0.010991
C87   C     C_R   0.769893 0.295052 0.662757 -0.129709
C88   C     C_R   0.741437 0.309684 0.621773 -0.171568
C89   C     C_R   0.930828 0.215375 0.818111 0.277000
C90   C     C_R   0.367914 0.364796 0.392783 0.033399
C91   C     C_R   0.946282 0.197040 0.859641 0.249522
C92   C     C_R   0.855901 0.383130 0.875868 -0.197265
C93   C     C_R   0.215004 0.385810 0.120303 -0.092831
C94   C     C_R   0.829893 0.399924 0.834799 -0.187519
C95   C     C_R   0.868720 0.316507 0.805994 0.003219
C96   C     C_1   0.848316 0.333817 0.763685 0.015378
C97   C     C_1   0.833432 0.343072 0.727845 -0.017503
C98   C     C_R   0.916223 0.282125 0.888703 -0.016251
C99   C     C_R   0.377408 0.753825 0.602180 0.019765
C100  C     C_R   0.278636 0.801316 0.617603 -0.135899
C101  C     C_R   0.267707 0.828286 0.658983 -0.118686
C102  C     C_R   0.279836 0.445258 0.373966 -0.177728
C103  C     C_R   0.355202 0.808935 0.685185 0.040457
C104  C     C_R   0.218478 0.405651 0.162440 0.153821
C105  C     C_R   0.452632 0.768570 0.669716 -0.107579
C106  C     C_R   0.463765 0.741444 0.628400 -0.124991
C107  C     C_R   0.388655 0.891040 0.831159 -0.124916
C108  C     C_R   0.370271 0.919934 0.871961 -0.137119
C109  C     C_R   0.234935 0.869227 0.864926 -0.107002
C110  C     C_R   0.253636 0.840067 0.824093 -0.122927
C111  C     C_R   0.328595 0.853616 0.806976 0.026672
C112  C     C_1   0.338870 0.836430 0.764134 -0.042405
C113  C     C_1   0.346249 0.824354 0.728117 -0.036753
C114  C     C_R   0.255790 0.436963 0.332526 -0.133535
C115  C     C_R   0.298676 0.330982 0.186585 0.050147
C116  C     C_R   0.290706 0.912790 0.888913 0.026344
C117  C     C_R   0.963620 0.264295 0.045719 0.563890
C118  C     C_R   0.272675 0.259354 0.060116 0.544453
C119  C     C_R   0.259106 0.960032 0.043942 0.547167
C120  C     C_R   0.963273 0.267049 0.930563 0.561829
C121  C     C_R   0.270504 0.263733 0.945168 0.567479
C122  C     C_R   0.256196 0.964742 0.928990 0.555258
C123  C     C_3   0.900745 0.510353 0.100968 0.048389
C124  C     C_3   0.838081 0.628559 0.102764 -0.255404
C125  C     C_3   0.902280 0.679046 0.122884 -0.498563
Cr1   Cr    Cr6+3 0.576280 0.580550 0.506370 1.018758
Cr2   Cr    Cr6+3 0.346780 0.572400 0.496520 1.031438
Cr3   Cr    Cr6+3 0.576960 0.347070 0.497150 1.017293
Cr4   Cr    Cr6+3 0.087320 0.083240 0.984860 1.012435
Cr5   Cr    Cr6+3 0.087720 0.316210 0.996740 1.012064
Cr6   Cr    Cr6+3 0.317350 0.090340 0.995890 1.015151
H1    H     H_    0.433436 0.151223 0.113706 0.134732
H2    H     H_    0.440532 0.185433 0.186842 0.119063
H3    H     H_    0.905302 0.396518 0.555722 0.158189
H4    H     H_    0.659239 0.160165 0.396454 0.159407
H5    H     H_    0.599305 0.211268 0.348809 0.118780
H6    H     H_    0.663581 0.993563 0.376603 0.166197
H7    H     H_    0.589034 0.040672 0.329928 0.175498
H8    H     H_    0.732180 0.068044 0.307949 0.154506
H9    H     H_    0.773594 0.935429 0.317291 0.141765
H10   H     H_    0.808184 0.014700 0.354275 0.137714
H11   H     H_    0.120534 0.492428 0.208263 0.250742
H12   H     H_    0.083411 0.658271 0.190291 0.128025
H13   H     H_    0.424036 0.940384 0.094799 0.139600
H14   H     H_    0.154746 0.601381 0.145659 0.176226
H15   H     H_    0.222666 0.580442 0.195478 0.189691
H16   H     H_    0.465989 0.879611 0.162634 0.133164
H17   H     H_    0.504772 0.212925 0.587613 0.140342
H18   H     H_    0.118439 0.384669 0.892919 0.143596
H19   H     H_    0.190029 0.472472 0.654040 0.134653
H20   H     H_    0.446005 0.193815 0.309979 0.115294
H21   H     H_    0.133528 0.413494 0.824579 0.139111
H22   H     H_    0.467372 0.256387 0.843369 0.131221
H23   H     H_    0.753160 0.243276 0.677529 0.117054
H24   H     H_    0.793451 0.217212 0.408411 0.104720
H25   H     H_    0.700886 0.270203 0.605912 0.127209
H26   H     H_    0.783301 0.478320 0.825435 0.131644
H27   H     H_    0.831303 0.449338 0.897601 0.146051
H28   H     H_    0.874720 0.457522 0.683168 0.107204
H29   H     H_    0.414578 0.953010 0.889614 0.117556
H30   H     H_    0.446877 0.901743 0.818128 0.112805
H31   H     H_    0.520676 0.753877 0.689805 0.113043
H32   H     H_    0.540958 0.704703 0.617515 0.138898
H33   H     H_    0.210634 0.813376 0.598005 0.110021
H34   H     H_    0.206860 0.810950 0.805541 0.111881
H35   H     H_    0.723221 0.502645 0.323064 0.123663
H36   H     H_    0.173928 0.861892 0.877265 0.130069
H37   H     H_    0.191768 0.860504 0.670717 0.108186
H38   H     H_    0.232669 0.517284 0.390792 0.135296
H39   H     H_    0.150360 0.440694 0.101983 0.117007
H40   H     H_    0.190999 0.501462 0.318134 0.116555
H41   H     H_    0.695740 0.539995 0.394716 0.128947
H42   H     H_    0.965414 0.486555 0.081183 0.159297
H43   H     H_    0.936627 0.484328 0.131637 0.136746
H44   H     H_    0.811498 0.654581 0.071513 0.168280
H45   H     H_    0.768391 0.654409 0.120016 0.189882
H46   H     H_    0.824137 0.179290 0.335854 0.115704
H47   H     H_    0.924888 0.658183 0.154836 0.162435
H48   H     H_    0.855571 0.764579 0.122536 0.139144
H49   H     H_    0.973059 0.653536 0.106385 0.149389
H50   H     H_    0.686212 0.517818 0.164161 0.276529
H51   H     H_    0.820860 0.588645 0.189512 0.136629
H52   H     H_    0.902245 0.453326 0.198186 0.144522
H53   H     H_    0.782255 0.527666 0.222861 0.167944
H54   H     H_    0.033806 0.881150 0.310736 0.147276
H55   H     H_    0.086863 0.875739 0.360929 0.118232
H56   H     H_    0.095694 0.697269 0.299386 0.163018
H57   H     H_    0.952499 0.118486 0.084000 0.142485
H58   H     H_    0.174646 0.669951 0.346007 0.166558
H59   H     H_    0.015236 0.767250 0.385168 0.149399
H60   H     H_    0.013729 0.661392 0.352930 0.146991
H61   H     H_    0.935895 0.792330 0.337933 0.143736
H62   H     H_    0.566422 0.734199 0.312824 0.258058
H63   H     H_    0.664997 0.812281 0.347668 0.141110
H64   H     H_    0.665284 0.723686 0.380929 0.123328
H65   H     H_    0.577503 0.862327 0.387721 0.166476
H66   H     H_    0.058509 0.820554 0.139866 0.140561
H67   H     H_    0.081800 0.929435 0.141659 0.111997
H68   H     H_    0.885066 0.135911 0.148879 0.125127
H69   H     H_    0.126933 0.798084 0.214862 0.206731
H70   H     H_    0.129091 0.919045 0.214663 0.196018
H71   H     H_    0.937913 0.006790 0.194282 0.165068
H72   H     H_    0.966886 0.945457 0.241275 0.162576
H73   H     H_    0.937335 0.884599 0.195466 0.131162
H74   H     H_    0.183012 0.666550 0.583944 0.172823
H75   H     H_    0.226071 0.608708 0.631265 0.121525
H76   H     H_    0.011016 0.683700 0.584420 0.165242
H77   H     H_    0.046893 0.608138 0.627744 0.163665
H78   H     H_    0.081988 0.743246 0.669423 0.153657
H79   H     H_    0.223202 0.764735 0.394675 0.127357
H80   H     H_    0.949833 0.792469 0.648943 0.148135
H81   H     H_    0.037955 0.820951 0.625781 0.142000
H82   H     H_    0.622863 0.137307 0.694715 0.167312
H83   H     H_    0.604113 0.209621 0.652285 0.107197
H84   H     H_    0.657366 0.979254 0.651956 0.174781
H85   H     H_    0.626119 0.047309 0.606601 0.165616
H86   H     H_    0.774930 0.085655 0.624545 0.147849
H87   H     H_    0.815657 0.949166 0.619970 0.147263
H88   H     H_    0.807597 0.014511 0.669650 0.154275
H89   H     H_    0.519542 0.252053 0.922791 0.245203
H90   H     H_    0.523090 0.744910 0.413882 0.138783
H91   H     H_    0.569851 0.093054 0.879123 0.119316
H92   H     H_    0.488262 0.065657 0.907268 0.168863
H93   H     H_    0.600826 0.070077 0.932277 0.138532
H94   H     H_    0.993474 0.963381 0.853280 0.141867
H95   H     H_    0.879194 0.077012 0.838622 0.142854
H96   H     H_    0.955676 0.010415 0.926284 0.189796
H97   H     H_    0.840190 0.127019 0.912349 0.158019
H98   H     H_    0.768113 0.020656 0.871396 0.145905
H99   H     H_    0.798823 0.987283 0.923527 0.142518
H100  H     H_    0.884145 0.903413 0.885209 0.147641
H101  H     H_    0.181002 0.852688 0.077077 0.127835
H102  H     H_    0.116522 0.020808 0.772819 0.158604
H103  H     H_    0.121191 0.087857 0.820123 0.172732
H104  H     H_    0.067587 0.179079 0.735764 0.183160
H105  H     H_    0.075209 0.247649 0.783233 0.162734
H106  H     H_    0.262190 0.117462 0.794867 0.156473
H107  H     H_    0.236639 0.181056 0.748444 0.189108
H108  H     H_    0.254963 0.050998 0.746483 0.160826
H109  H     H_    0.839881 0.555375 0.625185 0.237224
H110  H     H_    0.992670 0.400141 0.598022 0.142754
H111  H     H_    0.929398 0.505884 0.564983 0.149758
N1    N     N_R   0.722069 0.386029 0.216220 -0.229067
N2    N     N_R   0.389582 0.869989 0.269832 -0.210697
N3    N     N_R   0.387102 0.877010 0.230191 -0.251983
N4    N     N_R   0.224148 0.387072 0.760117 -0.249142
N5    N     N_2   0.763722 0.491077 0.160388 -0.495099
N6    N     N_2   0.537736 0.783691 0.338014 -0.500423
N7    N     N_2   0.475012 0.214682 0.919463 -0.497427
N8    N     N_2   0.833794 0.499111 0.605561 -0.500282
N9    N     N_2   0.138451 0.498332 0.179904 -0.553266
N10   N     N_R   0.231244 0.384145 0.720474 -0.259493
N11   N     N_R   0.410381 0.278437 0.728990 -0.180981
N12   N     N_R   0.403350 0.281411 0.768592 -0.247394
N13   N     N_R   0.710180 0.394961 0.255677 -0.236870
N14   N     N_R   0.858917 0.235360 0.263640 -0.233415
N15   N     N_R   0.871277 0.226998 0.224155 -0.241929
N16   N     N_R   0.339607 0.745935 0.217479 -0.182836
N17   N     N_R   0.341952 0.738936 0.257090 -0.199961
O1    O     O_R   0.679450 0.499830 0.463150 -0.523051
O2    O     O_R   0.340240 0.172500 0.045430 -0.515310
O3    O     O_R   0.309670 0.000990 0.032050 -0.500414
O4    O     O_R   0.480650 0.664000 0.464630 -0.502917
O5    O     O_R   0.168330 0.982130 0.939200 -0.495461
O6    O     O_R   0.000140 0.178170 0.944610 -0.460941
O7    O     O_R   0.983010 0.336750 0.948660 -0.524454
O8    O     O_R   0.181800 0.312190 0.959860 -0.513885
O9    O     O_R   0.338500 0.175680 0.956950 -0.487311
O10   O     O_R   0.308050 0.003930 0.950020 -0.510288
O11   O     O_3   0.164130 0.163270 0.992500 -0.243649
O12   O     O_R   0.356040 0.477400 0.534170 -0.447851
O13   O     O_R   0.323930 0.675950 0.455370 -0.519757
O14   O     O_R   0.354700 0.475360 0.451930 -0.514302
O15   O     O_R   0.494470 0.320860 0.448390 -0.465734
O16   O     O_R   0.662580 0.357570 0.460050 -0.504794
O17   O     O_R   0.680900 0.502040 0.551870 -0.478003
O18   O     O_R   0.481990 0.666040 0.546870 -0.500164
O19   O     O_R   0.325370 0.678160 0.544080 -0.524977
O20   O     O_3   0.835562 0.468280 0.083712 -0.541696
O21   O     O_3   0.191809 0.816996 0.314554 -0.562902
O22   O     O_3   0.212815 0.779591 0.149159 -0.565901
O23   O     O_R   0.495910 0.323070 0.537100 -0.537040
O24   O     O_3   0.203745 0.518692 0.580300 -0.553205
O25   O     O_3   0.488925 0.165307 0.660063 -0.545891
O26   O     O_3   0.002191 0.096447 0.871554 -0.553326
O27   O     O_3   0.973823 0.134294 0.789024 -0.577772
O28   O     O_3   0.508351 0.187666 0.388307 -0.549261
O29   O     O_R   0.663920 0.359620 0.542290 -0.515208
O30   O     O_3   0.500010 0.500010 0.500010 -0.248215
O31   O     O_R   0.170070 0.978950 0.027680 -0.527486
O32   O     O_R   0.001760 0.175230 0.026640 -0.516629
O33   O     O_R   0.984760 0.333570 0.037150 -0.491373
O34   O     O_R   0.183410 0.309240 0.041890 -0.511585

loop_
_geom_bond_atom_site_label_1
_geom_bond_atom_site_label_2
_ccdc_geom_bond_type
C48   C55   A    
C87   C88   A    
H109  N8    S    
C94   H26   S    
C101  H37   S    
C21   H100  S    
C37   H24   S    
C53   C55   A    
C8    H67   S    
C95   C96   S    
C70   O25   S    
C71   C82   A    
C78   O17   A    
C91   O26   S    
C15   H82   S    
N16   N17   A    
C121  O8    A    
C8    H66   S    
C26   H110  S    
C17   H86   S    
C123  C124  S    
Cr2   O30   S    
C124  H44   S    
N4    N10   A    
C85   C86   A    
N2    N3    A    
C118  O2    A    
Cr5   O34   S    
C59   C64   A    
C79   C80   A    
C20   H96   S    
C116  C122  S    
C14   H80   S    
C83   C84   A    
C102  C114  A    
C27   H5    S    
C12   H77   S    
C119  O31   A    
C28   C29   S    
C103  C113  S    
C19   H95   S    
C57   N2    A    
N11   N12   A    
Cr5   O11   S    
C110  H34   S    
C123  O20   S    
Cr4   O32   S    
C119  O3    A    
C25   H108  S    
C18   N7    S    
C15   C16   S    
C19   O26   S    
N1    N13   A    
C30   N9    S    
C93   C104  A    
C92   H27   S    
C34   C35   A    
C4    H55   S    
C16   H85   S    
C2    C13   T    
C110  C111  A    
C90   C102  A    
C10   H73   S    
C42   O1    A    
C66   O12   A    
C39   N15   A    
C122  O10   A    
C1    O4    A    
C40   N13   A    
C78   C83   S    
C103  C105  A    
C94   C95   A    
C111  C112  S    
C16   C17   S    
C65   C67   A    
C44   C47   A    
C6    H60   S    
C125  H48   S    
C41   C46   A    
H11   N9    S    
C11   H75   S    
Cr3   O23   S    
C89   C91   A    
Cr4   O5    S    
C18   H93   S    
C10   H72   S    
C17   H88   S    
C9    H69   S    
C55   H90   S    
Cr6   O3    S    
C23   H104  S    
C102  H38   S    
C48   C50   A    
C83   C88   A    
C29   H10   S    
C89   O27   S    
C54   O19   A    
C104  N9    S    
C22   H103  S    
H89   N7    S    
C117  O32   A    
C54   O18   A    
C41   C43   A    
C5    H56   S    
C15   O25   S    
C61   C62   A    
C3    N5    S    
Cr2   O14   S    
C15   H83   S    
C59   H101  S    
C121  O9    A    
C78   O29   A    
C112  C113  T    
C123  H42   S    
Cr1   O4    S    
C30   H15   S    
C56   N3    A    
C39   N1    A    
C24   O14   A    
C77   C79   A    
N14   N15   A    
C114  H40   S    
C29   H8    S    
Cr1   O18   S    
C93   H39   S    
C56   C63   S    
C6    H61   S    
C26   N8    S    
C22   H102  S    
C49   H20   S    
C104  C115  A    
C84   N8    S    
C67   C68   A    
C12   H76   S    
C107  H30   S    
C28   H7    S    
C84   C85   A    
Cr3   O29   S    
C67   O24   S    
C118  O34   A    
C7    H65   S    
C38   C49   A    
C86   C87   A    
C8    C9    S    
C82   H1    S    
C24   O15   A    
C73   N4    A    
C20   H97   S    
C58   C59   A    
C72   H17   S    
C7    N6    S    
C57   N17   A    
C30   H12   S    
C51   C52   A    
C81   C121  S    
C35   C36   A    
C106  H32   S    
C4    H54   S    
C89   C95   A    
C16   H84   S    
C92   C98   A    
C75   C76   A    
C31   C118  S    
C62   C63   A    
C26   H3    S    
C25   H107  S    
C79   H22   S    
Cr1   O30   S    
C10   H71   S    
C2    C115  S    
C61   H13   S    
C99   C100  A    
Cr6   O10   S    
C25   H106  S    
C75   H21   S    
C107  C108  A    
C21   H98   S    
C96   C97   T    
C6    H59   S    
C125  H49   S    
C26   H111  S    
C50   C51   A    
C87   H23   S    
C71   C115  A    
C69   C74   S    
C100  H33   S    
H62   N6    S    
C32   C37   A    
C7    H63   S    
C49   C60   A    
C18   H92   S    
C31   C82   A    
Cr3   O15   S    
C13   C38   S    
C109  C116  A    
C9    H70   S    
C44   H57   S    
C39   C46   S    
C108  H29   S    
C23   H105  S    
Cr3   O30   S    
C29   H9    S    
C12   C14   S    
Cr4   O31   S    
C22   O27   S    
Cr2   O13   S    
C117  O33   A    
Cr2   O19   S    
C4    O21   S    
C54   C99   S    
C86   C97   S    
C77   N7    S    
Cr5   O8    S    
C7    H64   S    
C88   H25   S    
C27   C28   S    
C123  H43   S    
Cr4   O6    S    
C44   C45   A    
C30   H14   S    
C66   O23   A    
C70   C72   A    
C3    H53   S    
C58   C63   A    
C99   C106  A    
Cr1   O17   S    
C36   C37   A    
C120  O6    A    
C14   H78   S    
C22   C23   S    
C107  C111  A    
Cr1   O1    S    
C68   C69   A    
C56   N16   A    
C36   H46   S    
C4    C5    S    
C109  H36   S    
C76   C81   A    
C71   H2    S    
C74   N10   A    
C11   C12   S    
H50   N5    S    
C1    C48   S    
C98   C120  S    
Cr6   O9    S    
C58   O22   S    
C60   C90   A    
C45   H68   S    
C65   C72   A    
C11   H74   S    
C105  C106  A    
C64   C119  S    
C60   O28   S    
C14   H81   S    
C62   H16   S    
C24   C90   S    
C27   H4    S    
C32   C33   A    
C108  C116  A    
C19   C20   S    
C35   C40   S    
C19   H94   S    
C53   N6    S    
C5    H58   S    
C31   C93   A    
C109  C110  A    
C61   C64   A    
C8    O22   S    
C122  O5    A    
C92   C94   A    
C5    C6    S    
Cr6   O11   S    
C43   C47   A    
C76   H18   S    
C38   C114  A    
C21   H99   S    
C1    O13   A    
C100  C101  A    
C73   C80   S    
C33   C34   A    
C51   O21   S    
C9    C10   S    
C23   C25   S    
C91   C98   A    
C69   C70   A    
C18   H91   S    
C3    H51   S    
Cr5   O7    S    
C74   N11   A    
C68   H19   S    
C52   C57   S    
Cr4   O11   S    
Cr3   O16   S    
C27   O28   S    
C73   N12   A    
C40   N14   A    
C45   C46   A    
C11   O24   S    
C47   C117  S    
C75   C80   A    
C43   O20   S    
C20   C21   S    
C50   H79   S    
C120  O7    A    
C101  C103  A    
C65   C66   S    
C28   H6    S    
Cr5   O33   S    
C125  H47   S    
C32   C42   S    
C105  H31   S    
Cr2   O12   S    
C85   H28   S    
Cr6   O2    S    
C124  H45   S    
C34   H35   S    
C33   H41   S    
C3    H52   S    
C41   N5    S    
C17   H87   S    
C52   C53   A    
C124  C125  S    
C77   C81   A    
C42   O16   A    
