data_mof_unit_22609.cif
_audit_creation_date              2012-12-10T19:08:04-0500
_audit_creation_method            fapswitch 2.2
_symmetry_space_group_name_H-M    P1
_symmetry_Int_Tables_number       1
_space_group_crystal_system       triclinic
_cell_length_a                    9.070269
_cell_length_b                    10.817452
_cell_length_c                    9.573852
_cell_angle_alpha                 90.06407
_cell_angle_beta                  90.011159
_cell_angle_gamma                 89.879964
_cell_volume                      939.35688082

loop_
_atom_site_label
_atom_site_type_symbol
_atom_type_description
_atom_site_fract_x
_atom_site_fract_y
_atom_site_fract_z
_atom_type_partial_charge
C1    C     C_R   0.497733 0.262421 0.499920 0.811717
C2    C     C_R   0.461778 0.935545 0.374270 -0.210775
C3    C     C_R   0.483833 0.870825 0.499913 -0.095735
C4    C     C_R   0.485490 0.936631 0.625348 0.124847
C5    C     C_3   0.590987 0.930056 0.745007 -0.460095
C6    C     C_3   0.590973 0.070464 0.744942 -0.434302
C7    C     C_R   0.622646 0.534783 0.073257 0.201280
C8    C     C_R   0.375887 0.473259 0.074063 -0.057811
C9    C     C_R   0.376081 0.472657 0.925799 -0.064227
C10   C     C_R   0.621524 0.537991 0.926226 0.205009
C11   C     C_3   0.771706 0.482588 0.916854 -0.504801
C12   C     C_R   0.220764 0.499896 0.499967 0.842475
C13   C     C_3   0.771621 0.474254 0.074933 -0.035984
C14   C     C_R   0.497663 0.737612 0.499999 0.791255
C15   C     C_R   0.779215 0.499906 0.500035 0.858298
C16   C     C_1   0.065556 0.499816 0.499965 -0.185142
C17   C     C_1   0.934391 0.499820 0.500024 -0.184499
C18   C     C_R   0.485524 0.063831 0.625266 0.112425
C19   C     C_R   0.483916 0.129310 0.499765 -0.096057
C20   C     C_R   0.461825 0.064409 0.374194 -0.184703
Cu1   Cu    Cu3+1 0.499990 0.499980 0.640670 0.945554
Cu2   Cu    Cu3+1 0.500010 0.500020 0.359330 0.968241
H1    H     H_    0.451420 0.112474 0.275480 0.183878
H2    H     H_    0.853843 0.549640 0.876125 0.176272
H3    H     H_    0.856927 0.533768 0.124075 0.142346
H4    H     H_    0.539469 0.889811 0.839951 0.201330
H5    H     H_    0.699034 0.888963 0.715245 0.197851
H6    H     H_    0.539422 0.111176 0.839824 0.214524
H7    H     H_    0.699015 0.111131 0.715176 0.202755
H8    H     H_    0.276600 0.446472 0.871351 0.147451
H9    H     H_    0.771869 0.391632 0.862637 0.235972
N1    N     N_R   0.500920 0.500930 0.147930 -0.172924
N2    N     N_R   0.500930 0.500890 0.852020 -0.175849
O1    O     O_R   0.500000 0.319640 0.618810 -0.580111
O2    O     O_R   0.500020 0.319680 0.381230 -0.555255
O3    O     O_R   0.288380 0.499980 0.618770 -0.590782
O4    O     O_R   0.288400 0.500020 0.381190 -0.588278
O5    O     O_R   0.499980 0.680320 0.618770 -0.577367
O6    O     O_R   0.500000 0.680360 0.381190 -0.588755
O7    O     O_R   0.711600 0.499980 0.618810 -0.587631
O8    O     O_R   0.711620 0.500020 0.381230 -0.560499
I1    I     I_    0.772257 0.284725 0.143238 -0.391390
H10   H     H_    0.451328 0.887304 0.275579 0.169019
H11   H     H_    0.276138 0.447828 0.128424 0.150470

loop_
_geom_bond_atom_site_label_1
_geom_bond_atom_site_label_2
_ccdc_geom_bond_type
C7    C10   A    
Cu1   O1    S    
C14   O5    A    
C19   C20   A    
C20   H1    S    
C2    H10   S    
C4    C18   A    
C2    C3    A    
C3    C4    A    
C11   H9    S    
Cu1   O3    S    
Cu1   Cu2   S    
C9    N2    A    
Cu2   O2    S    
C11   C13   S    
C13   H3    S    
C16   C17   T    
C3    C14   S    
Cu2   N1    S    
C9    H8    S    
Cu2   O6    S    
C13   I1    S    
C1    O1    A    
C10   N2    A    
C5    C6    S    
C6    C18   S    
C15   O7    A    
C1    C19   S    
Cu2   O8    S    
C12   O3    A    
C10   C11   S    
C2    C20   A    
C5    H4    S    
C8    N1    A    
C12   C16   S    
C11   H2    S    
C7    C13   S    
C6    H7    S    
Cu1   N2    S    
C15   O8    A    
C18   C19   A    
C12   O4    A    
C15   C17   S    
C1    O2    A    
C8    C9    A    
C7    N1    A    
C14   O6    A    
C5    H5    S    
Cu2   O4    S    
C6    H6    S    
Cu1   O5    S    
C8    H11   S    
C4    C5    S    
Cu1   O7    S    
