data_mof_unit_55900.cif
_audit_creation_date              2012-12-11T15:27:33-0500
_audit_creation_method            fapswitch 2.2
_symmetry_space_group_name_H-M    P1
_symmetry_Int_Tables_number       1
_space_group_crystal_system       triclinic
_cell_length_a                    23.350805
_cell_length_b                    7.296704
_cell_length_c                    15.101622
_cell_angle_alpha                 90.000347
_cell_angle_beta                  108.491571
_cell_angle_gamma                 89.999634
_cell_volume                      2440.22649181

loop_
_atom_site_label
_atom_site_type_symbol
_atom_type_description
_atom_site_fract_x
_atom_site_fract_y
_atom_site_fract_z
_atom_type_partial_charge
O1    O     O_R   0.711000 0.648610 0.341170 -0.538704
O2    O     O_R   0.289000 0.351390 0.658830 -0.533185
O3    O     O_R   0.789000 0.148610 0.158830 -0.538705
O4    O     O_R   0.211000 0.851390 0.841170 -0.533184
O5    O     O_R   0.829650 0.322030 0.336650 -0.536936
O6    O     O_R   0.170350 0.677970 0.663350 -0.535720
O7    O     O_R   0.670350 0.822030 0.163350 -0.536935
O8    O     O_R   0.329650 0.177970 0.836650 -0.535718
C1    C     C_R   0.854321 0.485781 0.356698 0.719379
C2    C     C_R   0.145677 0.514256 0.643309 0.718407
C3    C     C_R   0.645679 0.985781 0.143302 0.719379
C4    C     C_R   0.354323 0.014256 0.856691 0.718400
O9    O     O_R   0.713950 0.319280 0.352070 -0.537524
O10   O     O_R   0.286050 0.680720 0.647930 -0.542922
O11   O     O_R   0.786050 0.819280 0.147930 -0.537522
O12   O     O_R   0.213950 0.180720 0.852070 -0.542920
O13   O     O_R   0.672470 0.142870 0.174360 -0.532782
O14   O     O_R   0.327530 0.857130 0.825640 -0.533714
O15   O     O_R   0.827530 0.642870 0.325640 -0.532777
O16   O     O_R   0.172470 0.357130 0.674360 -0.533713
C5    C     C_R   0.701590 0.487586 0.375595 0.686596
C6    C     C_R   0.298394 0.512655 0.624385 0.687236
C7    C     C_R   0.798409 0.987584 0.124405 0.686607
C8    C     C_R   0.201606 0.012656 0.875615 0.687225
O17   O     O_3   0.736530 0.478650 0.191680 -0.378583
O18   O     O_3   0.263470 0.521350 0.808320 -0.378562
O19   O     O_3   0.763470 0.978650 0.308320 -0.378584
O20   O     O_3   0.236530 0.021350 0.691680 -0.378563
V1    V     V_3+5 0.752500 0.206170 0.260820 1.409869
V2    V     V_3+5 0.247500 0.793830 0.739180 1.409897
V3    V     V_3+5 0.747500 0.706170 0.239180 1.409878
V4    V     V_3+5 0.252500 0.293830 0.760820 1.409899
C9    C     C_R   0.828951 0.998703 0.053920 -0.080138
C10   C     C_R   0.171027 0.007213 0.946174 -0.078844
C11   C     C_R   0.671050 0.498712 0.446082 -0.080152
C12   C     C_R   0.328975 0.507200 0.553829 -0.078840
C13   C     C_R   0.824686 0.081976 0.897343 -0.169634
C14   C     C_R   0.176485 0.045646 0.107326 -0.168257
C15   C     C_R   0.675308 0.582114 0.602640 -0.169644
C16   C     C_R   0.323514 0.545498 0.392669 -0.168251
C17   C     C_R   0.796369 0.061130 0.964827 -0.219313
C18   C     C_R   0.204575 0.042683 0.038941 -0.218596
C19   C     C_R   0.703625 0.561239 0.535158 -0.219311
C20   C     C_R   0.295425 0.542593 0.461054 -0.218601
C21   C     C_R   0.891128 0.959104 0.076900 0.208267
C22   C     C_R   0.108165 0.977205 0.920568 0.209012
C23   C     C_R   0.608879 0.459041 0.423118 0.208256
C24   C     C_R   0.391838 0.477219 0.579443 0.209006
C25   C     C_R   0.922139 0.006151 0.012558 0.044424
C26   C     C_R   0.077914 0.006887 0.987815 0.044873
C27   C     C_R   0.577863 0.506126 0.487448 0.044429
C28   C     C_R   0.422088 0.506846 0.512188 0.044876
C29   C     C_R   0.887087 0.055488 0.920307 0.096590
C30   C     C_R   0.113657 0.028306 0.082732 0.097007
C31   C     C_R   0.612910 0.555563 0.579685 0.096587
C32   C     C_R   0.386343 0.528179 0.417267 0.097008
C33   C     C_R   0.986481 0.009876 0.036533 0.051299
C34   C     C_R   0.013736 0.019676 0.964482 0.051819
C35   C     C_R   0.513521 0.509803 0.463472 0.051295
C36   C     C_R   0.486265 0.519663 0.535520 0.051827
C37   C     C_R   0.976688 0.063732 0.873310 -0.149914
C38   C     C_R   0.024120 0.026249 0.129997 -0.149534
C39   C     C_R   0.523309 0.563807 0.626681 -0.149908
C40   C     C_R   0.475882 0.526079 0.370003 -0.149534
C41   C     C_R   0.914758 0.084023 0.852211 -0.210022
C42   C     C_R   0.086361 0.038192 0.152300 -0.208995
C43   C     C_R   0.585237 0.584141 0.647776 -0.210028
C44   C     C_R   0.413640 0.537998 0.347697 -0.208991
H1    H     H_    0.888352 0.124443 0.782036 0.126093
H2    H     H_    0.113345 0.057296 0.224731 0.126119
H3    H     H_    0.611639 0.624635 0.717940 0.126094
H4    H     H_    0.386655 0.557032 0.275260 0.126119
H5    H     H_    0.252901 0.064576 0.058628 0.121475
H6    H     H_    0.748565 0.090634 0.947099 0.122425
H7    H     H_    0.247098 0.564461 0.441362 0.121470
H8    H     H_    0.751424 0.590800 0.552875 0.122435
H9    H     H_    0.798032 0.124703 0.827713 0.125513
H10   H     H_    0.203771 0.067200 0.179387 0.125290
H11   H     H_    0.701958 0.624918 0.672259 0.125516
H12   H     H_    0.296227 0.566988 0.320603 0.125288
H13   H     H_    0.995086 0.099724 0.818576 0.165141
H14   H     H_    0.006278 0.046922 0.186901 0.165326
H15   H     H_    0.504907 0.599840 0.681407 0.165133
H16   H     H_    0.493723 0.546698 0.313095 0.165322
C45   C     C_1   0.416822 0.007140 0.918615 -0.195822
C46   C     C_1   0.583185 0.993049 0.081359 -0.195128
C47   C     C_1   0.083178 0.507140 0.581385 -0.195819
C48   C     C_1   0.916815 0.493049 0.418641 -0.195130
C49   C     C_1   0.469170 0.002597 0.969879 -0.000116
C50   C     C_1   0.530841 0.997726 0.030080 0.001413
C51   C     C_1   0.030830 0.502597 0.530121 -0.000113
C52   C     C_1   0.969159 0.497726 0.469920 0.001404
N1    N     N_2   0.076796 0.904261 0.830486 -0.545006
H17   H     H_    0.092101 0.946493 0.776846 0.250527
C53   C     C_3   0.065690 0.709115 0.829385 -0.509161
H18   H     H_    0.038302 0.666295 0.757938 0.189632
H19   H     H_    0.040253 0.674021 0.878022 0.204256
H20   H     H_    0.109120 0.632792 0.849721 0.197345
N2    N     N_2   0.920820 0.860507 0.160544 -0.545798
H21   H     H_    0.906191 0.887911 0.216797 0.251355
C54   C     C_3   0.928161 0.666725 0.147045 -0.505695
H22   H     H_    0.954422 0.603233 0.214543 0.188084
H23   H     H_    0.953140 0.644579 0.096387 0.204820
H24   H     H_    0.883330 0.598731 0.121119 0.199109
N3    N     N_2   0.423211 0.404343 0.669538 -0.545000
H25   H     H_    0.407908 0.446627 0.723172 0.250518
C55   C     C_3   0.434317 0.209192 0.670678 -0.509168
H26   H     H_    0.461707 0.166424 0.742133 0.189638
H27   H     H_    0.459750 0.174043 0.622044 0.204253
H28   H     H_    0.390887 0.132873 0.650361 0.197346
N4    N     N_2   0.579199 0.360335 0.339505 -0.545800
H29   H     H_    0.593823 0.387688 0.283241 0.251366
C56   C     C_3   0.571885 0.166564 0.353065 -0.505662
H30   H     H_    0.545634 0.102977 0.285588 0.188070
H31   H     H_    0.546907 0.144458 0.403728 0.204819
H32   H     H_    0.616726 0.098631 0.379015 0.199115

loop_
_geom_bond_atom_site_label_1
_geom_bond_atom_site_label_2
_ccdc_geom_bond_type
O17   V3    S    
O1    C5    A    
N1    H17   S    
C47   C51   T    
O19   V1    S    
C9    C21   A    
O12   C8    A    
O3    C7    A    
C53   H18   S    
C10   C18   A    
O15   V3    S    
C53   H20   S    
C25   C33   A    
C33   C38   A    
O7    C3    A    
N3    C55   S    
C35   C40   A    
C54   H22   S    
C4    C45   S    
C36   C39   A    
C40   C44   A    
O9    V1    S    
C14   C18   A    
C1    C48   S    
O4    C8    A    
C41   H1    S    
C3    C46   S    
O1    V3    S    
O13   V1    S    
O2    V4    S    
O3    V1    S    
C40   H16   S    
C28   C36   A    
C17   H6    S    
C1    O15   A    
C15   C31   A    
C24   N3    S    
C2    O16   A    
C7    C9    S    
O2    C6    A    
C55   H26   S    
C16   H12   S    
C10   C22   A    
C11   C19   A    
C16   C20   A    
C43   H3    S    
C44   H4    S    
C56   H32   S    
C13   C29   A    
C34   C37   A    
O11   C7    A    
C38   H14   S    
C11   C23   A    
C35   C36   A    
N1    C53   S    
C55   H27   S    
O10   V2    S    
O5    V1    S    
C39   C43   A    
C2    C47   S    
O7    V3    S    
C38   C42   A    
O8    V4    S    
C48   C52   T    
C21   N2    S    
C51   C52   S    
C45   C49   T    
O18   V4    S    
C23   C27   A    
C14   H10   S    
C16   C32   A    
C32   C44   A    
C13   H9    S    
C8    C10   S    
C39   H15   S    
C26   C34   A    
C20   H7    S    
C23   N4    S    
O5    C1    A    
C31   C43   A    
N2    H21   S    
C14   C30   A    
C21   C25   A    
O8    C4    A    
O9    C5    A    
N4    C56   S    
C26   C30   A    
O14   V2    S    
N2    C54   S    
C54   H24   S    
C46   C50   T    
C55   H28   S    
C12   C20   A    
C27   C35   A    
C29   C41   A    
C56   H30   S    
O16   V4    S    
C19   H8    S    
C3    O13   A    
C18   H5    S    
N4    H29   S    
O6    V2    S    
O6    C2    A    
C15   C19   A    
C53   H19   S    
O11   V3    S    
C30   C42   A    
O12   V4    S    
C6    C12   S    
N3    H25   S    
C22   C26   A    
C9    C17   A    
O10   C6    A    
O20   V2    S    
C5    C11   S    
C37   H13   S    
C33   C34   A    
C42   H2    S    
C22   N1    S    
C25   C29   A    
C12   C24   A    
C27   C31   A    
C13   C17   A    
C37   C41   A    
C24   C28   A    
C54   H23   S    
C4    O14   A    
C49   C50   S    
O4    V2    S    
C28   C32   A    
C15   H11   S    
C56   H31   S    
