data_mof_unit_31977.cif
_audit_creation_date              2012-12-11T19:41:53-0500
_audit_creation_method            fapswitch 2.2
_symmetry_space_group_name_H-M    P1
_symmetry_Int_Tables_number       1
_space_group_crystal_system       triclinic
_cell_length_a                    8.232304
_cell_length_b                    15.093154
_cell_length_c                    26.94488
_cell_angle_alpha                 98.761701
_cell_angle_beta                  93.013815
_cell_angle_gamma                 80.839493
_cell_volume                      3265.29343903

loop_
_atom_site_label
_atom_site_type_symbol
_atom_type_description
_atom_site_fract_x
_atom_site_fract_y
_atom_site_fract_z
_atom_type_partial_charge
Ba1   Ba    Ba6+2 0.860050 0.456430 0.522530 1.635115
Ba2   Ba    Ba6+2 0.329780 0.543490 0.477460 1.629332
C1    C     C_3   0.700777 0.136307 0.650487 -0.368296
C2    C     C_R   0.896859 0.587666 0.179412 0.570249
C3    C     C_2   0.750108 0.554757 0.272722 -0.074465
C4    C     C_3   0.194220 0.257379 0.655730 0.292226
C5    C     C_3   0.729699 0.586743 0.328100 -0.054896
C6    C     C_1   0.984140 0.484503 0.342461 0.062933
C7    C     C_2   0.025669 0.480352 0.294685 -0.104711
C8    C     C_2   0.900652 0.514712 0.256077 0.195633
C9    C     C_R   0.022913 0.507974 0.101762 -0.080493
C10   C     C_R   0.070718 0.431204 0.126084 -0.036162
C11   C     C_R   0.159206 0.353367 0.099044 -0.061433
C12   C     C_3   0.690380 0.227343 0.631970 0.344450
C13   C     C_R   0.935021 0.586411 0.128786 -0.023341
C14   C     C_2   0.843792 0.530482 0.360570 -0.243966
C15   C     C_2   0.356635 0.480337 0.640658 -0.285397
C16   C     C_3   0.161146 0.241333 0.708315 -0.344550
C17   C     C_R   0.202208 0.428395 0.973333 0.026818
C18   C     C_R   0.042416 0.581021 0.974326 0.002554
C19   C     C_R   0.142323 0.504435 0.948426 0.047535
C20   C     C_R   0.306858 0.355289 0.946563 -0.100465
C21   C     C_R   0.347814 0.355848 0.897128 -0.057156
C22   C     C_R   0.286503 0.429154 0.871717 -0.025194
C23   C     C_3   0.482650 0.686478 0.631899 0.300871
C24   C     C_R   0.182913 0.503853 0.897169 -0.113147
C25   C     C_R   0.120686 0.577837 0.871467 -0.026018
C26   C     C_R   0.165689 0.575481 0.820852 0.606540
C27   C     C_R   0.327325 0.428779 0.821304 0.574915
C28   C     C_3   0.217614 0.266154 0.414229 0.293942
C29   C     C_2   0.465332 0.483528 0.729129 -0.071045
C30   C     C_3   0.505980 0.487985 0.675234 -0.052306
C31   C     C_1   0.211063 0.519155 0.657223 0.038942
C32   C     C_2   0.172942 0.519245 0.704588 -0.105639
C33   C     C_2   0.306389 0.499690 0.743692 0.196440
C34   C     C_3   0.455383 0.721779 0.687272 -0.371502
C35   C     C_R   0.156881 0.428065 0.023967 0.019070
C36   C     C_R   0.062978 0.506529 0.050422 0.050135
C37   C     C_R   0.008862 0.583787 0.026138 0.027574
C38   C     C_R   0.201595 0.351727 0.049362 -0.100469
C39   C     C_R   0.888141 0.663141 0.104940 -0.061691
C40   C     C_3   0.247864 0.163606 0.399293 -0.393677
C41   C     C_R   0.977284 0.652363 0.947218 -0.128729
C42   C     C_R   0.014808 0.651721 0.897122 0.164843
C43   C     C_R   0.924202 0.662090 0.055013 -0.103476
C44   C     C_R   0.842082 0.831207 0.464775 -0.001389
C45   C     C_3   0.032057 0.734171 0.343924 0.341067
C46   C     C_R   0.777801 0.924816 0.469842 -0.030717
C47   C     C_R   0.647263 0.113177 0.482288 -0.033732
C48   C     C_R   0.787737 0.077984 0.453616 -0.036684
C49   C     C_R   0.853724 0.986225 0.448525 -0.103408
C50   C     C_R   0.582477 0.207282 0.489846 0.070121
C51   C     C_R   0.438545 0.237094 0.516776 -0.297738
C52   C     C_3   0.977729 0.734211 0.585692 0.307991
C53   C     C_R   0.614517 0.803962 0.511350 0.025209
C54   C     C_R   0.551118 0.897061 0.518247 -0.029651
C55   C     C_R   0.631720 0.957773 0.496885 0.012837
C56   C     C_3   0.043419 0.757242 0.291346 -0.315605
C57   C     C_R   0.409582 0.931120 0.546146 -0.047602
C58   C     C_R   0.344574 0.022183 0.551428 -0.102220
C59   C     C_R   0.421060 0.083654 0.530375 -0.033008
C60   C     C_R   0.567629 0.051794 0.503570 0.005261
C61   C     C_R   0.353943 0.176027 0.535121 -0.011900
C62   C     C_R   0.754914 0.771886 0.483382 -0.301360
C63   C     C_3   0.953130 0.836805 0.600447 -0.383613
C64   C     C_3   0.636242 0.324591 0.363197 0.377075
C65   C     C_3   0.532764 0.301000 0.315668 -0.293699
C66   C     C_3   0.486763 0.785473 0.368015 0.364426
C67   C     C_3   0.432697 0.877497 0.350974 -0.367755
C68   C     C_R   0.027971 0.433515 0.176774 0.597413
H1    H     H_    0.800384 0.225273 0.609437 0.108823
H2    H     H_    0.577141 0.390355 0.383405 0.099364
H3    H     H_    0.813934 0.123696 0.674299 0.135542
H4    H     H_    0.592568 0.237881 0.292760 0.103715
H5    H     H_    0.517694 0.357187 0.292751 0.103413
H6    H     H_    0.409847 0.289791 0.325433 0.139203
H7    H     H_    0.577577 0.237585 0.608070 -0.036980
H8    H     H_    0.705005 0.081280 0.617887 0.074558
H9    H     H_    0.364355 0.669034 0.614622 0.030251
H10   H     H_    0.577837 0.625031 0.628343 0.035820
H11   H     H_    0.367340 0.786188 0.691292 0.137607
H12   H     H_    0.342916 0.144431 0.370205 0.127380
H13   H     H_    0.403314 0.671898 0.705462 0.077430
H14   H     H_    0.573966 0.734156 0.706576 0.127729
H15   H     H_    0.591317 0.135653 0.672753 0.125195
H16   H     H_    0.214765 0.290953 0.736401 0.129192
H17   H     H_    0.118393 0.670638 0.347259 0.091729
H18   H     H_    0.904156 0.723617 0.349093 -0.055970
H19   H     H_    0.156027 0.787423 0.288065 0.147896
H20   H     H_    0.049886 0.694436 0.263824 0.116914
H21   H     H_    0.623593 0.772311 0.368337 -0.067206
H22   H     H_    0.443796 0.789087 0.406794 0.077474
H23   H     H_    0.290803 0.129630 0.432264 0.066229
H24   H     H_    0.489141 0.930169 0.376373 0.068871
H25   H     H_    0.296876 0.895907 0.352052 0.148170
H26   H     H_    0.143286 0.328954 0.652364 0.072908
H27   H     H_    0.472877 0.875824 0.312095 0.122196
H28   H     H_    0.150904 0.453726 0.283640 0.126179
H29   H     H_    0.196818 0.292764 0.116332 0.120542
H30   H     H_    0.428749 0.297783 0.878725 0.121344
H31   H     H_    0.362276 0.296599 0.963001 0.067785
H32   H     H_    0.267551 0.288432 0.031639 0.068825
H33   H     H_    0.652701 0.577589 0.246759 0.116897
H34   H     H_    0.131924 0.139559 0.384117 0.120667
H35   H     H_    0.892348 0.709940 0.963471 0.066357
H36   H     H_    0.329273 0.245914 0.650670 -0.012549
H37   H     H_    0.045361 0.533950 0.715386 0.128975
H38   H     H_    0.886665 0.725156 0.040616 0.068715
H39   H     H_    0.824684 0.544153 0.400725 0.077828
H40   H     H_    0.368836 0.443964 0.602695 0.074539
H41   H     H_    0.850289 0.120257 0.434764 0.110843
H42   H     H_    0.963602 0.964058 0.426966 0.106752
H43   H     H_    0.233962 0.043219 0.572656 0.111077
H44   H     H_    0.344782 0.888191 0.563885 0.102838
H45   H     H_    0.859241 0.712392 0.572766 0.004513
H46   H     H_    0.386304 0.308178 0.520852 0.071516
H47   H     H_    0.026411 0.250102 0.713779 0.146867
H48   H     H_    0.803535 0.700270 0.479273 0.064924
H49   H     H_    0.217265 0.171588 0.714099 0.118362
H50   H     H_    0.334695 0.289825 0.427156 0.005068
H51   H     H_    0.128917 0.283098 0.445071 0.079294
H52   H     H_    0.853199 0.272845 0.328670 0.197954
H53   H     H_    0.863192 0.341304 0.382913 0.176686
H54   H     H_    0.934158 0.806269 0.282456 0.119805
H55   H     H_    0.565288 0.473562 0.756612 0.105688
H56   H     H_    0.065975 0.715639 0.554803 0.076095
H57   H     H_    0.822737 0.725210 0.124958 0.122333
H58   H     H_    0.976846 0.786163 0.892877 0.175812
H59   H     H_    0.814144 0.732418 0.873703 0.171846
H60   H     H_    0.857871 0.857821 0.629391 0.134171
H61   H     H_    0.913201 0.871066 0.567368 0.062171
H62   H     H_    0.070664 0.858740 0.615748 0.118038
N1    N     N_R   0.942142 0.511496 0.203309 -0.422699
N2    N     N_R   0.265939 0.501110 0.796136 -0.431481
N3    N     N_3   0.798275 0.334143 0.348866 -0.524928
N4    N     N_3   0.942168 0.727025 0.872568 -0.431739
O1    O     O_2   0.906480 0.548660 0.619050 -0.464077
O2    O     O_2   0.182578 0.824656 0.471940 -0.485331
O3    O     O_3   0.074944 0.805609 0.379210 -0.608949
O4    O     O_3   0.138490 0.548590 0.558870 -0.494403
O5    O     O_3   0.572560 0.389960 0.472890 -0.491780
O6    O     O_2   0.345660 0.723580 0.528500 -0.469605
O7    O     O_3   0.536350 0.754161 0.609560 -0.644528
O8    O     O_2   0.403770 0.543443 0.323678 -0.503313
O9    O     O_3   0.418237 0.718043 0.335313 -0.592897
O10   O     O_2   0.065426 0.365549 0.196896 -0.597390
O11   O     O_2   0.416991 0.363482 0.799713 -0.599167
O12   O     O_3   0.652177 0.253433 0.391963 -0.653739
O13   O     O_2   0.824091 0.657571 0.202340 -0.620874
O14   O     O_2   0.118036 0.640432 0.798978 -0.565060
O15   O     O_3   0.686300 0.382310 0.585700 -0.487214
O16   O     O_2   0.849412 0.428121 0.670628 -0.494477
O17   O     O_3   0.036739 0.694081 0.627854 -0.625360
O18   O     O_3   0.683265 0.296868 0.673200 -0.591272
O19   O     O_2   0.844040 0.276390 0.471470 -0.475055
O20   O     O_3   0.101510 0.335500 0.560330 -0.483210
O21   O     O_2   0.014785 0.175517 0.527279 -0.487474
O22   O     O_3   0.117923 0.197098 0.620741 -0.609354
O23   O     O_2   0.283210 0.451310 0.380920 -0.476312
O24   O     O_3   0.051220 0.451340 0.441120 -0.497222
O25   O     O_3   0.503410 0.617620 0.414290 -0.474576
O26   O     O_3   0.155986 0.305827 0.372141 -0.638077
O27   O     O_3   0.617150 0.609960 0.527100 -0.472017
O28   O     O_3   0.088210 0.664420 0.439670 -0.491187
P1    P     P_3+3 0.071950 0.575820 0.612140 0.997537
P2    P     P_3+3 0.664370 0.290050 0.457240 0.962368
P3    P     P_3+3 0.147852 0.219599 0.560388 0.928588
P4    P     P_3+3 0.117760 0.424110 0.387850 0.973177
P5    P     P_3+3 0.046780 0.781933 0.439421 0.936570
P6    P     P_3+3 0.681574 0.400757 0.651339 0.973322
P7    P     P_3+3 0.531786 0.723660 0.544284 0.942400
P8    P     P_3+3 0.513391 0.612388 0.349470 0.951383

loop_
_geom_bond_atom_site_label_1
_geom_bond_atom_site_label_2
_ccdc_geom_bond_type
C42   N4    S    
C53   C54   A    
C3    H33   S    
C26   O14   D    
C49   H42   S    
C1    H15   S    
C23   H10   S    
O12   P2    S    
C12   H1    S    
C39   H57   S    
C40   H12   S    
C8    N1    S    
C19   C24   A    
C15   H40   S    
O21   P3    D    
C52   O17   S    
O1    P1    D    
C63   H60   S    
O28   P5    S    
Ba1   O1    S    
C46   C55   A    
C52   C63   S    
O23   P4    D    
C2    O13   D    
C52   H56   S    
O5    P2    S    
C16   H16   S    
C20   H31   S    
C26   N2    Am   
C32   H37   S    
C17   C19   A    
C22   C24   A    
C32   C33   S    
C35   C38   A    
H58   N4    S    
C36   C37   A    
C34   H13   S    
C40   H23   S    
C66   H21   S    
C62   H48   S    
C54   C55   A    
O18   P6    S    
C6    C7    D    
C59   C61   A    
Ba1   Ba2   S    
C41   H35   S    
C12   H7    S    
Ba1   O19   S    
C54   C57   A    
C22   C27   A    
C11   C38   A    
C30   P6    S    
C6    P4    S    
C4    O22   S    
O25   P8    S    
C9    C13   A    
C25   C42   A    
C46   C49   A    
C64   H2    S    
C66   C67   S    
O22   P3    S    
C68   N1    Am   
C21   C22   A    
Ba1   O15   S    
C68   O10   D    
Ba1   P1    S    
C17   C35   A    
C7    C8    S    
C64   O12   S    
C51   H46   S    
C37   C43   A    
C50   P2    S    
C61   P3    S    
C21   H30   S    
O9    P8    S    
C57   C58   A    
C6    C14   D    
C5    P8    S    
C12   O18   S    
O2    P5    D    
C58   H43   S    
C23   O7    S    
C15   C31   D    
Ba2   O25   S    
C53   P7    S    
C63   H61   S    
C14   H39   S    
C31   C32   D    
C4    H36   S    
C4    C16   S    
C44   C46   A    
C55   C60   A    
C17   C20   A    
C64   C65   S    
C13   C39   A    
C67   H24   S    
Ba2   O28   S    
C3    C5    S    
C18   C37   A    
Ba2   O23   S    
O20   P3    S    
C52   H45   S    
H53   N3    S    
C58   C59   A    
C45   H17   S    
C11   H29   S    
Ba1   O20   S    
C41   C42   A    
C7    H28   S    
C35   C36   A    
H59   N4    S    
O16   P6    D    
C29   C30   S    
C28   H51   S    
C33   N2    S    
C34   H11   S    
C47   C50   A    
C53   C62   A    
C48   C49   A    
C24   C25   A    
C65   H4    S    
C18   C19   A    
O15   P6    S    
C16   H47   S    
Ba1   O4    S    
C56   H20   S    
O26   P4    S    
C5    C14   S    
C4    H26   S    
Ba2   O6    S    
C29   C33   D    
C2    N1    Am   
C65   H5    S    
C28   O26   S    
C45   O3    S    
Ba2   P4    S    
C63   H62   S    
O27   P7    S    
C50   C51   A    
O4    P1    S    
C15   C30   S    
C10   C68   A    
C39   C43   A    
C47   C60   A    
O17   P1    S    
C23   H9    S    
Ba1   O24   S    
C31   P1    S    
H52   N3    S    
C67   H25   S    
C40   H34   S    
Ba2   O27   S    
C27   O11   D    
C9    C10   A    
C43   H38   S    
C1    C12   S    
O8    P8    D    
C56   H54   S    
C44   P5    S    
Ba2   O4    S    
C45   H18   S    
C2    C13   A    
O7    P7    S    
C3    C8    D    
C45   C56   S    
C27   N2    Am   
C51   C61   A    
C28   H50   S    
Ba1   P2    S    
C34   H14   S    
C57   H44   S    
C48   H41   S    
C66   H22   S    
O3    P5    S    
O24   P4    S    
C59   C60   A    
C1    H3    S    
C56   H19   S    
C18   C41   A    
Ba1   O5    S    
C23   C34   S    
C38   H32   S    
C64   N3    S    
C10   C11   A    
Ba1   O27   S    
Ba2   O24   S    
C47   C48   A    
C44   C62   A    
C25   C26   A    
Ba2   O5    S    
C29   H55   S    
C20   C21   A    
C28   C40   S    
C9    C36   A    
C65   H6    S    
O19   P2    D    
C1    H8    S    
C16   H49   S    
C66   O9    S    
O6    P7    D    
C67   H27   S    
