data_mof_unit_65063.cif
_audit_creation_date              2012-12-11T17:27:13-0500
_audit_creation_method            fapswitch 2.2
_symmetry_space_group_name_H-M    P1
_symmetry_Int_Tables_number       1
_space_group_crystal_system       triclinic
_cell_length_a                    6.955615
_cell_length_b                    21.240901
_cell_length_c                    22.909955
_cell_angle_alpha                 92.969142
_cell_angle_beta                  89.099859
_cell_angle_gamma                 89.507085
_cell_volume                      3379.68634622

loop_
_atom_site_label
_atom_site_type_symbol
_atom_type_description
_atom_site_fract_x
_atom_site_fract_y
_atom_site_fract_z
_atom_type_partial_charge
O1    O     O_R   0.494570 0.443040 0.441850 -0.532827
O2    O     O_R   0.823720 0.437670 0.557760 -0.535920
O3    O     O_R   0.994070 0.556960 0.558150 -0.523151
C1    C     C_R   0.654371 0.422759 0.577137 0.725761
O4    O     O_R   0.824280 0.435690 0.442260 -0.537333
O5    O     O_R   0.994640 0.554970 0.441830 -0.532035
C2    C     C_R   0.657180 0.420319 0.422967 0.744684
O6    O     O_R   0.494000 0.445030 0.558170 -0.533804
O7    O     O_3   0.660820 0.539140 0.499990 -0.364576
V1    V     V_3+5 0.935650 0.492740 0.500000 1.425917
O8    O     O_R   0.324360 0.562330 0.442240 -0.534922
C3    C     C_R   0.155961 0.577018 0.422516 0.729581
O9    O     O_R   0.323800 0.564310 0.557740 -0.524980
C4    C     C_R   0.153208 0.582223 0.579997 0.698695
V2    V     V_3+5 0.435660 0.507260 0.500000 1.427037
O10   O     O_3   0.160620 0.460860 0.500010 -0.362029
C5    C     C_1   0.139822 0.633382 0.631293 -0.205092
C6    C     C_1   0.128939 0.675072 0.673608 0.012561
C7    C     C_1   0.115960 0.724841 0.724351 -0.000315
C8    C     C_1   0.105118 0.766407 0.766773 0.000276
C9    C     C_1   0.092118 0.816176 0.817516 0.014162
C10   C     C_1   0.081179 0.857866 0.859829 -0.202159
H1    H     H_    0.369715 0.817644 0.226035 0.133939
C11   C     C_R   0.268482 0.743910 0.278997 -0.101709
H2    H     H_    0.398741 0.743538 0.304298 0.118654
C12   C     C_R   0.119028 0.702499 0.290935 0.105699
C13   C     C_R   0.952153 0.703980 0.257373 -0.193875
H3    H     H_    0.836427 0.672106 0.267091 0.154836
C14   C     C_R   0.931981 0.746430 0.212034 -0.012034
C15   C     C_R   0.085304 0.788130 0.200225 0.049338
C16   C     C_R   0.251599 0.786211 0.234243 -0.145011
C17   C     C_1   0.135500 0.658611 0.337683 -0.036567
C18   C     C_1   0.078673 0.832447 0.153400 0.016998
C19   C     C_1   0.072654 0.869546 0.114620 -0.146769
C20   C     C_1   0.146532 0.621687 0.376490 -0.184751
H4    H     H_    0.311102 0.289965 0.705688 0.112765
C21   C     C_R   0.430553 0.225817 0.765549 -0.151560
H5    H     H_    0.290575 0.210803 0.780512 0.112134
C22   C     C_R   0.598392 0.200380 0.788592 0.136279
C23   C     C_R   0.778055 0.220668 0.768467 -0.151222
H6    H     H_    0.909196 0.201621 0.785714 0.112694
C24   C     C_R   0.789746 0.265774 0.725858 -0.151620
H7    H     H_    0.929723 0.280784 0.710891 0.112095
C25   C     C_R   0.621907 0.291208 0.702812 0.136284
C26   C     C_R   0.442243 0.270924 0.722939 -0.151211
C27   C     C_1   0.586413 0.153749 0.832793 -0.055369
C28   C     C_1   0.633889 0.337811 0.658586 -0.055295
C29   C     C_1   0.643504 0.376627 0.621546 -0.184189
C30   C     C_1   0.576806 0.114894 0.869798 -0.183732
H8    H     H_    0.314707 0.291318 0.294232 0.114317
C31   C     C_R   0.427078 0.227289 0.226590 -0.155688
H9    H     H_    0.285916 0.212944 0.211931 0.112987
C32   C     C_R   0.593576 0.201981 0.199468 0.146369
C33   C     C_R   0.776060 0.220075 0.218197 -0.154716
H10   H     H_    0.904718 0.200111 0.197010 0.114048
C34   C     C_R   0.792345 0.264140 0.264650 -0.155030
H11   H     H_    0.933509 0.278483 0.279308 0.113253
C35   C     C_R   0.625850 0.289447 0.291772 0.146390
C36   C     C_R   0.443364 0.271354 0.273043 -0.153932
C37   C     C_1   0.577960 0.156546 0.152829 -0.064570
C38   C     C_1   0.641509 0.334875 0.338415 -0.063247
C39   C     C_1   0.650989 0.373728 0.377382 -0.189210
C40   C     C_1   0.568623 0.117684 0.113866 -0.190302
O11   O     O_R   0.726340 0.046440 0.933120 -0.534816
O12   O     O_R   0.395690 0.055650 0.048950 -0.537786
O13   O     O_R   0.225700 0.936320 0.049330 -0.535499
C41   C     C_R   0.562691 0.071082 0.068286 0.744132
O14   O     O_R   0.396600 0.053690 0.933450 -0.536246
O15   O     O_R   0.226620 0.934340 0.933010 -0.523501
C42   C     C_R   0.565956 0.068693 0.914145 0.723697
O16   O     O_R   0.725420 0.048420 0.049440 -0.533883
O17   O     O_3   0.559650 0.952270 0.991250 -0.362158
V3    V     V_3+5 0.284670 0.998570 0.991180 1.426718
O18   O     O_R   0.896930 0.926880 0.933340 -0.525037
C43   C     C_R   0.067606 0.909023 0.911124 0.699212
O19   O     O_R   0.896010 0.928840 0.048840 -0.526100
C44   C     C_R   0.064331 0.914233 0.068614 0.724326
V4    V     V_3+5 0.784710 0.983880 0.991060 1.441857
O20   O     O_3   0.059600 0.030370 0.991120 -0.363442
C45   C     C_2   0.749765 0.745741 0.178460 0.740827
O21   O     O_2   0.641808 0.700708 0.180579 -0.556113
O22   O     O_R   0.698599 0.796434 0.145154 -0.668426
H12   H     H_    0.571157 0.789988 0.124895 0.295234

loop_
_geom_bond_atom_site_label_1
_geom_bond_atom_site_label_2
_ccdc_geom_bond_type
C12   C17   S    
C13   C14   A    
C7    C8    T    
C1    O6    A    
C32   C33   A    
C27   C30   T    
C12   C13   A    
C14   C15   A    
C37   C40   T    
H8    C36   S    
O19   V4    S    
C19   C44   S    
O5    C3    A    
C15   C16   A    
V2    O10   S    
O12   V3    S    
C34   H11   S    
C6    C7    S    
O17   V4    S    
O8    V2    S    
O12   C41   A    
O15   V3    S    
O1    V2    S    
O11   C42   A    
O7    V1    S    
C25   C28   S    
C35   C38   S    
C23   C24   A    
C9    C10   T    
C4    C5    S    
C24   C25   A    
C10   C43   S    
C32   C37   S    
C5    C6    T    
C33   C34   A    
C40   C41   S    
O18   C43   A    
C31   H9    S    
C17   C20   T    
C11   H2    S    
C45   O22   S    
C22   C23   A    
O4    C2    A    
V4    O20   S    
C45   O21   D    
C35   C36   A    
O13   V3    S    
C31   C32   A    
H1    C16   S    
O2    C1    A    
C2    C39   S    
C21   H5    S    
C28   C29   T    
C18   C19   T    
V3    O20   S    
H4    C26   S    
O19   C44   A    
C3    C20   S    
O3    C4    A    
C22   C27   S    
C23   H6    S    
O6    V2    S    
C30   C42   S    
O9    V2    S    
C31   C36   A    
C24   H7    S    
C21   C26   A    
O2    V1    S    
C25   C26   A    
C1    C29   S    
O13   C44   A    
C33   H10   S    
C15   C18   S    
O1    C2    A    
O11   V4    S    
C11   C12   A    
O17   V3    S    
O5    V1    S    
O8    C3    A    
O14   V3    S    
C11   C16   A    
O4    V1    S    
C21   C22   A    
O3    V1    S    
V1    O10   S    
C14   C45   S    
C34   C35   A    
O15   C43   A    
C41   O16   A    
O7    V2    S    
C38   C39   T    
C8    C9    S    
O14   C42   A    
O22   H12   S    
O18   V4    S    
C13   H3    S    
O9    C4    A    
O16   V4    S    
