data_mof_unit_46743.cif
_audit_creation_date              2012-10-26T18:52:11-0400
_audit_creation_method            fapswitch 2.2
_symmetry_space_group_name_H-M    P1
_symmetry_Int_Tables_number       1
_space_group_crystal_system       triclinic
_cell_length_a                    13.958727
_cell_length_b                    14.761332
_cell_length_c                    14.71449
_cell_angle_alpha                 115.587786
_cell_angle_beta                  107.200131
_cell_angle_gamma                 72.560083
_cell_volume                      2559.68439926

loop_
_atom_site_label
_atom_site_type_symbol
_atom_type_description
_atom_site_fract_x
_atom_site_fract_y
_atom_site_fract_z
_atom_type_partial_charge
C1    C     C_R   0.516167 0.118949 0.688737 0.575274
C2    C     C_R   0.448423 0.518581 0.855217 0.011054
C3    C     C_R   0.699801 0.399404 0.041614 -0.145410
C4    C     C_R   0.412285 0.623995 0.888587 -0.152342
C5    C     C_R   0.291412 0.325268 0.380573 0.195662
C6    C     C_R   0.700057 0.681746 0.638848 0.183199
C7    C     C_R   0.334516 0.230428 0.389580 0.081057
C8    C     C_R   0.663104 0.771079 0.616772 0.073742
C9    C     C_R   0.497521 0.273372 0.458326 0.402753
C10   C     C_R   0.499305 0.731125 0.545953 0.380466
C11   C     C_R   0.455911 0.376261 0.462705 -0.021920
C12   C     C_R   0.485715 0.880998 0.310817 0.581033
C13   C     C_R   0.536897 0.628807 0.543907 -0.054714
C14   C     C_R   0.353718 0.397446 0.411850 -0.032663
C15   C     C_R   0.638492 0.606763 0.598197 -0.043945
C16   C     C_R   0.686645 0.987185 0.504050 0.555001
C17   C     C_R   0.313516 0.013055 0.496355 0.550764
C18   C     C_R   0.513637 0.456561 0.513015 -0.004596
C19   C     C_R   0.475911 0.550243 0.494386 -0.014604
C20   C     C_R   0.381299 0.558605 0.423074 -0.037177
C21   C     C_R   0.605082 0.448295 0.586349 -0.024363
C22   C     C_R   0.319332 0.485465 0.386471 -0.037328
C23   C     C_R   0.550653 0.366231 0.903209 0.019349
C24   C     C_R   0.671795 0.515271 0.618281 -0.029928
C25   C     C_1   0.209445 0.020631 0.496629 -0.020830
C26   C     C_1   0.791137 0.980558 0.505322 -0.014226
C27   C     C_2   0.015037 0.039599 0.498633 0.289422
C28   C     C_2   0.986013 0.963756 0.505653 0.289447
C29   C     C_1   0.878992 0.974579 0.505547 -0.018406
C30   C     C_1   0.121839 0.027672 0.497732 -0.017661
C31   C     C_R   0.539931 0.187123 0.797525 0.007399
C32   C     C_R   0.478079 0.815094 0.199257 0.017211
C33   C     C_R   0.671367 0.226420 0.949942 -0.123924
C34   C     C_R   0.515266 0.647031 0.059332 0.007585
C35   C     C_R   0.396436 0.790860 0.022235 -0.135364
C36   C     C_R   0.619576 0.154496 0.867821 0.220292
C37   C     C_R   0.421155 0.856967 0.124066 0.223062
C38   C     C_R   0.494662 0.291545 0.826239 0.226741
C39   C     C_R   0.527238 0.709893 0.166569 0.208005
C40   C     C_3   0.018455 0.793527 0.490470 -0.003765
C41   C     C_3   0.103629 0.703887 0.500464 -0.348376
C42   C     C_3   0.983439 0.209515 0.512784 -0.010773
C43   C     C_3   0.899964 0.296392 0.493369 -0.356207
C44   C     C_3   0.132688 0.388571 0.419312 -0.000609
C45   C     C_R   0.640694 0.330752 0.965090 -0.054010
C46   C     C_3   0.019086 0.412963 0.375391 -0.366934
C47   C     C_3   0.804581 0.713421 0.798116 -0.007225
C48   C     C_3   0.915553 0.699766 0.853871 -0.341777
C49   C     C_1   0.345682 0.637891 0.380303 0.215977
C50   C     C_1   0.626858 0.379438 0.640361 0.263381
C51   C     C_3   0.542840 0.607664 0.253551 0.004925
C52   C     C_3   0.621767 0.547114 0.313814 -0.362739
C53   C     C_3   0.331722 0.326279 0.849181 -0.022657
C54   C     C_3   0.219647 0.349035 0.799660 -0.355069
C55   C     C_3   0.423106 0.000773 0.102249 -0.010252
C56   C     C_R   0.440851 0.687129 0.990296 -0.052147
C57   C     C_3   0.376314 0.113903 0.126682 -0.357536
C58   C     C_3   0.575424 0.039908 0.903097 -0.005646
C59   C     C_3   0.603878 0.931893 0.902164 -0.380958
C60   C     C_1   0.739195 0.569265 0.130097 0.260324
C61   C     C_1   0.418972 0.463584 0.746481 0.266784
C62   C     C_1   0.224544 0.496802 0.312958 0.246879
C63   C     C_1   0.772947 0.488422 0.675739 0.243549
C64   C     C_3   0.404607 0.834744 0.668131 -0.008027
C65   C     C_3   0.296880 0.877566 0.689955 -0.348046
C66   C     C_3   0.600512 0.174004 0.343673 -0.017875
C67   C     C_R   0.519626 0.474196 0.924393 0.011638
C68   C     C_3   0.709878 0.135314 0.326853 -0.346890
C69   C     C_1   0.726431 0.847164 0.665782 0.322534
C70   C     C_1   0.275222 0.151151 0.331271 0.327595
C71   C     C_R   0.567052 0.542685 0.019143 0.000308
C72   C     C_R   0.665597 0.504410 0.066797 0.012539
Cu1   Cu    Cu3+1 0.526370 0.916390 0.524860 1.018815
Cu2   Cu    Cu3+1 0.473630 0.083610 0.475140 1.041387
H1    H     H_    0.773330 0.370955 0.081938 0.115105
H2    H     H_    0.041527 0.192927 0.466699 0.135632
H3    H     H_    0.018612 0.235691 0.596054 0.141811
H4    H     H_    0.830865 0.303268 0.520376 0.202362
H5    H     H_    0.927890 0.369521 0.534684 0.124582
H6    H     H_    0.879872 0.281890 0.410124 0.121824
H7    H     H_    0.156195 0.461109 0.477769 0.136667
H8    H     H_    0.144394 0.334163 0.457422 0.126468
H9    H     H_    0.992249 0.341241 0.320517 0.158386
H10   H     H_    0.975121 0.450678 0.438408 0.099104
H11   H     H_    0.004782 0.465481 0.334854 0.186102
H12   H     H_    0.358898 0.657048 0.835034 0.104442
H13   H     H_    0.760225 0.680885 0.824170 0.136412
H14   H     H_    0.774623 0.796915 0.821455 0.135021
H15   H     H_    0.959921 0.735191 0.831263 0.162570
H16   H     H_    0.919244 0.737622 0.938137 0.108397
H17   H     H_    0.950768 0.617324 0.834755 0.184398
H18   H     H_    0.507913 0.552296 0.180063 0.117418
H19   H     H_    0.482799 0.655790 0.298533 0.183495
H20   H     H_    0.656439 0.600304 0.388846 0.173152
H21   H     H_    0.584639 0.498523 0.327471 0.096133
H22   H     H_    0.683171 0.496829 0.270109 0.150283
H23   H     H_    0.735989 0.200401 0.001471 0.138009
H24   H     H_    0.346125 0.390524 0.924437 0.133729
H25   H     H_    0.346478 0.253776 0.862049 0.107331
H26   H     H_    0.202761 0.285615 0.724730 0.147927
H27   H     H_    0.170281 0.356817 0.850580 0.114196
H28   H     H_    0.202144 0.421656 0.786882 0.163350
H29   H     H_    0.405917 0.962268 0.017248 0.112352
H30   H     H_    0.507583 0.992006 0.129220 0.113711
H31   H     H_    0.398476 0.158410 0.209531 0.130061
H32   H     H_    0.404613 0.142868 0.083250 0.074394
H33   H     H_    0.291577 0.125298 0.104792 0.185835
H34   H     H_    0.341832 0.821236 0.967452 0.121863
H35   H     H_    0.495934 0.051094 0.858508 0.111475
H36   H     H_    0.577184 0.094381 0.984528 0.113201
H37   H     H_    0.681157 0.919635 0.949743 0.151088
H38   H     H_    0.547949 0.920403 0.934307 0.075454
H39   H     H_    0.602508 0.875280 0.822267 0.128979
H40   H     H_    0.445902 0.785235 0.713162 0.097236
H41   H     H_    0.442942 0.900420 0.695165 0.160704
H42   H     H_    0.252041 0.925277 0.644535 0.200849
H43   H     H_    0.300126 0.925652 0.772896 0.076235
H44   H     H_    0.258706 0.813812 0.670024 0.164986
H45   H     H_    0.977310 0.771152 0.408949 0.158001
H46   H     H_    0.565133 0.106041 0.315351 0.167746
H47   H     H_    0.559553 0.221610 0.296625 0.092901
H48   H     H_    0.710995 0.082772 0.245619 0.085828
H49   H     H_    0.755614 0.093322 0.377443 0.214716
H50   H     H_    0.743533 0.200922 0.343138 0.156700
H51   H     H_    0.965459 0.808472 0.541211 0.149255
H52   H     H_    0.134099 0.715775 0.582600 0.132009
H53   H     H_    0.073182 0.632202 0.462167 0.108048
H54   H     H_    0.166256 0.696096 0.464039 0.201512
N1    N     N_R   0.433980 0.209250 0.437830 -0.275716
N2    N     N_1   0.226474 0.088658 0.283666 -0.249827
N3    N     N_R   0.566020 0.790750 0.562170 -0.285460
N4    N     N_1   0.314078 0.700753 0.345828 -0.268524
N5    N     N_1   0.644821 0.325164 0.683818 -0.247635
N6    N     N_1   0.798339 0.620908 0.180580 -0.286227
N7    N     N_1   0.393198 0.420537 0.659371 -0.288487
N8    N     N_1   0.149562 0.506265 0.254403 -0.272730
N9    N     N_1   0.852961 0.465197 0.721251 -0.312725
N10   N     N_1   0.778621 0.907063 0.706627 -0.258891
O1    O     O_R   0.534760 0.019630 0.662610 -0.499929
O2    O     O_3   0.940938 0.122735 0.483754 -0.588252
O3    O     O_3   0.188107 0.345082 0.338926 -0.554620
O4    O     O_3   0.800445 0.664289 0.690727 -0.556967
O5    O     O_3   0.590377 0.671575 0.239734 -0.543565
O6    O     O_3   0.392999 0.316727 0.783333 -0.545640
O7    O     O_3   0.381295 0.961251 0.151071 -0.521253
O8    O     O_3   0.645159 0.053637 0.859314 -0.526250
O9    O     O_3   0.400577 0.778643 0.561522 -0.515871
O10   O     O_3   0.598767 0.231674 0.449301 -0.532548
O11   O     O_R   0.465240 0.980370 0.337390 -0.481113
O12   O     O_R   0.490220 0.160840 0.620610 -0.441086
O13   O     O_R   0.509780 0.839160 0.379390 -0.465281
O14   O     O_R   0.663260 0.919400 0.523940 -0.503558
O15   O     O_R   0.336740 0.080600 0.476060 -0.516342
O16   O     O_R   0.618720 0.060610 0.481950 -0.462981
O17   O     O_R   0.381280 0.939390 0.518050 -0.451295
O18   O     O_3   0.060574 0.880484 0.519698 -0.584903

loop_
_geom_bond_atom_site_label_1
_geom_bond_atom_site_label_2
_ccdc_geom_bond_type
C66   C68   S    
Cu1   N3    S    
C11   C18   A    
C34   C56   A    
C23   C45   A    
C18   C21   A    
C33   C45   A    
Cu1   Cu2   S    
C41   H53   S    
C54   H27   S    
C57   H31   S    
C19   C20   A    
C41   H54   S    
C70   N2    T    
C17   O15   A    
C68   H50   S    
C7    C70   S    
C53   C54   S    
C53   H25   S    
C43   H4    S    
C47   O4    S    
C8    C69   S    
C28   C29   S    
C35   C37   A    
C44   H8    S    
C11   C14   A    
C55   O7    S    
C4    H12   S    
C60   C72   S    
C62   N8    T    
C58   H35   S    
C55   H29   S    
C1    C31   S    
C33   C36   A    
Cu2   O16   S    
C52   H21   S    
C18   C19   A    
C32   C39   A    
C23   C67   A    
C10   N3    A    
C35   H34   S    
C6    C15   A    
C44   O3    S    
C48   H17   S    
C59   H37   S    
C65   H44   S    
Cu2   O11   S    
C52   H20   S    
C26   C29   T    
C50   N5    T    
C6    O4    S    
C3    H1    S    
C66   O10   S    
C1    O1    A    
C2    C61   S    
C10   O9    S    
C69   N10   T    
C46   H11   S    
C57   H32   S    
C64   H41   S    
C66   H46   S    
Cu1   O13   S    
C27   C30   S    
C63   N9    T    
C12   O13   A    
C54   H26   S    
C41   H52   S    
C68   H49   S    
C21   C50   S    
C44   C46   S    
C16   C26   S    
C49   N4    T    
C64   H40   S    
C13   C19   A    
C42   O2    S    
C34   C39   A    
C2    C67   A    
C68   H48   S    
C5    C7    A    
C6    C8    A    
Cu1   O1    S    
C58   C59   S    
C55   H30   S    
C3    C45   A    
C51   C52   S    
Cu2   O15   S    
C47   H13   S    
C2    C4    A    
C20   C49   S    
C51   H18   S    
C22   C62   S    
C5    O3    S    
C47   C48   S    
C59   H39   S    
Cu1   O17   S    
C8    N3    A    
C59   H38   S    
C66   H47   S    
C1    O12   A    
C16   O14   A    
C32   C37   A    
C9    C11   A    
C5    C14   A    
C51   H19   S    
C46   H10   S    
C36   O8    S    
C40   C41   S    
C57   H33   S    
C39   O5    S    
C44   H7    S    
C24   C63   S    
C9    N1    A    
C48   H15   S    
C55   C57   S    
C64   O9    S    
C16   O16   A    
C65   H42   S    
C21   C24   A    
C12   C32   S    
C42   C43   S    
C17   O17   A    
C60   N6    T    
C61   N7    T    
C25   C30   T    
C15   C24   A    
C35   C56   A    
C58   H36   S    
C38   O6    S    
C12   O11   A    
C54   H28   S    
C40   O18   S    
C20   C22   A    
C10   C13   A    
C58   O8    S    
C51   O5    S    
C53   H24   S    
C23   C38   A    
C9    O10   S    
C42   H2    S    
C27   O2    S    
C31   C38   A    
C53   O6    S    
C17   C25   S    
C47   H14   S    
C14   C22   A    
C13   C15   A    
C3    C72   A    
C43   H6    S    
C71   C72   A    
Cu1   O14   S    
C64   C65   S    
C40   H51   S    
C52   H22   S    
C67   C71   A    
C7    N1    A    
C46   H9    S    
C40   H45   S    
C42   H3    S    
Cu2   N1    S    
C27   C28   D    
C28   O18   S    
C65   H43   S    
C31   C36   A    
Cu2   O12   S    
C48   H16   S    
C33   H23   S    
C37   O7    S    
C43   H5    S    
C34   C71   A    
C4    C56   A    
