data_mof_unit_28591.cif
_audit_creation_date              2012-10-26T18:27:12-0400
_audit_creation_method            fapswitch 2.2
_symmetry_space_group_name_H-M    P1
_symmetry_Int_Tables_number       1
_space_group_crystal_system       triclinic
_cell_length_a                    15.030463
_cell_length_b                    10.919305
_cell_length_c                    9.688049
_cell_angle_alpha                 90.783838
_cell_angle_beta                  90.189218
_cell_angle_gamma                 90.666053
_cell_volume                      1589.75826908

loop_
_atom_site_label
_atom_site_type_symbol
_atom_type_description
_atom_site_fract_x
_atom_site_fract_y
_atom_site_fract_z
_atom_type_partial_charge
C1    C     C_R   0.496891 0.265571 0.499044 0.544796
C2    C     C_R   0.185007 0.382829 0.488653 -0.018640
C3    C     C_R   0.232767 0.494529 0.499733 0.001933
C4    C     C_R   0.329130 0.498657 0.499796 0.540999
C5    C     C_R   0.189535 0.605981 0.511842 -0.148495
C6    C     C_2   0.501761 0.932572 0.398634 -0.171792
C7    C     C_2   0.529065 0.865682 0.506688 -0.010449
C8    C     C_2   0.513274 0.065173 0.393299 -0.187498
C9    C     C_2   0.484287 0.134626 0.497622 -0.136667
C10   C     C_2   0.448163 0.429321 0.920788 -0.013379
C11   C     C_2   0.449824 0.427038 0.076530 -0.018012
C12   C     C_R   0.908910 0.617741 0.497360 0.014564
C13   C     C_R   0.507989 0.734428 0.501744 0.554795
C14   C     C_R   0.670953 0.501950 0.499914 0.534372
C15   C     C_R   0.814879 0.618911 0.483170 -0.021465
C16   C     C_R   0.767384 0.507261 0.499133 0.007233
C17   C     C_R   0.811639 0.396637 0.510647 -0.139571
C18   C     C_R   0.903904 0.393795 0.506910 0.014103
C19   C     C_R   0.953316 0.504270 0.503614 0.040658
C20   C     C_3   0.766133 0.735612 0.444532 -0.256977
C21   C     C_3   0.787606 0.773680 0.296161 -0.293241
C22   C     C_3   0.735776 0.887183 0.255774 -0.458784
C23   C     C_R   0.947117 0.281492 0.506767 -0.138397
C24   C     C_3   0.588711 0.922179 0.621611 -0.259739
C25   C     C_3   0.627505 0.834367 0.728955 -0.291710
C26   C     C_3   0.698605 0.898185 0.817990 -0.475596
C27   C     C_3   0.234148 0.263278 0.462117 -0.250422
C28   C     C_3   0.222089 0.220417 0.311464 -0.294141
C29   C     C_3   0.269465 0.099923 0.283522 -0.462120
C30   C     C_3   0.100532 0.847123 0.540784 -0.256622
C31   C     C_3   0.131308 0.861676 0.691522 -0.290260
C32   C     C_3   0.180327 0.983105 0.715808 -0.461160
C33   C     C_R   0.039180 0.277225 0.499744 -0.140227
C34   C     C_R   0.090937 0.385811 0.497518 0.029090
C35   C     C_R   0.047134 0.500711 0.504562 0.031446
C36   C     C_R   0.096740 0.611704 0.511661 0.016549
C37   C     C_R   0.052189 0.725406 0.518535 -0.001214
C38   C     C_R   0.959433 0.726684 0.507253 -0.131307
Cu1   Cu    Cu3+1 0.500020 0.500020 0.638630 0.913551
Cu2   Cu    Cu3+1 0.499980 0.499980 0.361370 0.919888
H1    H     H_    0.401580 0.367942 0.868171 0.134226
H2    H     H_    0.755288 0.915439 0.150373 0.138296
H3    H     H_    0.859730 0.793811 0.284830 0.162276
H4    H     H_    0.769729 0.697416 0.223654 0.172757
H5    H     H_    0.693191 0.723194 0.450064 0.156176
H6    H     H_    0.782256 0.810754 0.518984 0.124494
H7    H     H_    0.755081 0.929262 0.753069 0.146435
H8    H     H_    0.670089 0.978326 0.873313 0.155054
H9    H     H_    0.724174 0.833175 0.895416 0.142731
H10   H     H_    0.573711 0.802385 0.798671 0.181939
H11   H     H_    0.657887 0.753605 0.678400 0.178589
H12   H     H_    0.406394 0.361442 0.126778 0.130897
H13   H     H_    0.645117 0.970155 0.570512 0.149118
H14   H     H_    0.551319 0.990801 0.682115 0.147051
H15   H     H_    0.542121 0.105384 0.301523 0.148539
H16   H     H_    0.449052 0.094561 0.583931 0.099019
H17   H     H_    0.544909 0.554986 0.894999 0.198372
H18   H     H_    0.068418 0.187426 0.497084 0.105410
H19   H     H_    0.342301 0.113063 0.295444 0.168017
H20   H     H_    0.245909 0.028470 0.355712 0.148154
H21   H     H_    0.255499 0.068354 0.176103 0.137142
H22   H     H_    0.150447 0.207535 0.286356 0.164049
H23   H     H_    0.538768 0.563149 0.107214 0.202731
H24   H     H_    0.249616 0.291289 0.241626 0.167547
H25   H     H_    0.306359 0.272740 0.483278 0.151384
H26   H     H_    0.211314 0.192203 0.534625 0.123442
H27   H     H_    0.230247 0.688184 0.518418 0.109219
H28   H     H_    0.239171 0.989645 0.647075 0.147826
H29   H     H_    0.135040 0.060624 0.696275 0.146175
H30   H     H_    0.203452 0.989397 0.824676 0.142428
H31   H     H_    0.072438 0.858046 0.760634 0.163862
H32   H     H_    0.176226 0.786056 0.720151 0.169502
H33   H     H_    0.157241 0.855702 0.468336 0.132339
H34   H     H_    0.773569 0.311863 0.518127 0.102345
H35   H     H_    0.055958 0.924675 0.516637 0.128909
H36   H     H_    0.909461 0.196250 0.509400 0.100838
H37   H     H_    0.927179 0.814496 0.510818 0.103922
H38   H     H_    0.468640 0.889361 0.310456 0.140190
H39   H     H_    0.663253 0.866823 0.255816 0.165383
H40   H     H_    0.750345 0.964121 0.328917 0.149008
N1    N     N_2   0.499020 0.498660 0.846910 -0.346571
N2    N     N_2   0.499000 0.498630 0.153040 -0.345129
O1    O     O_R   0.500020 0.321960 0.617040 -0.495542
O2    O     O_R   0.499980 0.321920 0.382900 -0.492531
O3    O     O_R   0.370270 0.499990 0.617090 -0.494583
O4    O     O_R   0.370240 0.499950 0.382940 -0.491704
O5    O     O_R   0.500020 0.678080 0.617100 -0.502912
O6    O     O_R   0.499980 0.678040 0.382960 -0.506750
O7    O     O_R   0.629760 0.500050 0.617060 -0.502193
O8    O     O_R   0.629730 0.500010 0.382910 -0.493970

loop_
_geom_bond_atom_site_label_1
_geom_bond_atom_site_label_2
_ccdc_geom_bond_type
C33   H18   S    
Cu2   O2    S    
C35   C36   A    
Cu1   O5    S    
C23   H36   S    
C5    H27   S    
C1    O2    A    
C36   C37   A    
C22   H39   S    
C18   C19   A    
C30   C31   S    
C6    H38   S    
C4    O4    A    
C24   H14   S    
C7    C24   S    
C5    C36   A    
C12   C19   A    
C34   C35   A    
Cu2   O4    S    
C25   H10   S    
C14   O8    A    
C11   H12   S    
C21   H3    S    
C29   H19   S    
C8    C9    D    
C23   C33   A    
C12   C15   A    
C2    C27   S    
C20   H5    S    
C26   H8    S    
C32   H28   S    
C2    C34   A    
C31   H31   S    
C21   C22   S    
C10   H1    S    
C8    H15   S    
C33   C34   A    
C11   N2    D    
C15   C20   S    
C29   H21   S    
H23   N2    S    
C18   C23   A    
Cu2   N2    S    
C1    C9    S    
C24   C25   S    
Cu1   N1    S    
C26   H9    S    
Cu1   Cu2   S    
C30   H33   S    
C16   C17   A    
C32   H30   S    
C4    O3    A    
C25   C26   S    
C30   C37   S    
C25   H11   S    
C14   O7    A    
C37   C38   A    
C27   H25   S    
C21   H4    S    
C31   C32   S    
C29   H20   S    
C13   O5    A    
C17   C18   A    
C9    H16   S    
C32   H29   S    
C26   H7    S    
C28   H24   S    
C31   H32   S    
C17   H34   S    
C14   C16   S    
Cu1   O3    S    
C3    C4    S    
C28   C29   S    
C3    C5    A    
C6    C8    S    
C6    C7    D    
C38   H37   S    
C1    O1    A    
C10   N1    D    
Cu2   O6    S    
C2    C3    A    
C24   H13   S    
Cu1   O1    S    
C27   H26   S    
C19   C35   A    
C30   H35   S    
C22   H2    S    
C13   O6    A    
H17   N1    S    
C12   C38   A    
C10   C11   S    
C22   H40   S    
C7    C13   S    
C20   C21   S    
C27   C28   S    
Cu2   O8    S    
Cu1   O7    S    
C20   H6    S    
C15   C16   A    
C28   H22   S    
