data_mof_unit_44167.cif
_audit_creation_date              2012-10-26T21:10:48-0400
_audit_creation_method            fapswitch 2.2
_symmetry_space_group_name_H-M    P1
_symmetry_Int_Tables_number       1
_space_group_crystal_system       triclinic
_cell_length_a                    10.827829
_cell_length_b                    14.677772
_cell_length_c                    14.656931
_cell_angle_alpha                 65.551772
_cell_angle_beta                  103.287049
_cell_angle_gamma                 102.832309
_cell_volume                      2042.46703387

loop_
_atom_site_label
_atom_site_type_symbol
_atom_type_description
_atom_site_fract_x
_atom_site_fract_y
_atom_site_fract_z
_atom_type_partial_charge
C1    C     C_R   0.477825 0.119418 0.312032 0.562861
C2    C     C_R   0.589604 0.783495 0.974589 -0.080273
C3    C     C_R   0.419678 0.149347 0.126388 0.358000
C4    C     C_R   0.579480 0.850576 0.873662 0.357948
C5    C     C_R   0.493681 0.290888 0.179232 -0.183266
C6    C     C_R   0.506274 0.709068 0.820707 -0.183166
C7    C     C_R   0.479204 0.360260 0.078216 0.023829
C8    C     C_R   0.519870 0.639662 0.921735 0.023784
C9    C     C_R   0.438926 0.321022 0.000848 0.002153
C10   C     C_R   0.559698 0.678877 0.999139 0.002113
C11   C     C_R   0.504801 0.466992 0.052116 0.061278
C12   C     C_R   0.522187 0.880575 0.687969 0.562900
C13   C     C_R   0.493950 0.532925 0.947815 0.061328
C14   C     C_R   0.458402 0.489860 0.873261 -0.097114
C15   C     C_R   0.539799 0.510029 0.126677 -0.097107
C16   C     C_R   0.262813 0.999124 0.502491 0.543609
C17   C     C_R   0.737185 0.000883 0.497500 0.543534
C18   C     C_R   0.429745 0.386254 0.899574 -0.101833
C19   C     C_R   0.568363 0.613631 0.100401 -0.101721
C20   C     C_R   0.696601 0.276948 0.680486 -0.133749
C21   C     C_R   0.303215 0.722994 0.319600 -0.133843
C22   C     C_R   0.670708 0.198950 0.645392 0.060560
C23   C     C_R   0.870626 0.001162 0.495586 0.002646
C24   C     C_R   0.329217 0.801030 0.354649 0.060484
C25   C     C_R   0.523732 0.287399 0.506343 0.043112
C26   C     C_R   0.476242 0.712588 0.493658 0.043063
C27   C     C_R   0.548347 0.371257 0.536353 -0.017213
C28   C     C_R   0.451498 0.628687 0.463704 -0.017253
C29   C     C_R   0.634355 0.363035 0.627706 0.040947
C30   C     C_R   0.365418 0.636886 0.372389 0.040929
C31   C     C_R   0.488193 0.460788 0.480783 -0.016010
C32   C     C_R   0.511591 0.539133 0.519297 -0.016031
C33   C     C_R   0.593096 0.524977 0.612751 -0.125357
C34   C     C_R   0.129370 0.998869 0.504378 0.002645
C35   C     C_R   0.406574 0.474900 0.387381 -0.125456
C36   C     C_R   0.654382 0.439738 0.665591 0.076932
C37   C     C_R   0.345257 0.560127 0.334564 0.076830
C38   C     C_R   0.351083 0.077566 0.771688 -0.065102
C39   C     C_R   0.648656 0.922605 0.228345 -0.065107
C40   C     C_R   0.261911 0.033030 0.711032 -0.048849
C41   C     C_R   0.737978 0.967108 0.288955 -0.048895
C42   C     C_R   0.186360 0.092894 0.624233 0.046526
C43   C     C_R   0.813611 0.907214 0.375674 0.046544
C44   C     C_R   0.199869 0.197419 0.600052 -0.091090
C45   C     C_R   0.906829 0.953582 0.441383 -0.030891
C46   C     C_R   0.800062 0.802697 0.399798 -0.091065
C47   C     C_R   0.289267 0.241583 0.660928 -0.113096
C48   C     C_R   0.710523 0.758567 0.338961 -0.113008
C49   C     C_R   0.365277 0.181782 0.746344 -0.099940
C50   C     C_R   0.634411 0.818394 0.253644 -0.099746
C51   C     C_R   0.963862 0.047622 0.552676 -0.140497
C52   C     C_R   0.036132 0.952417 0.447277 -0.140472
C53   C     C_R   0.093164 0.046475 0.558557 -0.030914
C54   C     C_R   0.463448 0.186527 0.204081 0.004633
C55   C     C_R   0.536319 0.813432 0.795918 0.004674
C56   C     C_R   0.409067 0.216398 0.025446 -0.080265
Cu1   Cu    Cu3+1 0.466270 0.918260 0.475690 0.970009
Cu2   Cu    Cu3+1 0.533730 0.081740 0.524310 0.970050
F1    F     F_    0.612222 0.951143 0.852739 -0.654319
F2    F     F_    0.386848 0.048774 0.147372 -0.654316
H1    H     H_    0.435337 0.216190 0.792782 0.120061
H2    H     H_    0.716949 0.132087 0.687595 0.171870
H3    H     H_    0.763996 0.268101 0.749501 0.154534
H4    H     H_    0.235766 0.731828 0.250614 0.154585
H5    H     H_    0.610567 0.578756 0.648218 0.120328
H6    H     H_    0.388970 0.421074 0.351961 0.120272
H7    H     H_    0.409199 0.031314 0.838363 0.177323
H8    H     H_    0.590443 0.968876 0.161756 0.177112
H9    H     H_    0.252274 0.952253 0.731136 0.109437
H10   H     H_    0.747634 0.047878 0.268902 0.109350
H11   H     H_    0.142405 0.244695 0.533470 0.119952
H12   H     H_    0.564217 0.784008 0.207256 0.119827
H13   H     H_    0.857578 0.755397 0.466322 0.119879
H14   H     H_    0.300337 0.322287 0.641480 0.121394
H15   H     H_    0.699406 0.677866 0.358376 0.121361
H16   H     H_    0.935964 0.082631 0.595680 0.138823
H17   H     H_    0.064030 0.917409 0.404272 0.138845
H18   H     H_    0.401301 0.356993 0.839795 0.109486
H19   H     H_    0.596345 0.642877 0.160194 0.109633
H20   H     H_    0.470821 0.684034 0.759109 0.131160
H21   H     H_    0.530146 0.315962 0.240741 0.131185
H22   H     H_    0.376739 0.186420 0.966326 0.131518
H23   H     H_    0.621543 0.813449 0.033742 0.131469
H24   H     H_    0.452045 0.533407 0.793054 0.104597
H25   H     H_    0.545479 0.466430 0.206848 0.104744
H26   H     H_    0.546897 0.715903 0.557485 0.124617
H27   H     H_    0.453161 0.284103 0.442469 0.124644
H28   H     H_    0.282985 0.867897 0.312452 0.172117
I1    I     I_    0.772393 0.432608 0.805768 -0.411671
I2    I     I_    0.226926 0.567128 0.194534 -0.411845
N1    N     N_R   0.584450 0.204570 0.560790 -0.236763
N2    N     N_R   0.415550 0.795430 0.439210 -0.236762
O1    O     O_R   0.455540 0.022090 0.338120 -0.442788
O2    O     O_R   0.544460 0.977910 0.661880 -0.442754
O3    O     O_R   0.512510 0.160150 0.379180 -0.532421
O4    O     O_R   0.487490 0.839850 0.620820 -0.532455
O5    O     O_R   0.291160 0.930970 0.479480 -0.514563
O6    O     O_R   0.708840 0.069030 0.520520 -0.514612
O7    O     O_R   0.348130 0.069020 0.520540 -0.495204
O8    O     O_R   0.651870 0.930980 0.479460 -0.495244

loop_
_geom_bond_atom_site_label_1
_geom_bond_atom_site_label_2
_ccdc_geom_bond_type
C36   I1    S    
C8    C13   A    
C23   C45   A    
Cu1   N2    S    
C27   C29   A    
C39   H8    S    
C14   C18   A    
C2    C4    A    
Cu2   O6    S    
C14   H24   S    
C6    C55   A    
C1    C54   S    
C33   H5    S    
C39   C41   A    
C38   C49   A    
C15   C19   A    
C29   C36   A    
C17   C23   S    
C37   I2    S    
C35   C37   A    
C42   C53   S    
C3    C54   A    
C16   O5    A    
C26   N2    A    
C25   H27   S    
C33   C36   A    
C44   H11   S    
C50   H12   S    
C21   H4    S    
C16   C34   S    
C6    H20   S    
Cu1   O4    S    
C22   N1    A    
C17   O6    A    
C44   C47   A    
C18   H18   S    
C15   H25   S    
C3    F2    S    
C40   C42   A    
Cu1   O1    S    
C13   C14   A    
C41   C43   A    
C48   H15   S    
C12   O2    A    
C2    H23   S    
C42   C44   A    
C24   N2    A    
C43   C46   A    
C20   C29   A    
C46   C48   A    
C25   N1    A    
C49   H1    S    
C40   H9    S    
C27   C31   A    
C5    C54   A    
C28   C32   A    
C51   H16   S    
C47   C49   A    
C5    C7    A    
C6    C8    A    
C26   H26   S    
C45   C52   A    
Cu1   O8    S    
C30   C37   A    
C51   C53   A    
C7    C11   A    
Cu2   O3    S    
C22   H2    S    
C5    H21   S    
C3    C56   A    
C23   C51   A    
C31   C32   A    
C10   C19   A    
C1    O3    A    
Cu1   O5    S    
C9    C56   A    
C19   H19   S    
C43   C45   S    
C1    O1    A    
C20   C22   A    
C11   C15   A    
C4    C55   A    
C31   C35   A    
C52   H17   S    
C2    C10   A    
Cu2   N1    S    
C7    C9    A    
C26   C28   A    
C24   H28   S    
Cu2   O7    S    
C47   H14   S    
C16   O7    A    
C56   H22   S    
C25   C27   A    
C21   C30   A    
C34   C52   A    
C35   H6    S    
C32   C33   A    
C20   H3    S    
C28   C30   A    
Cu2   O2    S    
C38   C40   A    
C11   C13   A    
Cu1   Cu2   S    
C4    F1    S    
C48   C50   A    
C17   O8    A    
C12   C55   S    
C9    C18   A    
C39   C50   A    
C38   H7    S    
C34   C53   A    
C8    C10   A    
C21   C24   A    
C12   O4    A    
C46   H13   S    
C41   H10   S    
