data_mof_unit_35761.cif
_audit_creation_date              2012-12-10T18:23:19-0500
_audit_creation_method            fapswitch 2.2
_symmetry_space_group_name_H-M    P1
_symmetry_Int_Tables_number       1
_space_group_crystal_system       triclinic
_cell_length_a                    27.692074
_cell_length_b                    10.63972
_cell_length_c                    9.48227
_cell_angle_alpha                 90.756814
_cell_angle_beta                  89.907539
_cell_angle_gamma                 89.942162
_cell_volume                      2793.56844041

loop_
_atom_site_label
_atom_site_type_symbol
_atom_type_description
_atom_site_fract_x
_atom_site_fract_y
_atom_site_fract_z
_atom_type_partial_charge
C1    C     C_R   0.500706 0.259931 0.498869 0.875099
C2    C     C_R   0.499252 0.740074 0.501158 0.804866
C3    C     C_R   0.100842 0.525643 0.590999 -0.044028
C4    C     C_R   0.897585 0.534536 0.587445 -0.041888
C5    C     C_R   0.125772 0.415388 0.626063 -0.074402
C6    C     C_R   0.872529 0.644224 0.551019 -0.076892
C7    C     C_R   0.101044 0.318465 0.693120 -0.092988
C8    C     C_R   0.897167 0.758756 0.548641 -0.097085
C9    C     C_R   0.126769 0.628030 0.537257 -0.012196
C10   C     C_R   0.871806 0.421798 0.603540 -0.021333
C11   C     C_R   0.353774 0.505752 0.503767 -0.077851
C12   C     C_R   0.645381 0.502763 0.502934 -0.044364
C13   C     C_R   0.973313 0.424955 0.640786 0.023889
C14   C     C_R   0.025124 0.644092 0.568939 0.038788
C15   C     C_R   0.974031 0.650790 0.584830 -0.051278
C16   C     C_R   0.024329 0.427364 0.658587 -0.047964
C17   C     C_R   0.948420 0.537054 0.605575 0.098185
C18   C     C_R   0.049988 0.532772 0.607411 0.099583
C19   C     C_R   0.946761 0.311860 0.644947 -0.202145
C20   C     C_R   0.051848 0.740805 0.504536 -0.216458
C21   C     C_R   0.896835 0.310878 0.631509 -0.090139
C22   C     C_R   0.101842 0.734915 0.493768 -0.108156
C23   C     C_R   0.407388 0.503175 0.500278 0.847184
C24   C     C_R   0.592328 0.499112 0.500243 0.850252
C25   C     C_R   0.051282 0.327005 0.718845 -0.038372
C26   C     C_R   0.946956 0.764589 0.574591 -0.028470
C27   C     C_3   0.533215 0.043813 0.593235 -0.161816
C28   C     C_3   0.466748 0.956229 0.407187 -0.304238
C29   C     C_3   0.543498 0.955435 0.465642 0.013040
C30   C     C_3   0.456464 0.044546 0.534791 -0.008851
C31   C     C_3   0.499192 0.876702 0.503769 -0.156231
C32   C     C_3   0.500764 0.123315 0.496450 -0.115848
C33   C     C_3   0.488441 0.963999 0.630503 0.015346
C34   C     C_3   0.511520 0.035875 0.369874 0.006302
C35   C     C_3   0.497033 0.614065 0.052712 -0.090763
C36   C     C_3   0.502906 0.386235 0.947115 -0.097362
C37   C     C_3   0.461133 0.550009 0.951207 0.025432
C38   C     C_3   0.538728 0.450280 0.048229 0.012963
C39   C     C_3   0.535904 0.562952 0.951339 0.073708
C40   C     C_3   0.463960 0.437196 0.048449 0.088459
C41   C     C_R   0.175525 0.406426 0.597952 0.586587
C42   C     C_R   0.822752 0.637601 0.522781 0.588137
C43   C     C_R   0.177139 0.619607 0.524037 0.596349
C44   C     C_R   0.821490 0.421792 0.586929 0.593781
C45   C     C_R   0.273881 0.532717 0.396113 -0.030432
C46   C     C_R   0.725323 0.431499 0.425683 -0.040827
C47   C     C_R   0.324874 0.546962 0.389291 -0.130369
C48   C     C_R   0.674431 0.414709 0.427910 -0.087899
C49   C     C_R   0.331017 0.463286 0.626448 -0.159810
C50   C     C_R   0.667070 0.597726 0.583877 -0.235762
C51   C     C_R   0.281222 0.465309 0.639482 -0.113166
C52   C     C_R   0.716876 0.604969 0.594669 -0.079661
C53   C     C_R   0.252049 0.499168 0.525954 0.321986
C54   C     C_R   0.746550 0.523071 0.516822 0.317816
Cu1   Cu    Cu3+1 0.500010 0.499990 0.643150 0.976590
Cu2   Cu    Cu3+1 0.499990 0.500010 0.356850 0.982206
H1    H     H_    0.351874 0.429542 0.714624 0.229143
H2    H     H_    0.645228 0.665956 0.640891 0.174779
H3    H     H_    0.560316 0.081810 0.668693 0.192052
H4    H     H_    0.439610 0.918499 0.331692 0.207992
H5    H     H_    0.878131 0.221729 0.637817 0.212408
H6    H     H_    0.120703 0.812636 0.445769 0.199099
N1    N     N_R   0.200424 0.507929 0.547711 -0.441505
N2    N     N_R   0.798086 0.527201 0.540649 -0.443568
N3    N     N_3   0.500040 0.499970 0.858290 -0.233932
N4    N     N_3   0.499960 0.500030 0.141710 -0.229333
O1    O     O_R   0.500020 0.316850 0.620870 -0.552564
O2    O     O_R   0.499980 0.683150 0.379130 -0.565361
O3    O     O_R   0.500000 0.316860 0.379090 -0.615634
O4    O     O_R   0.500000 0.683140 0.620910 -0.617447
O5    O     O_R   0.430270 0.500020 0.620880 -0.580316
O6    O     O_R   0.569730 0.499980 0.379120 -0.566549
O7    O     O_R   0.430250 0.500030 0.379090 -0.577044
O8    O     O_R   0.569750 0.499970 0.620910 -0.606373
O9    O     O_2   0.198696 0.296774 0.619881 -0.514516
O10   O     O_2   0.799323 0.740548 0.476983 -0.509438
O11   O     O_2   0.796168 0.317085 0.616769 -0.529178
O12   O     O_2   0.202609 0.722343 0.487676 -0.530192
C55   C     C_2   0.476888 0.923795 0.777657 0.376779
H7    H     H_    0.502416 0.866722 0.834835 0.117841
O13   O     O_2   0.439062 0.955124 0.834121 -0.491576
C56   C     C_2   0.523319 0.075629 0.222756 0.384695
H8    H     H_    0.498165 0.133810 0.165595 0.119696
O14   O     O_2   0.560945 0.042605 0.166313 -0.532341
C57   C     C_2   0.417647 0.614617 0.893360 0.429594
H9    H     H_    0.422055 0.695236 0.826007 0.109190
O15   O     O_2   0.377207 0.577255 0.921243 -0.592355
C58   C     C_2   0.582659 0.386416 0.102716 0.397396
H10   H     H_    0.578785 0.300163 0.160695 0.121711
O16   O     O_2   0.622713 0.429510 0.080382 -0.568191
H11   H     H_    0.494394 0.709827 0.100084 0.172330
H12   H     H_    0.505668 0.290523 0.899652 0.176633
C59   C     C_2   0.578181 0.634635 0.896195 0.452679
H13   H     H_    0.607714 0.584629 0.845882 0.106677
O17   O     O_2   0.580524 0.748365 0.912394 -0.556225
C60   C     C_2   0.422722 0.360562 0.102622 0.454338
H14   H     H_    0.393887 0.404693 0.161927 0.078488
O18   O     O_2   0.420555 0.248175 0.076369 -0.538019
H15   H     H_    0.265144 0.439829 0.739278 0.179882
H16   H     H_    0.732570 0.674750 0.664944 0.179470
H17   H     H_    0.121077 0.238848 0.732754 0.224243
H18   H     H_    0.877050 0.845042 0.534085 0.223840
C61   C     C_2   0.652349 0.302023 0.359830 0.402568
H19   H     H_    0.667256 0.262451 0.263305 0.100595
O19   O     O_2   0.617757 0.249760 0.413328 -0.546067
C62   C     C_2   0.346743 0.610213 0.266129 0.361393
H20   H     H_    0.334287 0.588282 0.160546 0.108531
O20   O     O_2   0.377520 0.691235 0.282215 -0.523461
C63   C     C_2   0.756306 0.353021 0.330885 0.448139
H21   H     H_    0.746357 0.257337 0.303570 0.076710
O21   O     O_2   0.793370 0.395546 0.280524 -0.510077
C64   C     C_2   0.243497 0.553960 0.269049 0.420450
H22   H     H_    0.254300 0.620504 0.189469 0.075696
O22   O     O_2   0.206122 0.495193 0.250753 -0.515154
H23   H     H_    0.964213 0.221659 0.652258 0.198101
H24   H     H_    0.034581 0.819935 0.455533 0.165120
C65   C     C_2   0.030237 0.241235 0.825099 0.368900
H25   H     H_    0.997084 0.266653 0.879607 0.094218
O23   O     O_2   0.049962 0.142273 0.854546 -0.520988
C66   C     C_2   0.967844 0.889490 0.610693 0.353660
H26   H     H_    0.000815 0.896115 0.672027 0.115788
O24   O     O_2   0.948140 0.986412 0.574057 -0.553151
C67   C     C_2   0.591855 0.901037 0.428238 0.462074
H27   H     H_    0.595172 0.836286 0.339427 0.098005
O25   O     O_2   0.627486 0.928680 0.497445 -0.500381
C68   C     C_2   0.407526 0.096805 0.569298 0.439425
H28   H     H_    0.376253 0.065416 0.509901 0.085829
O26   O     O_2   0.402591 0.173886 0.664667 -0.492727

loop_
_geom_bond_atom_site_label_1
_geom_bond_atom_site_label_2
_ccdc_geom_bond_type
Cu1   Cu2   S    
C30   C68   S    
C59   H13   S    
C27   C29   S    
C65   H25   S    
C8    C26   A    
C14   C18   A    
C11   C47   A    
C12   C48   A    
C64   O22   D    
C45   C64   S    
C43   N1    A    
C67   H27   S    
C57   H9    S    
C27   C33   S    
C43   O12   S    
C68   H28   S    
C62   O20   D    
C11   C49   A    
C37   C57   S    
C44   O11   S    
C35   C37   S    
C26   C66   S    
C37   C40   S    
C2    O2    A    
C65   O23   D    
C38   C39   S    
C9    C22   A    
C67   O25   D    
C41   O9    S    
C62   H20   S    
C20   H24   S    
C49   H1    S    
C3    C18   A    
C11   C23   S    
C39   C59   S    
C63   O21   D    
Cu1   O8    S    
C38   N4    S    
C52   C54   A    
C49   C51   A    
C60   O18   D    
C50   C52   A    
C31   C33   S    
C21   H5    S    
C36   H12   S    
C45   C47   A    
C28   C34   S    
C59   O17   D    
C40   N4    S    
C39   N3    S    
C23   O7    A    
C64   H22   S    
Cu1   N3    S    
C66   O24   D    
C57   O15   D    
C10   C21   A    
C51   H15   S    
C46   C48   A    
C9    C43   A    
C13   C19   A    
C10   C44   A    
C50   H2    S    
C14   C20   A    
C36   C40   S    
C4    C6    A    
C55   O13   D    
C36   N3    S    
C33   C55   S    
C15   C26   A    
C6    C8    A    
C35   N4    S    
Cu2   O6    S    
Cu2   O2    S    
C48   C61   S    
C29   C34   S    
C52   H16   S    
C1    C32   S    
C1    O3    A    
C37   N3    S    
C2    C31   S    
C51   C53   A    
C32   C34   S    
C35   C39   S    
C3    C9    A    
C23   O5    A    
C22   H6    S    
Cu1   O1    S    
C19   H23   S    
C47   C62   S    
C60   H14   S    
C46   C54   A    
C61   O19   D    
C28   H4    S    
C4    C17   A    
C58   O16   D    
C56   H8    S    
C56   O14   D    
C7    H17   S    
C13   C16   A    
C41   N1    A    
C4    C10   A    
C44   N2    A    
C42   N2    A    
C66   H26   S    
C24   O6    A    
C5    C7    A    
C16   C25   A    
C15   C17   A    
C5    C41   A    
C68   O26   D    
Cu2   O7    S    
C30   C33   S    
C19   C21   A    
C27   C32   S    
C28   C31   S    
C20   C22   A    
C3    C5    A    
C25   C65   S    
C12   C50   A    
C12   C24   S    
C42   O10   S    
C7    C25   A    
C13   C17   A    
C36   C38   S    
C40   C60   S    
C29   C31   S    
C27   H3    S    
C63   H21   S    
C30   C32   S    
C53   N1    S    
C24   O8    A    
C54   N2    S    
Cu2   N4    S    
C29   C67   S    
C28   C30   S    
C1    O1    A    
Cu1   O4    S    
C45   C53   A    
C55   H7    S    
C58   H10   S    
C16   C18   A    
Cu2   O3    S    
C6    C42   A    
C46   C63   S    
C38   C58   S    
C61   H19   S    
C14   C15   A    
C34   C56   S    
C2    O4    A    
C8    H18   S    
Cu1   O5    S    
C35   H11   S    
