data_mof_unit_55958.cif
_audit_creation_date              2012-12-11T15:22:41-0500
_audit_creation_method            fapswitch 2.2
_symmetry_space_group_name_H-M    P1
_symmetry_Int_Tables_number       1
_space_group_crystal_system       triclinic
_cell_length_a                    22.474366
_cell_length_b                    12.988081
_cell_length_c                    27.022818
_cell_angle_alpha                 89.97793
_cell_angle_beta                  90.699645
_cell_angle_gamma                 89.920009
_cell_volume                      7887.3340648

loop_
_atom_site_label
_atom_site_type_symbol
_atom_type_description
_atom_site_fract_x
_atom_site_fract_y
_atom_site_fract_z
_atom_type_partial_charge
C1    C     C_R   0.720581 0.344928 0.178191 0.539322
C2    C     C_R   0.481807 0.255595 0.897103 -0.150135
C3    C     C_R   0.007465 0.582341 0.555459 -0.137977
C4    C     C_R   0.504051 0.083171 0.394245 -0.171594
C5    C     C_R   0.496347 0.083023 0.605947 -0.178233
C6    C     C_R   0.003228 0.584259 0.394128 -0.177970
C7    C     C_R   0.995085 0.581443 0.605759 -0.179478
C8    C     C_R   0.734957 0.980715 0.375975 0.041438
C9    C     C_R   0.259682 0.955679 0.628335 0.024677
C10   C     C_R   0.240349 0.455693 0.371674 0.024565
C11   C     C_R   0.762029 0.460812 0.626756 0.025375
C12   C     C_R   0.722225 0.883121 0.394903 -0.131805
C13   C     C_R   0.022308 0.758097 0.102783 -0.133798
C14   C     C_R   0.309790 0.920327 0.602851 -0.125586
C15   C     C_R   0.190236 0.420589 0.397167 -0.125643
C16   C     C_R   0.813775 0.435608 0.600668 -0.125047
C17   C     C_R   0.721252 0.868669 0.446120 -0.114149
C18   C     C_R   0.306557 0.904067 0.552320 -0.122986
C19   C     C_R   0.193448 0.404409 0.447703 -0.122855
C20   C     C_R   0.811553 0.423282 0.549850 -0.124620
C21   C     C_R   0.731264 0.952608 0.478161 0.031608
C22   C     C_R   0.252758 0.919833 0.526713 0.037615
C23   C     C_R   0.247237 0.419952 0.473307 0.037626
C24   C     C_R   0.981811 0.755592 0.897103 -0.150068
C25   C     C_R   0.757228 0.432162 0.524289 0.034874
C26   C     C_R   0.740947 0.050730 0.458581 -0.126508
C27   C     C_R   0.201267 0.945761 0.552908 -0.119647
C28   C     C_R   0.298740 0.445587 0.447109 -0.119737
C29   C     C_R   0.704591 0.448464 0.550896 -0.119479
C30   C     C_R   0.743314 0.064238 0.408008 -0.112925
C31   C     C_R   0.204800 0.964403 0.603504 -0.128394
C32   C     C_R   0.295224 0.464194 0.396503 -0.128754
C33   C     C_R   0.707082 0.464079 0.601841 -0.127231
C34   C     C_R   0.782855 0.986796 0.557867 -0.120525
C35   C     C_R   0.509999 0.259186 0.051821 0.012620
C36   C     C_R   0.215667 0.978943 0.444253 -0.121740
C37   C     C_R   0.284357 0.478897 0.555721 -0.120638
C38   C     C_R   0.714831 0.484493 0.442442 -0.123353
C39   C     C_R   0.721531 0.348448 0.321299 0.544352
C40   C     C_R   0.278862 0.346960 0.678192 0.548857
C41   C     C_R   0.221137 0.846957 0.321814 0.549450
C42   C     C_R   0.778727 0.847487 0.678326 0.549269
C43   C     C_R   0.793291 0.964099 0.607279 -0.115284
C44   C     C_R   0.209653 0.964059 0.393513 -0.115617
C45   C     C_R   0.290387 0.463979 0.606460 -0.114663
C46   C     C_R   0.492416 0.257540 0.948374 0.008438
C47   C     C_R   0.707448 0.466878 0.392065 -0.115009
C48   C     C_R   0.709154 0.847126 0.606153 -0.128183
C49   C     C_R   0.278973 0.820835 0.398637 -0.126011
C50   C     C_R   0.220918 0.321293 0.601428 -0.126296
C51   C     C_R   0.787743 0.342095 0.394887 -0.142735
C52   C     C_R   0.698478 0.870420 0.556580 -0.122445
C53   C     C_R   0.283893 0.834180 0.449293 -0.122307
C54   C     C_R   0.216006 0.334631 0.550769 -0.122304
C55   C     C_R   0.793858 0.357193 0.445474 -0.129369
C56   C     C_R   0.736607 0.937620 0.531755 0.036875
C57   C     C_R   0.010008 0.759186 0.051820 0.012630
C58   C     C_R   0.250911 0.911280 0.472691 0.037774
C59   C     C_R   0.249058 0.411463 0.527328 0.037958
C60   C     C_R   0.755690 0.425311 0.470027 0.039006
C61   C     C_R   0.758213 0.890666 0.631163 0.027043
C62   C     C_R   0.239572 0.882386 0.370800 0.031771
C63   C     C_R   0.260399 0.382540 0.629218 0.030872
C64   C     C_R   0.741548 0.391051 0.368671 0.027068
C65   C     C_R   0.554887 0.159126 0.321886 0.565194
C66   C     C_R   0.445151 0.159081 0.678138 0.566510
C67   C     C_R   0.055005 0.659137 0.321941 0.565636
C68   C     C_R   0.992421 0.757538 0.948373 0.008432
C69   C     C_R   0.945331 0.659038 0.678227 0.566065
C70   C     C_R   0.731291 0.004068 0.323589 0.536890
C71   C     C_R   0.268310 0.002061 0.677027 0.545163
C72   C     C_R   0.231707 0.502088 0.322969 0.544867
C73   C     C_R   0.768684 0.502951 0.676609 0.544941
C74   C     C_R   0.509607 0.072237 0.104219 -0.130213
C75   C     C_R   0.476937 0.068692 0.899551 -0.132114
C76   C     C_R   0.009600 0.572241 0.104221 -0.130214
C77   C     C_R   0.976921 0.568691 0.899554 -0.132098
C78   C     C_R   0.499070 0.071701 0.053435 0.013246
C79   C     C_R   0.500185 0.165212 0.026887 0.062579
C80   C     C_R   0.485271 0.069569 0.950508 0.009812
C81   C     C_R   0.999062 0.571704 0.053438 0.013226
C82   C     C_R   0.985257 0.569570 0.950512 0.009802
C83   C     C_R   0.484089 0.977171 0.977245 -0.144417
C84   C     C_R   0.490470 0.978306 0.028494 -0.137014
C85   C     C_R   0.984067 0.477174 0.977249 -0.144391
C86   C     C_R   0.990450 0.478310 0.028499 -0.137011
C87   C     C_R   0.492669 0.164220 0.975229 0.063947
C88   C     C_R   0.000184 0.665214 0.026888 0.062584
C89   C     C_R   0.280434 0.342744 0.822523 0.534040
C90   C     C_R   0.992666 0.664220 0.975231 0.063962
C91   C     C_R   0.510094 0.351689 0.024906 -0.139830
C92   C     C_R   0.500832 0.350944 0.973590 -0.146283
C93   C     C_R   0.010112 0.851686 0.024903 -0.139809
C94   C     C_R   0.000848 0.850940 0.973587 -0.146319
C95   C     C_R   0.741810 0.952607 0.131405 0.024098
C96   C     C_R   0.261494 0.958548 0.870464 0.024665
C97   C     C_R   0.241798 0.452595 0.131405 0.024198
C98   C     C_R   0.761485 0.458553 0.870465 0.024629
C99   C     C_R   0.793578 0.977017 0.105500 -0.126897
C100  C     C_R   0.220580 0.844930 0.178191 0.539246
C101  C     C_R   0.206375 0.964225 0.894103 -0.123162
C102  C     C_R   0.293613 0.476817 0.105531 -0.127041
C103  C     C_R   0.706381 0.464353 0.894120 -0.123203
C104  C     C_R   0.798521 0.951238 0.055959 -0.119306
C105  C     C_R   0.202758 0.945797 0.944802 -0.115917
C106  C     C_R   0.298563 0.451033 0.055988 -0.119285
C107  C     C_R   0.702769 0.445942 0.944820 -0.115920
C108  C     C_R   0.752413 0.898295 0.031343 0.037627
C109  C     C_R   0.254351 0.922935 0.972685 0.036522
C110  C     C_R   0.252403 0.398298 0.031340 0.037582
C111  C     C_R   0.780438 0.842735 0.822526 0.534080
C112  C     C_R   0.754352 0.422959 0.972688 0.036522
C113  C     C_R   0.702068 0.868149 0.057942 -0.118675
C114  C     C_R   0.308804 0.911743 0.948453 -0.119624
C115  C     C_R   0.202004 0.368334 0.057909 -0.118713
C116  C     C_R   0.808786 0.411640 0.948442 -0.119587
C117  C     C_R   0.553536 0.157439 0.177607 0.544593
C118  C     C_R   0.445893 0.156983 0.822761 0.540152
C119  C     C_R   0.053537 0.657439 0.177607 0.545013
C120  C     C_R   0.945892 0.656983 0.822762 0.540469
C121  C     C_R   0.696719 0.895355 0.107673 -0.126207
C122  C     C_R   0.472163 0.161287 0.872816 -0.004818
C123  C     C_R   0.312232 0.928339 0.897769 -0.124802
C124  C     C_R   0.196657 0.395524 0.107641 -0.126048
C125  C     C_R   0.812209 0.428232 0.897757 -0.124762
C126  C     C_R   0.707160 0.888573 0.945738 -0.114806
C127  C     C_R   0.285586 0.836761 0.051417 -0.118963
C128  C     C_R   0.207184 0.388870 0.945719 -0.114799
C129  C     C_R   0.785519 0.336648 0.051398 -0.118971
C130  C     C_R   0.713807 0.878289 0.894498 -0.129709
C131  C     C_R   0.279480 0.821321 0.102021 -0.125732
C132  C     C_R   0.213834 0.378571 0.894480 -0.129739
C133  C     C_R   0.524559 0.164097 0.128679 -0.004215
C134  C     C_R   0.779412 0.321193 0.101999 -0.125710
C135  C     C_R   0.819568 0.850464 0.907115 -0.115997
C136  C     C_R   0.207339 0.960051 0.105170 -0.125557
C137  C     C_R   0.319531 0.350179 0.907125 -0.115991
C138  C     C_R   0.707414 0.460127 0.105189 -0.125632
C139  C     C_R   0.812771 0.857083 0.957768 -0.124927
C140  C     C_R   0.214079 0.976431 0.054601 -0.116430
C141  C     C_R   0.312729 0.356833 0.957778 -0.124932
C142  C     C_R   0.714159 0.476526 0.054621 -0.116393
C143  C     C_R   0.756930 0.878958 0.977715 0.031131
C144  C     C_R   0.972157 0.661285 0.872817 -0.004827
C145  C     C_R   0.251600 0.912379 0.026963 0.038289
C146  C     C_R   0.256920 0.378984 0.977710 0.031088
C147  C     C_R   0.751608 0.412385 0.026965 0.038289
C148  C     C_R   0.770492 0.861862 0.875036 0.035800
C149  C     C_R   0.238531 0.880094 0.128941 0.025019
C150  C     C_R   0.270492 0.361849 0.875035 0.035811
C151  C     C_R   0.738534 0.380069 0.128939 0.024940
C152  C     C_R   0.529321 0.169740 0.371542 0.058719
C153  C     C_R   0.470931 0.169654 0.628564 0.058264
C154  C     C_R   0.029847 0.669905 0.371725 0.058589
C155  C     C_R   0.024560 0.664099 0.128679 -0.004218
C156  C     C_R   0.971642 0.669267 0.628826 0.058537
C157  C     C_R   0.539299 0.260291 0.399647 0.238057
C158  C     C_R   0.461072 0.260306 0.600439 0.239244
C159  C     C_R   0.041430 0.759455 0.400171 0.241224
C160  C     C_R   0.964072 0.761143 0.601213 0.239695
C161  C     C_R   0.527901 0.259113 0.450410 -0.112360
C162  C     C_R   0.472763 0.259203 0.549727 -0.111358
C163  C     C_R   0.030038 0.758131 0.450920 -0.108710
C164  C     C_R   0.975584 0.760178 0.550452 -0.110851
C165  C     C_R   0.731367 0.001612 0.179511 0.544071
C166  C     C_R   0.522298 0.258096 0.102785 -0.133866
C167  C     C_R   0.268995 0.002253 0.820800 0.543194
C168  C     C_R   0.231366 0.501611 0.179510 0.543963
C169  C     C_R   0.768994 0.502255 0.820801 0.543460
C170  C     C_R   0.505250 0.170963 0.473233 0.007806
C171  C     C_R   0.495532 0.170992 0.526973 0.007516
C172  C     C_R   0.005768 0.670971 0.473432 0.008169
C173  C     C_R   0.996120 0.670805 0.527203 0.007856
C174  C     C_R   0.491848 0.083940 0.444598 -0.133194
C175  C     C_R   0.508822 0.083853 0.555643 -0.136685
C176  C     C_R   0.990930 0.585020 0.444480 -0.136425
Cr1   Cr    Cr6+3 0.756570 0.170940 0.251190 1.011184
Cr2   Cr    Cr6+3 0.374010 0.036240 0.749520 1.008585
Cr3   Cr    Cr6+3 0.125990 0.536240 0.250480 1.009900
Cr4   Cr    Cr6+3 0.874010 0.536240 0.749520 1.008483
Cr5   Cr    Cr6+3 0.243430 0.170940 0.748810 1.017331
Cr6   Cr    Cr6+3 0.256570 0.670940 0.251190 1.011463
Cr7   Cr    Cr6+3 0.743430 0.670940 0.748810 1.018101
Cr8   Cr    Cr6+3 0.623740 0.299110 0.249580 1.052321
Cr9   Cr    Cr6+3 0.376260 0.299110 0.750420 1.053776
Cr10  Cr    Cr6+3 0.123740 0.799110 0.249580 1.055294
Cr11  Cr    Cr6+3 0.876260 0.799110 0.750420 1.053755
Cr12  Cr    Cr6+3 0.625990 0.036240 0.250480 1.014988
H1    H     H_    0.469860 0.995264 0.881343 0.127084
H2    H     H_    0.349373 0.894922 0.968941 0.106054
H3    H     H_    0.166266 0.326035 0.040032 0.098977
H4    H     H_    0.849346 0.394717 0.968920 0.106043
H5    H     H_    0.656222 0.875657 0.126801 0.123434
H6    H     H_    0.355554 0.924379 0.880736 0.128903
H7    H     H_    0.156122 0.375973 0.126743 0.123693
H8    H     H_    0.855518 0.424172 0.880711 0.128915
H9    H     H_    0.527891 0.015721 0.538998 0.116457
H10   H     H_    0.472853 0.015872 0.461298 0.114799
H11   H     H_    0.024911 0.513245 0.538498 0.113630
H12   H     H_    0.510683 0.999509 0.123945 0.128611
H13   H     H_    0.970734 0.517731 0.460921 0.113191
H14   H     H_    0.504487 0.013056 0.626800 0.130492
H15   H     H_    0.495801 0.013293 0.373408 0.133552
H16   H     H_    0.001605 0.510496 0.626214 0.131324
H17   H     H_    0.993859 0.515138 0.373026 0.130335
H18   H     H_    0.538869 0.326276 0.472430 0.083579
H19   H     H_    0.461861 0.326441 0.527676 0.084278
H20   H     H_    0.042302 0.824310 0.473162 0.084839
H21   H     H_    0.966277 0.828605 0.528776 0.088001
H22   H     H_    0.713769 0.818832 0.370300 0.104977
H23   H     H_    0.969835 0.495264 0.881348 0.127180
H24   H     H_    0.352828 0.913159 0.621029 0.134838
H25   H     H_    0.147200 0.413591 0.378991 0.135174
H26   H     H_    0.857039 0.433453 0.618775 0.138050
H27   H     H_    0.813217 0.038437 0.539431 0.100504
H28   H     H_    0.191379 0.041234 0.461415 0.099499
H29   H     H_    0.308689 0.541006 0.538527 0.099293
H30   H     H_    0.686802 0.541163 0.460099 0.094315
H31   H     H_    0.831213 0.999129 0.625748 0.141502
H32   H     H_    0.179303 0.012710 0.372585 0.131181
H33   H     H_    0.320797 0.512406 0.627351 0.131720
H34   H     H_    0.010670 0.499515 0.123949 0.128688
H35   H     H_    0.672487 0.507669 0.372241 0.134554
H36   H     H_    0.477777 0.904119 0.958543 0.097597
H37   H     H_    0.489748 0.906024 0.048531 0.101235
H38   H     H_    0.977747 0.404123 0.958549 0.097666
H39   H     H_    0.989722 0.406031 0.048537 0.101307
H40   H     H_    0.714009 0.792011 0.460609 0.107228
H41   H     H_    0.346999 0.884613 0.533039 0.099951
H42   H     H_    0.152993 0.385201 0.466984 0.100248
H43   H     H_    0.852945 0.411890 0.530509 0.100939
H44   H     H_    0.661834 0.833400 0.537250 0.099740
H45   H     H_    0.863309 0.833159 0.892988 0.134467
H46   H     H_    0.311098 0.780535 0.470333 0.099841
H47   H     H_    0.188758 0.281157 0.529766 0.099768
H48   H     H_    0.825989 0.310603 0.465563 0.096479
H49   H     H_    0.681194 0.790564 0.623906 0.128972
H50   H     H_    0.302346 0.756697 0.382122 0.135569
H51   H     H_    0.197485 0.257348 0.617978 0.135480
H52   H     H_    0.815604 0.284915 0.377398 0.125053
H53   H     H_    0.746998 0.117075 0.482408 0.112651
H54   H     H_    0.158785 0.954842 0.534050 0.100670
H55   H     H_    0.341218 0.454481 0.465968 0.101043
H56   H     H_    0.175689 0.006728 0.125148 0.122596
H57   H     H_    0.661734 0.451933 0.532223 0.101417
H58   H     H_    0.749747 0.141020 0.393670 0.132082
H59   H     H_    0.165511 0.990808 0.622577 0.127962
H60   H     H_    0.334514 0.490401 0.377420 0.127569
H61   H     H_    0.666667 0.483045 0.621304 0.126462
H62   H     H_    0.478265 0.327225 0.876669 0.117778
H63   H     H_    0.533619 0.329362 0.121507 0.125958
H64   H     H_    0.978278 0.827221 0.876666 0.117885
H65   H     H_    0.033636 0.829361 0.121504 0.126045
H66   H     H_    0.500582 0.423281 0.953606 0.103964
H67   H     H_    0.363243 0.332649 0.893004 0.134480
H68   H     H_    0.517600 0.424497 0.043504 0.102813
H69   H     H_    0.000606 0.923275 0.953602 0.104012
H70   H     H_    0.017626 0.924493 0.043500 0.102895
H71   H     H_    0.828964 0.021604 0.122580 0.125984
H72   H     H_    0.166622 0.987168 0.873865 0.125584
H73   H     H_    0.329039 0.521254 0.122639 0.125696
H74   H     H_    0.666638 0.487384 0.873894 0.125470
H75   H     H_    0.663557 0.906007 0.960156 0.110928
H76   H     H_    0.314676 0.785919 0.031111 0.101512
H77   H     H_    0.163609 0.406526 0.960127 0.111011
H78   H     H_    0.675820 0.506881 0.125184 0.122384
H79   H     H_    0.814547 0.285732 0.031076 0.101550
H80   H     H_    0.675281 0.884548 0.870213 0.109924
H81   H     H_    0.303772 0.758435 0.119227 0.129564
H82   H     H_    0.175334 0.385054 0.870184 0.110039
H83   H     H_    0.803642 0.258220 0.119189 0.129652
H84   H     H_    0.837488 0.977336 0.036434 0.101417
H85   H     H_    0.159834 0.951804 0.962368 0.106992
H86   H     H_    0.337578 0.476967 0.036484 0.101433
H87   H     H_    0.659859 0.452049 0.962397 0.106953
H88   H     H_    0.851548 0.845360 0.981312 0.117259
H89   H     H_    0.666371 0.825692 0.040089 0.098892
H90   H     H_    0.188766 0.037487 0.036910 0.102694
H91   H     H_    0.351472 0.344915 0.981333 0.117280
H92   H     H_    0.688905 0.537668 0.036944 0.102665
H93   H     H_    0.567594 0.402373 0.402800 0.305346
H94   H     H_    0.432543 0.402395 0.597169 0.306793
H95   H     H_    0.072294 0.899901 0.403866 0.307719
H96   H     H_    0.939561 0.905466 0.598834 0.305409
O1    O     O_R   0.769900 0.064540 0.196060 -0.523421
O2    O     O_R   0.433710 0.069580 0.694600 -0.539835
O3    O     O_R   0.066290 0.569580 0.305400 -0.540332
O4    O     O_R   0.933710 0.569580 0.694600 -0.541954
O5    O     O_R   0.680760 0.993330 0.302620 -0.497321
O6    O     O_R   0.319240 0.993330 0.697380 -0.506333
O7    O     O_R   0.180760 0.493330 0.302620 -0.507250
O8    O     O_R   0.819240 0.493330 0.697380 -0.507534
O9    O     O_3   0.668770 0.168760 0.250420 -0.248118
O10   O     O_3   0.331230 0.168760 0.749580 -0.248882
O11   O     O_3   0.168770 0.668760 0.250420 -0.246132
O12   O     O_R   0.230100 0.064540 0.803940 -0.515426
O13   O     O_3   0.831230 0.668760 0.749580 -0.249347
O14   O     O_R   0.750800 0.274080 0.199250 -0.506798
O15   O     O_R   0.249200 0.274080 0.800750 -0.498825
O16   O     O_R   0.250800 0.774080 0.199250 -0.507243
O17   O     O_R   0.749200 0.774080 0.800750 -0.499389
O18   O     O_R   0.669990 0.371670 0.194150 -0.524390
O19   O     O_R   0.330010 0.371670 0.805850 -0.525501
O20   O     O_R   0.169990 0.871670 0.194150 -0.524495
O21   O     O_R   0.830010 0.871670 0.805850 -0.525052
O22   O     O_R   0.574600 0.238480 0.197800 -0.505688
O23   O     O_R   0.269900 0.564540 0.196060 -0.524698
O24   O     O_R   0.425400 0.238480 0.802200 -0.510041
O25   O     O_R   0.074600 0.738480 0.197800 -0.505774
O26   O     O_R   0.925400 0.738480 0.802200 -0.509579
O27   O     O_R   0.566130 0.068680 0.194240 -0.524575
O28   O     O_R   0.433870 0.068680 0.805760 -0.527071
O29   O     O_R   0.066130 0.568680 0.194240 -0.524115
O30   O     O_R   0.933870 0.568680 0.805760 -0.526787
O31   O     O_R   0.680610 0.992490 0.199570 -0.504043
O32   O     O_R   0.319390 0.992490 0.800430 -0.507248
O33   O     O_R   0.180610 0.492490 0.199570 -0.503425
O34   O     O_R   0.730100 0.564540 0.803940 -0.515703
O35   O     O_R   0.819390 0.492490 0.800430 -0.506746
O36   O     O_R   0.770060 0.065440 0.307230 -0.519090
O37   O     O_R   0.229940 0.065440 0.692770 -0.522046
O38   O     O_R   0.270060 0.565440 0.307230 -0.521564
O39   O     O_R   0.729940 0.565440 0.692770 -0.518119
O40   O     O_R   0.750960 0.274920 0.302300 -0.515667
O41   O     O_R   0.249040 0.274920 0.697700 -0.512856
O42   O     O_R   0.250960 0.774920 0.302300 -0.512516
O43   O     O_R   0.749040 0.774920 0.697700 -0.510069
O44   O     O_R   0.670160 0.372580 0.305320 -0.484631
O45   O     O_R   0.574760 0.239320 0.300850 -0.432680
O46   O     O_R   0.329840 0.372580 0.694680 -0.481671
O47   O     O_R   0.170160 0.872580 0.305320 -0.481933
O48   O     O_R   0.829840 0.872580 0.694680 -0.487088
O49   O     O_3   0.562995 0.347062 0.377754 -0.678145
O50   O     O_3   0.437158 0.347078 0.622243 -0.676232
O51   O     O_3   0.066728 0.845226 0.378625 -0.674003
O52   O     O_3   0.942605 0.849217 0.623571 -0.679957
O53   O     O_R   0.425240 0.239320 0.699150 -0.430335
O54   O     O_R   0.074760 0.739320 0.300850 -0.431665
O55   O     O_R   0.925240 0.739320 0.699150 -0.429416
O56   O     O_R   0.566290 0.069580 0.305400 -0.534384

loop_
_geom_bond_atom_site_label_1
_geom_bond_atom_site_label_2
_ccdc_geom_bond_type
C21   C26   A    
C159  O51   S    
C114  H2    S    
C113  H89   S    
C162  H19   S    
C132  C150  A    
C107  C112  A    
C38   H30   S    
Cr5   O12   S    
C120  C144  S    
Cr6   O11   S    
C136  C140  A    
C117  C133  S    
C79   C87   A    
C48   H49   S    
C135  C139  A    
C89   O15   A    
C32   H60   S    
C72   O7    A    
C97   C124  A    
C34   H27   S    
C132  H82   S    
C17   H40   S    
C95   C99   A    
C94   H69   S    
C75   C122  A    
C29   C33   A    
C126  C143  A    
Cr7   O17   S    
C6    H17   S    
C98   C169  S    
Cr7   O43   S    
C162  C171  A    
Cr9   O24   S    
C68   C90   A    
C128  H77   S    
C25   C60   S    
C107  H87   S    
C81   C86   A    
C34   C56   A    
C115  H3    S    
C116  H4    S    
C72   O38   A    
C80   C83   A    
C42   O43   A    
C136  C149  A    
C73   O39   A    
C25   C29   A    
C109  C145  S    
C174  H10   S    
C27   C31   A    
C140  H90   S    
C1    O14   A    
Cr11  O21   S    
C141  H91   S    
C47   C64   A    
C111  O17   A    
C17   C21   A    
Cr8   O44   S    
C120  O30   A    
C108  C113  A    
C100  O20   A    
C19   C23   A    
C70   O5    A    
Cr3   O29   S    
Cr5   O37   S    
C39   O40   A    
C156  C160  A    
C16   C20   A    
C164  C173  A    
Cr8   O22   S    
Cr10  O11   S    
C137  H67   S    
C127  C145  A    
C89   C150  S    
C74   H12   S    
C22   C27   A    
Cr1   O14   S    
C36   C44   A    
C37   C45   A    
C27   H54   S    
C43   C61   A    
C170  C174  A    
C47   H35   S    
C152  C157  A    
C49   C62   A    
C30   H58   S    
Cr9   O19   S    
Cr10  O20   S    
C51   C64   A    
C140  C145  A    
C22   C58   S    
C66   C153  S    
C53   C58   A    
C138  C151  A    
C160  O52   S    
C82   C85   A    
C76   C155  A    
C44   C62   A    
Cr12  O27   S    
C77   H23   S    
C70   O36   A    
C111  C148  S    
Cr1   O1    S    
C165  O31   A    
C77   C82   A    
C49   C53   A    
C134  C151  A    
Cr3   O3    S    
C126  H75   S    
C73   O8    A    
C51   C55   A    
C127  C131  A    
C129  C147  A    
C81   C88   A    
C169  O35   A    
C12   H22   S    
C48   C52   A    
C69   O4    A    
C117  O22   A    
C103  C107  A    
Cr8   O45   S    
C133  C166  A    
C53   H46   S    
C69   O55   A    
C41   O47   A    
C44   H32   S    
C55   H48   S    
C15   H25   S    
C85   C86   A    
C23   C59   S    
Cr4   O8    S    
C67   C154  S    
H93   O49   S    
C167  O32   A    
C50   H51   S    
Cr12  O31   S    
H95   O51   S    
C13   C57   A    
C170  C171  S    
C163  H20   S    
C157  O49   S    
C127  H76   S    
C118  C122  S    
C165  O1    A    
C153  C158  A    
C139  C143  A    
C98   C125  A    
C7    C156  A    
Cr4   O13   S    
C123  H6    S    
C51   H52   S    
C20   H43   S    
C66   O53   A    
C50   C63   A    
C84   H37   S    
C54   C59   A    
C4    C152  A    
C71   O37   A    
C69   C156  S    
Cr5   O15   S    
Cr6   O16   S    
C66   O2    A    
C67   O54   A    
C142  H92   S    
C91   C92   A    
C4    H15   S    
C68   C94   A    
C129  C134  A    
C41   O42   A    
Cr11  O26   S    
C83   C84   A    
C99   H71   S    
C8    C12   A    
Cr1   O36   S    
C23   C28   A    
C16   H26   S    
C37   C59   A    
C109  C114  A    
C38   C60   A    
C114  C123  A    
C71   O6    A    
C26   C30   A    
C116  C125  A    
C119  O25   A    
C1    O18   A    
C112  C116  A    
C65   O45   A    
C46   C87   A    
C167  O12   A    
C111  O21   A    
C105  C109  A    
C96   C123  A    
C18   C22   A    
C120  O26   A    
C142  C147  A    
Cr2   O28   S    
C34   C43   A    
C39   O44   A    
C11   C33   A    
C97   C168  S    
C8    C70   S    
C112  C147  S    
C105  H85   S    
C154  C159  A    
C36   H28   S    
C128  C146  A    
C35   C79   A    
C137  C150  A    
C40   O41   A    
C89   O19   A    
C113  C121  A    
C55   C60   A    
C172  C176  A    
C92   H66   S    
C117  O27   A    
Cr1   O9    S    
C118  O28   A    
Cr2   O6    S    
C168  O23   A    
Cr3   O11   S    
C37   H29   S    
Cr2   O32   S    
Cr12  O5    S    
C26   H53   S    
Cr2   O2    S    
C15   C19   A    
C39   C64   S    
C50   C54   A    
C40   C63   S    
Cr10  O25   S    
Cr6   O38   S    
C160  C164  A    
C75   H1    S    
C3    C7    A    
C46   C92   A    
C20   C25   A    
C126  C130  A    
C98   C103  A    
C35   C166  A    
Cr6   O23   S    
C175  H9    S    
Cr11  O48   S    
C40   O46   A    
C12   C17   A    
Cr1   O40   S    
C97   C102  A    
C130  H80   S    
C95   C121  A    
Cr10  O54   S    
C99   C104  A    
C4    C174  A    
C96   C101  A    
C5    C175  A    
C41   C62   S    
C95   C165  S    
C121  H5    S    
Cr11  O55   S    
C86   H39   S    
C2    C122  A    
C168  O33   A    
C24   H64   S    
C138  C142  A    
C76   C81   A    
C9    C14   A    
C104  H84   S    
C7    H16   S    
C11   C16   A    
C110  C146  S    
C28   C32   A    
C164  H21   S    
C96   C167  S    
C33   H61   S    
C6    C154  A    
C141  C146  A    
C83   H36   S    
C88   C90   A    
C11   C73   S    
C161  H18   S    
C157  C161  A    
C104  C108  A    
C137  C141  A    
C115  C124  A    
C29   H57   S    
C43   H31   S    
C9    C71   S    
C49   H50   S    
C18   H41   S    
C21   C56   S    
C100  C149  S    
C166  H63   S    
C82   C90   A    
C14   H24   S    
C8    C30   A    
C45   H33   S    
C24   C144  A    
C103  H74   S    
C1    C151  S    
C19   H42   S    
C24   C68   A    
C93   H70   S    
C74   C78   A    
C110  C115  A    
Cr7   O13   S    
C108  C143  S    
Cr7   O39   S    
C101  H72   S    
C93   C94   A    
C14   C18   A    
C106  H86   S    
C2    C46   A    
Cr12  O56   S    
H94   O50   S    
Cr4   O30   S    
C80   C87   A    
C36   C58   A    
C10   C15   A    
C2    H62   S    
C91   H68   S    
C158  O50   S    
C74   C133  A    
C13   C155  A    
C67   O3    A    
C3    C173  A    
C118  O24   A    
Cr2   O10   S    
C3    H11   S    
C135  H45   S    
Cr3   O7    S    
C28   H55   S    
C100  O16   A    
C75   C80   A    
C42   O48   A    
Cr12  O9    S    
C129  H79   S    
Cr5   O41   S    
C57   C93   A    
C31   H59   S    
C54   H47   S    
H96   O52   S    
C128  C132  A    
C101  C105  A    
C102  H73   S    
C136  H56   S    
C130  C148  A    
Cr7   O34   S    
Cr5   O10   S    
C5    H14   S    
C9    C31   A    
C78   C79   A    
C52   H44   S    
C138  H78   S    
C125  H8    S    
C76   H34   S    
C134  H83   S    
C171  C175  A    
C45   C63   A    
Cr4   O4    S    
C163  C172  A    
C10   C32   A    
Cr8   O9    S    
C131  H81   S    
C13   H65   S    
C119  O29   A    
C42   C61   S    
C38   C47   A    
C161  C170  A    
C169  O34   A    
Cr10  O47   S    
C159  C163  A    
C139  H88   S    
C172  C173  S    
C106  C110  A    
C119  C155  S    
C176  H13   S    
Cr3   O33   S    
Cr9   O46   S    
C85   H38   S    
Cr6   O42   S    
C57   C88   A    
C65   C152  S    
C77   C144  A    
Cr11  O13   S    
C48   C61   A    
C6    C176  A    
C5    C153  A    
C124  H7    S    
C102  C106  A    
Cr9   O53   S    
C131  C149  A    
C158  C162  A    
C78   C84   A    
C135  C148  A    
Cr8   O18   S    
C65   O56   A    
Cr9   O10   S    
C52   C56   A    
C10   C72   S    
Cr4   O35   S    
C35   C91   A    
