data_mof_unit_40600.cif
_audit_creation_date              2012-12-10T19:11:22-0500
_audit_creation_method            fapswitch 2.2
_symmetry_space_group_name_H-M    P1
_symmetry_Int_Tables_number       1
_space_group_crystal_system       triclinic
_cell_length_a                    10.62663
_cell_length_b                    9.71454
_cell_length_c                    10.493388
_cell_angle_alpha                 89.634479
_cell_angle_beta                  90.052719
_cell_angle_gamma                 90.005574
_cell_volume                      1083.23955106

loop_
_atom_site_label
_atom_site_type_symbol
_atom_type_description
_atom_site_fract_x
_atom_site_fract_y
_atom_site_fract_z
_atom_type_partial_charge
C1    C     C_R   0.257657 0.499717 0.500013 0.832226
C2    C     C_3   0.499889 0.501628 0.122217 0.030951
C3    C     C_3   0.072456 0.572611 0.620700 -0.415397
C4    C     C_3   0.071491 0.348306 0.500083 -0.399072
C5    C     C_3   0.927996 0.572719 0.620638 -0.405005
C6    C     C_3   0.928647 0.348282 0.500205 -0.403891
C7    C     C_3   0.072207 0.574142 0.379310 -0.392835
C8    C     C_3   0.121326 0.498740 0.500033 0.195442
C9    C     C_3   0.878874 0.498736 0.500023 0.207927
C10   C     C_3   0.927757 0.573964 0.379196 -0.416730
C11   C     C_3   0.378093 0.082177 0.449484 0.399283
C12   C     C_3   0.378052 0.918379 0.449608 0.396644
C13   C     C_3   0.601857 0.081667 0.415980 -0.233672
C14   C     C_3   0.601761 0.919418 0.415862 -0.235344
C15   C     C_3   0.519243 0.080294 0.627210 -0.384457
C16   C     C_3   0.519335 0.918060 0.627203 -0.376737
C17   C     C_R   0.499958 0.500527 0.257140 0.871409
C18   C     C_R   0.742562 0.499723 0.500018 0.819499
C19   C     C_R   0.500112 0.499479 0.742762 0.860233
C20   C     C_3   0.499465 0.631565 0.039220 -0.128537
C21   C     C_3   0.396541 0.434698 0.042713 -0.158651
C22   C     C_3   0.396123 0.564455 0.956966 -0.196129
C23   C     C_3   0.499998 0.498402 0.877712 0.028859
C24   C     C_3   0.603335 0.565338 0.957238 -0.200791
C25   C     C_3   0.500409 0.368471 0.960725 -0.127549
C26   C     C_3   0.603749 0.435583 0.042967 -0.190184
H1    H     H_    0.311778 0.616555 0.916878 0.123699
H2    H     H_    0.893036 0.682087 0.376380 0.166764
H3    H     H_    0.892495 0.521768 0.291994 0.148918
H4    H     H_    0.301675 0.116886 0.514835 0.002539
H5    H     H_    0.301716 0.882864 0.515148 0.003530
H6    H     H_    0.592332 0.120987 0.316719 0.194351
H7    H     H_    0.591956 0.881607 0.316573 0.189523
H8    H     H_    0.444138 0.117683 0.692157 0.157752
H9    H     H_    0.444323 0.879787 0.692273 0.162656
H10   H     H_    0.694707 0.118915 0.450479 0.132252
H11   H     H_    0.694641 0.881471 0.450097 0.133645
H12   H     H_    0.499052 0.738730 0.075424 0.161408
H13   H     H_    0.312566 0.381858 0.082637 0.136417
H14   H     H_    0.687345 0.618155 0.917368 0.122413
H15   H     H_    0.500820 0.261284 0.924590 0.133103
H16   H     H_    0.688085 0.383480 0.083063 0.118639
H17   H     H_    0.107146 0.680724 0.623223 0.166824
H18   H     H_    0.105574 0.292896 0.414186 0.166619
H19   H     H_    0.107775 0.519496 0.708018 0.149422
H20   H     H_    0.106061 0.291435 0.585752 0.164534
H21   H     H_    0.892699 0.519801 0.708005 0.148981
H22   H     H_    0.894370 0.291613 0.586057 0.167752
H23   H     H_    0.893464 0.680888 0.622986 0.167428
H24   H     H_    0.894163 0.292586 0.414491 0.162347
H25   H     H_    0.106581 0.682351 0.376951 0.169491
H26   H     H_    0.107598 0.522389 0.292005 0.153924
N1    N     N_3   0.499750 0.138610 0.497240 -0.048671
N2    N     N_3   0.499750 0.861390 0.497240 -0.049772
O1    O     O_R   0.314910 0.616040 0.499970 -0.615229
O2    O     O_R   0.314910 0.383960 0.499970 -0.617040
O3    O     O_R   0.500080 0.616020 0.313900 -0.586619
O4    O     O_R   0.500080 0.383980 0.313900 -0.578153
O5    O     O_R   0.685320 0.616040 0.499930 -0.639064
O6    O     O_R   0.685320 0.383960 0.499930 -0.640621
O7    O     O_R   0.500150 0.616060 0.686000 -0.632475
O8    O     O_R   0.500150 0.383940 0.686000 -0.639037
Zn1   Zn    Zn3+2 0.500150 0.654960 0.499940 0.935209
Zn2   Zn    Zn3+2 0.500150 0.345040 0.499940 0.935046
O9    O     O_3   0.353149 0.135529 0.327074 -0.729244
H27   H     H_    0.261053 0.127715 0.312934 0.294946
O10   O     O_3   0.352907 0.866462 0.327332 -0.733203
H28   H     H_    0.260740 0.874019 0.313521 0.297216
H29   H     H_    0.609740 0.118591 0.666943 0.181762
H30   H     H_    0.609928 0.879395 0.666848 0.182519

loop_
_geom_bond_atom_site_label_1
_geom_bond_atom_site_label_2
_ccdc_geom_bond_type
C7    C10   S    
C19   C23   S    
C23   C24   S    
O2    Zn2   S    
C5    C9    S    
C1    C8    S    
C20   H12   S    
C9    C10   S    
C18   O5    A    
C15   H8    S    
O5    Zn1   S    
C21   H13   S    
O6    Zn2   S    
C17   O4    A    
C4    C8    S    
C3    H17   S    
C20   C24   S    
C2    C21   S    
C17   O3    A    
C1    O1    A    
C11   H4    S    
C7    H25   S    
C7    C8    S    
C2    C26   S    
C4    H20   S    
C21   C22   S    
C6    H24   S    
C2    C17   S    
C5    H21   S    
C10   H3    S    
C5    H23   S    
O1    Zn1   S    
C6    H22   S    
C14   H7    S    
C15   N1    S    
C18   O6    A    
C16   H9    S    
C14   N2    S    
C1    O2    A    
C19   O7    A    
C7    H26   S    
O3    Zn1   S    
C13   N1    S    
C22   H1    S    
C23   C25   S    
C12   H5    S    
O4    Zn2   S    
C15   H29   S    
N1    Zn2   S    
C16   N2    S    
C3    C8    S    
N2    Zn1   S    
C20   C22   S    
C19   O8    A    
C2    C20   S    
O10   H28   S    
C3    C5    S    
C11   O9    S    
C9    C18   S    
C6    C9    S    
C16   H30   S    
C26   H16   S    
C13   H10   S    
C4    C6    S    
O9    H27   S    
C10   H2    S    
O7    Zn1   S    
C21   C25   S    
C22   C23   S    
C25   H15   S    
O8    Zn2   S    
C12   O10   S    
C4    H18   S    
C24   H14   S    
C25   C26   S    
C13   C14   S    
C13   H6    S    
C3    H19   S    
C12   N2    S    
C15   C16   S    
C11   C12   S    
C24   C26   S    
C14   H11   S    
C11   N1    S    
