data_mof_unit_61451.cif
_audit_creation_date              2012-12-10T20:01:13-0500
_audit_creation_method            fapswitch 2.2
_symmetry_space_group_name_H-M    P1
_symmetry_Int_Tables_number       1
_space_group_crystal_system       triclinic
_cell_length_a                    32.113281
_cell_length_b                    32.113273
_cell_length_c                    23.560475
_cell_angle_alpha                 90.000559
_cell_angle_beta                  90.000101
_cell_angle_gamma                 90.058179
_cell_volume                      24297.0232286

loop_
_atom_site_label
_atom_site_type_symbol
_atom_type_description
_atom_site_fract_x
_atom_site_fract_y
_atom_site_fract_z
_atom_type_partial_charge
C1    C     C_R   0.999977 0.419322 0.499984 0.911868
C2    C     C_1   0.162108 0.999815 0.499867 -0.039354
C3    C     C_R   0.728528 0.984506 0.452235 0.146407
C4    C     C_R   0.020351 0.271474 0.544262 0.146342
C5    C     C_R   0.728537 0.017379 0.546440 0.145741
C6    C     C_R   0.982437 0.728528 0.546417 0.146379
C7    C     C_R   0.271463 0.979464 0.543974 0.145633
C8    C     C_R   0.478388 0.771459 0.956993 0.145575
C9    C     C_R   0.771472 0.515140 0.952028 0.146400
C10   C     C_R   0.522788 0.228539 0.958138 0.145536
C11   C     C_R   0.228526 0.479685 0.955707 0.146347
C12   C     C_R   0.519822 0.771472 0.044702 0.146334
C13   C     C_1   0.000189 0.837892 0.500124 -0.039324
C14   C     C_R   0.228539 0.522091 0.042549 0.145566
C15   C     C_R   0.478969 0.228526 0.043666 0.146335
C16   C     C_R   0.771464 0.482969 0.046682 0.145745
C17   C     C_R   0.999084 0.293300 0.500914 0.099214
C18   C     C_R   0.293300 0.999063 0.499162 0.099253
C19   C     C_R   0.000949 0.706700 0.500781 0.099286
C20   C     C_R   0.706700 0.000970 0.499308 0.099332
C21   C     C_R   0.499078 0.793299 0.000885 0.099233
C22   C     C_R   0.793300 0.499027 0.999326 0.099334
C23   C     C_R   0.500905 0.206700 0.000943 0.099183
C24   C     C_1   0.837892 0.000194 0.499887 -0.039372
C25   C     C_R   0.206700 0.500915 0.999089 0.099196
C26   C     C_3   0.043155 0.293756 0.591670 -0.412709
C27   C     C_3   0.012850 0.309398 0.636790 -0.837610
C28   C     C_3   0.293729 0.957848 0.592379 -0.413132
C29   C     C_3   0.309335 0.914937 0.574431 -0.834552
C30   C     C_3   0.962635 0.706248 0.596268 -0.412892
C31   C     C_3   0.995615 0.690609 0.637756 -0.837845
C32   C     C_3   0.706269 0.035537 0.597419 -0.413220
C33   C     C_3   0.690662 0.079501 0.585088 -0.835233
C34   C     C_3   0.954505 0.293726 0.410618 -0.413037
C35   C     C_1   0.499817 0.662107 0.000142 -0.039323
C36   C     C_3   0.912305 0.309328 0.431471 -0.834202
C37   C     C_3   0.706248 0.966934 0.400855 -0.413025
C38   C     C_3   0.690607 0.001679 0.362140 -0.837961
C39   C     C_3   0.039785 0.706269 0.405685 -0.413169
C40   C     C_3   0.083124 0.690662 0.421607 -0.834807
C41   C     C_3   0.293753 0.039762 0.405525 -0.412841
C42   C     C_3   0.309391 0.007848 0.362515 -0.837730
C43   C     C_3   0.542052 0.793756 0.092612 -0.412729
C44   C     C_3   0.511206 0.809395 0.137047 -0.837653
C45   C     C_3   0.793732 0.465192 0.097909 -0.413225
C46   C     C_1   0.662108 0.499806 0.999892 -0.039402
C47   C     C_3   0.809340 0.421139 0.086186 -0.835306
C48   C     C_3   0.455436 0.206244 0.090408 -0.412704
C49   C     C_3   0.485035 0.190613 0.136397 -0.837484
C50   C     C_3   0.206274 0.545418 0.089456 -0.412989
C51   C     C_3   0.190676 0.587637 0.068671 -0.834352
C52   C     C_3   0.455591 0.793725 0.909604 -0.412989
C53   C     C_3   0.413150 0.809339 0.929511 -0.834461
C54   C     C_3   0.206244 0.456923 0.908261 -0.412737
C55   C     C_3   0.190615 0.487268 0.863183 -0.837604
C56   C     C_3   0.546879 0.206274 0.911955 -0.413007
C57   C     C_1   0.500176 0.337892 0.000147 -0.039295
C58   C     C_3   0.588745 0.190672 0.934024 -0.834065
C59   C     C_3   0.793751 0.532330 0.900410 -0.413057
C60   C     C_3   0.809387 0.497300 0.862171 -0.837949
C61   C     C_1   0.337892 0.500178 0.999855 -0.039377
C62   C     C_1   0.999603 0.337906 0.500464 -0.053606
C63   C     C_1   0.337907 0.999595 0.499575 -0.053504
C64   C     C_1   0.000409 0.662094 0.500394 -0.053438
C65   C     C_R   0.419322 0.999977 0.500015 0.911882
C66   C     C_1   0.662093 0.000416 0.499652 -0.053319
C67   C     C_1   0.499601 0.837905 0.000447 -0.053572
C68   C     C_1   0.837907 0.499583 0.999661 -0.053318
C69   C     C_1   0.500394 0.162093 0.000478 -0.053667
C70   C     C_1   0.162093 0.500398 0.999538 -0.053623
C71   C     C_1   0.999880 0.375161 0.500180 -0.195383
C72   C     C_1   0.375161 0.999879 0.499835 -0.195340
C73   C     C_1   0.000121 0.624839 0.500151 -0.195361
C74   C     C_1   0.624839 0.000122 0.499866 -0.195305
C75   C     C_1   0.499880 0.875160 0.000173 -0.195408
C76   C     C_R   0.000023 0.580678 0.499986 0.911933
C77   C     C_1   0.875161 0.499877 0.999870 -0.195333
C78   C     C_1   0.500119 0.124839 0.000185 -0.195406
C79   C     C_1   0.124839 0.500120 0.999820 -0.195375
C80   C     C_1   0.999932 0.124846 0.500035 -0.189265
C81   C     C_1   0.124846 0.999929 0.499969 -0.189325
C82   C     C_1   0.000073 0.875154 0.500029 -0.189297
C83   C     C_1   0.875154 0.000075 0.499973 -0.189347
C84   C     C_1   0.499930 0.624846 0.000034 -0.189288
C85   C     C_1   0.624846 0.499925 0.999974 -0.189365
C86   C     C_1   0.500066 0.375154 0.000034 -0.189255
C87   C     C_R   0.580678 0.000023 0.500013 0.911944
C88   C     C_1   0.375154 0.500067 0.999966 -0.189337
C89   C     C_R   1.000000 0.500001 0.390454 0.906753
C90   C     C_R   0.500000 1.000000 0.390454 0.907558
C91   C     C_R   0.000000 0.500000 0.609546 0.907546
C92   C     C_R   0.500001 0.000000 0.609546 0.906798
C93   C     C_R   0.500000 1.000000 0.890454 0.906715
C94   C     C_R   1.000000 0.500000 0.890453 0.907563
C95   C     C_R   0.500000 1.000000 0.109546 0.907528
C96   C     C_R   0.999998 0.500000 0.109546 0.906796
C97   C     C_R   0.080657 0.000012 0.499997 0.910633
C98   C     C_R   0.499977 0.919322 0.999984 0.911903
C99   C     C_R   0.999988 0.919343 0.500002 0.910716
C100  C     C_R   0.919343 0.999988 0.499997 0.910731
C101  C     C_R   0.000012 0.080657 0.500003 0.910627
C102  C     C_R   0.580657 0.500012 0.999998 0.910683
C103  C     C_R   0.499988 0.419343 0.000003 0.910567
C104  C     C_R   0.419343 0.499988 0.999997 0.910505
C105  C     C_R   0.500012 0.580657 0.000003 0.910591
C106  C     C_1   0.999999 0.500002 0.330315 -0.192595
C107  C     C_1   0.500001 1.000000 0.330315 -0.191569
C108  C     C_1   0.000000 0.499999 0.669685 -0.191681
C109  C     C_R   0.919322 0.499977 0.000013 0.911972
C110  C     C_1   0.500002 0.000000 0.669685 -0.192525
C111  C     C_1   0.500000 1.000000 0.830315 -0.192632
C112  C     C_1   1.000000 0.499999 0.830315 -0.191640
C113  C     C_1   0.500000 1.000000 0.169685 -0.191733
C114  C     C_1   0.999997 0.500001 0.169685 -0.192562
C115  C     C_1   0.999998 0.500002 0.279598 0.002585
C116  C     C_1   0.500001 1.000000 0.279598 0.003263
C117  C     C_1   1.000000 0.499999 0.720402 0.003204
C118  C     C_1   0.500002 0.000000 0.720402 0.002609
C119  C     C_1   0.500001 1.000000 0.779598 0.002584
C120  C     C_R   0.500023 0.080678 0.999984 0.911869
C121  C     C_1   1.000000 0.499999 0.779598 0.003214
C122  C     C_1   0.500000 1.000000 0.220402 0.003223
C123  C     C_1   0.999997 0.500001 0.220402 0.002593
C124  C     C_R   0.020403 0.227929 0.543310 -0.229098
C125  C     C_R   0.227920 0.980089 0.543668 -0.228561
C126  C     C_R   0.982334 0.772073 0.545484 -0.229041
C127  C     C_R   0.772080 0.016785 0.546045 -0.228606
C128  C     C_R   0.978511 0.227918 0.457746 -0.228502
C129  C     C_R   0.772072 0.984367 0.453152 -0.229041
C130  C     C_R   0.018793 0.772080 0.455417 -0.228569
C131  C     C_R   0.080678 0.500023 0.000015 0.911865
C132  C     C_R   0.227928 0.018799 0.455365 -0.229108
C133  C     C_R   0.519882 0.727928 0.043756 -0.229062
C134  C     C_R   0.727921 0.483560 0.046279 -0.228633
C135  C     C_R   0.478929 0.272070 0.042710 -0.229117
C136  C     C_R   0.272082 0.521451 0.042290 -0.228571
C137  C     C_R   0.479021 0.727916 0.957270 -0.228578
C138  C     C_R   0.272070 0.479632 0.956659 -0.229147
C139  C     C_R   0.522142 0.272082 0.958376 -0.228498
C140  C     C_R   0.727927 0.515286 0.952944 -0.229066
C141  C     C_R   0.999635 0.206480 0.500349 0.098517
C142  C     C_1   0.999820 0.162108 0.500146 -0.039294
C143  C     C_R   0.206480 0.999626 0.499680 0.098415
C144  C     C_R   0.000379 0.793520 0.500298 0.098363
C145  C     C_R   0.793520 0.000389 0.499733 0.098253
C146  C     C_R   0.499631 0.706479 0.000340 0.098487
C147  C     C_R   0.706480 0.499610 0.999742 0.098223
C148  C     C_R   0.500358 0.293520 0.000357 0.098549
C149  C     C_R   0.293520 0.500362 0.999653 0.098496
C150  C     C_R   0.977871 0.271461 0.457488 0.145557
C151  C     C_R   0.271473 0.018717 0.454422 0.146369
C152  C     C_R   0.019406 0.728537 0.455077 0.145671
H1    H     H_    0.990628 0.332178 0.618463 0.262199
H2    H     H_    0.272455 0.953822 0.629220 0.201407
H3    H     H_    0.016634 0.667834 0.616945 0.262442
H4    H     H_    0.014378 0.717135 0.654007 0.259576
H5    H     H_    0.980185 0.675047 0.674220 0.247057
H6    H     H_    0.941334 0.727519 0.619561 0.201036
H7    H     H_    0.943280 0.679781 0.581141 0.211413
H8    H     H_    0.717201 0.100120 0.573809 0.258373
H9    H     H_    0.667880 0.079362 0.549661 0.266018
H10   H     H_    0.675119 0.092239 0.623427 0.246370
H11   H     H_    0.679789 0.015240 0.609997 0.209244
H12   H     H_    0.995149 0.282874 0.655124 0.259548
H13   H     H_    0.727543 0.036988 0.634611 0.201496
H14   H     H_    0.893098 0.282786 0.446681 0.258104
H15   H     H_    0.916191 0.332110 0.466505 0.266222
H16   H     H_    0.895639 0.324869 0.396042 0.246255
H17   H     H_    0.973256 0.320208 0.394186 0.209362
H18   H     H_    0.949134 0.272452 0.374096 0.201379
H19   H     H_    0.667836 0.021747 0.384636 0.262638
H20   H     H_    0.717133 0.021121 0.347443 0.259587
H21   H     H_    0.675040 0.987880 0.324486 0.247095
H22   H     H_    0.727520 0.946697 0.375860 0.201125
H23   H     H_    0.030475 0.324954 0.671363 0.246978
H24   H     H_    0.679781 0.946947 0.414373 0.211215
H25   H     H_    0.103206 0.717202 0.434558 0.258251
H26   H     H_    0.081418 0.667880 0.456960 0.266131
H27   H     H_    0.097534 0.675120 0.384385 0.246313
H28   H     H_    0.020081 0.679789 0.391465 0.209264
H29   H     H_    0.042877 0.727542 0.368677 0.201440
H30   H     H_    0.332167 0.986317 0.382328 0.262341
H31   H     H_    0.282864 0.989505 0.345397 0.259570
H32   H     H_    0.324952 0.024188 0.326795 0.247021
H33   H     H_    0.272481 0.061637 0.383245 0.200973
H34   H     H_    0.065816 0.272485 0.612441 0.200896
H35   H     H_    0.320220 0.058724 0.421547 0.211531
H36   H     H_    0.489199 0.832168 0.118223 0.262240
H37   H     H_    0.493292 0.782869 0.154989 0.259534
H38   H     H_    0.528408 0.824960 0.172006 0.247003
H39   H     H_    0.564464 0.772489 0.113887 0.200923
H40   H     H_    0.560610 0.820224 0.075734 0.211628
H41   H     H_    0.782802 0.400437 0.075187 0.258391
H42   H     H_    0.832125 0.421016 0.050762 0.265991
H43   H     H_    0.824880 0.408686 0.124701 0.246377
H44   H     H_    0.820212 0.485582 0.110207 0.209228
H45   H     H_    0.061510 0.320222 0.574382 0.211692
H46   H     H_    0.772458 0.464017 0.135119 0.201508
H47   H     H_    0.507551 0.167845 0.118717 0.262153
H48   H     H_    0.502431 0.217144 0.155247 0.259536
H49   H     H_    0.466881 0.175043 0.170446 0.246956
H50   H     H_    0.432453 0.227513 0.110515 0.200858
H51   H     H_    0.437359 0.179772 0.072599 0.211743
H52   H     H_    0.217219 0.606855 0.053491 0.258052
H53   H     H_    0.167893 0.583782 0.033630 0.266235
H54   H     H_    0.175135 0.604273 0.104126 0.246255
H55   H     H_    0.179790 0.526655 0.105857 0.209358
H56   H     H_    0.282795 0.895194 0.560545 0.258187
H57   H     H_    0.227548 0.550757 0.125987 0.201376
H58   H     H_    0.393764 0.782807 0.944321 0.258080
H59   H     H_    0.416622 0.832137 0.964608 0.266219
H60   H     H_    0.396908 0.824865 0.893707 0.246263
H61   H     H_    0.474544 0.820201 0.893588 0.209328
H62   H     H_    0.450655 0.772450 0.872969 0.201383
H63   H     H_    0.167846 0.509489 0.881543 0.262207
H64   H     H_    0.217146 0.504969 0.844869 0.259532
H65   H     H_    0.175047 0.469675 0.828589 0.246985
H66   H     H_    0.227512 0.434274 0.887461 0.200890
H67   H     H_    0.332118 0.917534 0.539179 0.266183
H68   H     H_    0.179771 0.438561 0.925515 0.211680
H69   H     H_    0.607708 0.217213 0.949795 0.258065
H70   H     H_    0.584314 0.167884 0.968931 0.266243
H71   H     H_    0.605961 0.175137 0.899083 0.246230
H72   H     H_    0.528389 0.179792 0.894983 0.209385
H73   H     H_    0.552818 0.227549 0.875597 0.201358
H74   H     H_    0.832156 0.477396 0.884941 0.262666
H75   H     H_    0.782858 0.477754 0.847740 0.259586
H76   H     H_    0.824955 0.510819 0.824330 0.247102
H77   H     H_    0.772479 0.552383 0.875140 0.201143
H78   H     H_    0.324876 0.899594 0.610953 0.246281
H79   H     H_    0.820219 0.552414 0.913651 0.211163
H80   H     H_    0.036460 0.210645 0.576231 0.147178
H81   H     H_    0.210629 0.965157 0.577582 0.147482
H82   H     H_    0.968369 0.789358 0.580133 0.147314
H83   H     H_    0.789370 0.029302 0.581727 0.147602
H84   H     H_    0.962358 0.210626 0.424888 0.147421
H85   H     H_    0.789358 0.971956 0.417420 0.147405
H86   H     H_    0.032861 0.789370 0.420824 0.147527
H87   H     H_    0.210643 0.033632 0.421393 0.147263
H88   H     H_    0.535543 0.710645 0.077032 0.147205
H89   H     H_    0.320210 0.977180 0.607516 0.209302
H90   H     H_    0.710631 0.471309 0.082132 0.147622
H91   H     H_    0.462362 0.289354 0.075158 0.147147
H92   H     H_    0.289374 0.537575 0.075174 0.147427
H93   H     H_    0.463263 0.710625 0.924056 0.147445
H94   H     H_    0.289354 0.463602 0.923712 0.147183
H95   H     H_    0.538801 0.289374 0.925991 0.147395
H96   H     H_    0.710642 0.527429 0.917042 0.147433
O1    O     O_R   0.965560 0.438990 0.499980 -0.617024
O2    O     O_R   0.938990 0.534440 0.999980 -0.617359
O3    O     O_R   0.534440 0.061010 0.999980 -0.617009
O4    O     O_R   0.061010 0.465560 0.999980 -0.617275
O5    O     O_R   0.534440 0.938990 0.000020 -0.617298
O6    O     O_R   0.061010 0.534440 0.000020 -0.617016
O7    O     O_R   0.465560 0.061010 0.000020 -0.617271
O8    O     O_R   0.938990 0.465560 0.000020 -0.617054
O9    O     O_R   0.060930 0.999970 0.453240 -0.616580
O10   O     O_R   0.999970 0.939070 0.453240 -0.616956
O11   O     O_R   0.939070 0.000030 0.453240 -0.616744
O12   O     O_R   0.438990 0.034440 0.499980 -0.617293
O13   O     O_R   0.000030 0.060930 0.453240 -0.616963
O14   O     O_R   0.939070 0.999970 0.546760 -0.616973
O15   O     O_R   0.000030 0.939070 0.546760 -0.616677
O16   O     O_R   0.060930 0.000030 0.546760 -0.616975
O17   O     O_R   0.999970 0.060930 0.546760 -0.616507
O18   O     O_R   0.560930 0.499970 0.953240 -0.616737
O19   O     O_R   0.499970 0.439070 0.953240 -0.616957
O20   O     O_R   0.439070 0.500030 0.953240 -0.616535
O21   O     O_R   0.500030 0.560930 0.953240 -0.616900
O22   O     O_R   0.439070 0.499970 0.046760 -0.616922
O23   O     O_R   0.034440 0.561010 0.499980 -0.617025
O24   O     O_R   0.500030 0.439070 0.046760 -0.616455
O25   O     O_R   0.560930 0.500030 0.046760 -0.616974
O26   O     O_R   0.499970 0.560930 0.046760 -0.616608
O27   O     O_R   0.965560 0.499980 0.417220 -0.615733
O28   O     O_R   0.499980 0.034440 0.417220 -0.615612
O29   O     O_R   0.034440 0.500020 0.417220 -0.615650
O30   O     O_R   0.500020 0.965560 0.417220 -0.615695
O31   O     O_R   0.034440 0.499980 0.582780 -0.615588
O32   O     O_R   0.500020 0.034440 0.582780 -0.615660
O33   O     O_R   0.965560 0.500020 0.582780 -0.615750
O34   O     O_R   0.561010 0.965560 0.499980 -0.617332
O35   O     O_R   0.499980 0.965560 0.582780 -0.615709
O36   O     O_R   0.465560 0.999980 0.917220 -0.615681
O37   O     O_R   0.999980 0.534440 0.917220 -0.615745
O38   O     O_R   0.534440 0.000020 0.917220 -0.615716
O39   O     O_R   0.000020 0.465560 0.917220 -0.615595
O40   O     O_R   0.534440 0.999980 0.082780 -0.615709
O41   O     O_R   0.000020 0.534440 0.082780 -0.615745
O42   O     O_R   0.465560 0.000020 0.082780 -0.615623
O43   O     O_R   0.999980 0.465560 0.082780 -0.615646
O44   O     O_R   0.034440 0.438990 0.500020 -0.617260
O45   O     O_R   0.561010 0.034440 0.500020 -0.617051
O46   O     O_R   0.965560 0.561010 0.500020 -0.617335
O47   O     O_R   0.438990 0.965560 0.500020 -0.617023
O48   O     O_R   0.465560 0.938990 0.999980 -0.617016
Zn1   Zn    Zn3+2 0.954010 0.500000 0.500000 0.962982
Zn2   Zn    Zn3+2 1.000000 0.000000 0.562390 0.963718
Zn3   Zn    Zn3+2 0.500000 0.500000 0.937610 0.963782
Zn4   Zn    Zn3+2 0.500000 0.500000 0.062390 0.963895
Zn5   Zn    Zn3+2 0.500000 0.045990 0.500000 0.963284
Zn6   Zn    Zn3+2 0.045990 0.500000 0.500000 0.963229
Zn7   Zn    Zn3+2 0.500000 0.954010 0.500000 0.963200
Zn8   Zn    Zn3+2 0.454010 0.000000 0.000000 0.963075
Zn9   Zn    Zn3+2 1.000000 0.545990 0.000000 0.963032
Zn10  Zn    Zn3+2 0.545990 0.000000 0.000000 0.962965
Zn11  Zn    Zn3+2 1.000000 0.454010 0.000000 0.963226
Zn12  Zn    Zn3+2 1.000000 1.000000 0.437610 0.963645

loop_
_geom_bond_atom_site_label_1
_geom_bond_atom_site_label_2
_ccdc_geom_bond_type
C27   H1    S    
O2    Zn9   S    
O1    Zn1   S    
C32   H11   S    
C128  H84   S    
C101  O13   A    
C41   C42   S    
C23   C69   S    
C47   H42   S    
C33   H9    S    
C17   C150  A    
C120  O3    A    
O21   Zn3   S    
C16   C134  A    
C110  C118  T    
C136  C149  A    
C58   H70   S    
C131  O6    A    
C97   O9    A    
C38   H19   S    
C55   H65   S    
C5    C20   A    
O37   Zn9   S    
C42   H30   S    
C134  C147  A    
C48   H51   S    
C41   H35   S    
O17   Zn2   S    
C1    C71   S    
C29   H56   S    
C116  C122  S    
C56   H73   S    
C138  H94   S    
O32   Zn5   S    
C47   H43   S    
C28   C29   S    
C24   C83   T    
O16   Zn2   S    
C90   C107  S    
O18   Zn3   S    
C12   C43   S    
C24   C145  S    
C89   O29   A    
C55   H63   S    
C93   O38   A    
C17   C62   S    
C9    C140  A    
C1    O1    A    
C9    C22   A    
C13   C144  S    
C15   C135  A    
C11   C25   A    
C56   H72   S    
C95   O40   A    
C66   C74   T    
C76   O23   A    
C48   H50   S    
C87   O34   A    
C36   H16   S    
C57   C86   T    
C4    C124  A    
O6    Zn9   S    
C111  C119  T    
C82   C99   S    
C95   O42   A    
C135  H91   S    
O7    Zn8   S    
C26   H45   S    
C117  C121  S    
C118  C119  S    
C134  H90   S    
C91   O31   A    
C97   O16   A    
C44   H38   S    
C37   H22   S    
C8    C52   S    
C130  H86   S    
C113  C122  T    
C98   O5    A    
C50   H57   S    
C53   H58   S    
C89   C106  S    
C64   C73   T    
C96   O43   A    
O13   Zn12  S    
O19   Zn3   S    
C127  C145  A    
C133  H88   S    
C103  O19   A    
C74   C87   S    
C94   C112  S    
C10   C56   S    
C128  C141  A    
O24   Zn4   S    
C129  C145  A    
O28   Zn5   S    
C34   H18   S    
C33   H8    S    
C105  O26   A    
C5    C32   S    
C50   H55   S    
C45   H44   S    
C15   C23   A    
O30   Zn7   S    
O38   Zn10  S    
C100  O11   A    
C99   O15   A    
C59   C60   S    
C102  O25   A    
O31   Zn6   S    
C3    C129  A    
C32   H13   S    
C21   C67   S    
C28   H2    S    
C2    C143  S    
C96   C114  S    
C69   C78   T    
C15   C48   S    
C14   C50   S    
C126  H82   S    
C86   C103  S    
C91   C108  S    
C140  C147  A    
C36   H14   S    
C88   C104  S    
C58   H69   S    
C54   H66   S    
C94   O37   A    
O12   Zn5   S    
C45   C47   S    
C138  C149  A    
C34   C150  S    
C30   H7    S    
C109  O2    A    
C49   H49   S    
C139  C148  A    
C51   H54   S    
C115  C123  S    
C136  H92   S    
C102  O18   A    
O15   Zn2   S    
C137  C146  A    
C65   O12   A    
O35   Zn7   S    
C96   O41   A    
C6    C126  A    
O46   Zn1   S    
O33   Zn1   S    
C55   H64   S    
O8    Zn11  S    
O47   Zn7   S    
O20   Zn3   S    
C38   H21   S    
C99   O10   A    
C42   H32   S    
C45   H46   S    
C133  C146  A    
C12   C21   A    
C44   H36   S    
C75   C98   S    
O11   Zn12  S    
C7    C28   S    
C1    O44   A    
C8    C137  A    
C60   H76   S    
C35   C146  S    
C59   H79   S    
C92   O32   A    
C78   C120  S    
C43   C44   S    
C76   O46   A    
C37   C38   S    
C6    C19   A    
C61   C88   T    
O26   Zn4   S    
C27   H12   S    
C40   H27   S    
C137  H93   S    
C65   O47   A    
C4    C26   S    
C46   C147  S    
O48   Zn8   S    
C19   C64   S    
C53   H59   S    
C7    C18   A    
C79   C131  S    
C5    C127  A    
C52   H62   S    
C19   C152  A    
C26   C27   S    
C41   H33   S    
C3    C20   A    
C50   C51   S    
C31   H5    S    
C52   C53   S    
C7    C125  A    
C77   C109  S    
C11   C54   S    
C132  C143  A    
C22   C68   S    
C39   H29   S    
C34   H17   S    
O10   Zn12  S    
O34   Zn7   S    
C93   C111  S    
C40   H26   S    
C4    C17   A    
C39   C152  S    
C128  C150  A    
C48   C49   S    
C6    C30   S    
C105  O21   A    
C100  O14   A    
C43   H40   S    
C80   C142  T    
C12   C133  A    
C87   O45   A    
O43   Zn11  S    
C42   H31   S    
C73   C76   S    
C124  C141  A    
O42   Zn8   S    
C28   H89   S    
C114  C123  T    
C27   H23   S    
C18   C151  A    
C59   H77   S    
C44   H37   S    
C51   H52   S    
C39   C40   S    
C130  C144  A    
C131  O4    A    
O22   Zn4   S    
O29   Zn6   S    
C49   H47   S    
C20   C66   S    
C68   C77   T    
C30   H6    S    
C101  O17   A    
C54   C55   S    
O36   Zn8   S    
O4    Zn11  S    
C16   C22   A    
C129  H85   S    
C70   C79   T    
C140  H96   S    
C108  C117  T    
C47   H41   S    
C98   O48   A    
O44   Zn6   S    
C104  O20   A    
O39   Zn11  S    
C8    C21   A    
C16   C45   S    
C29   H78   S    
C31   H3    S    
C58   H71   S    
C51   H53   S    
C39   H28   S    
C94   O39   A    
C41   C151  S    
C10   C23   A    
C124  H80   S    
C65   C72   S    
C61   C149  S    
O40   Zn10  S    
C109  O8    A    
C127  H83   S    
C54   H68   S    
C90   O30   A    
C106  C115  T    
C83   C100  S    
C60   H75   S    
C11   C138  A    
C103  O24   A    
C46   C85   T    
C33   H10   S    
O25   Zn4   S    
C92   O35   A    
C112  C121  T    
C141  C142  S    
C95   C113  S    
C37   H24   S    
C130  C152  A    
C26   H34   S    
C92   C110  S    
C139  H95   S    
C30   C31   S    
C14   C136  A    
C125  C143  A    
C53   H60   S    
C84   C105  S    
C13   C82   T    
C126  C144  A    
C52   H61   S    
C81   C97   S    
C34   C36   S    
C56   C58   S    
C62   C71   T    
C91   O33   A    
C60   H74   S    
C36   H15   S    
C14   C25   A    
C32   C33   S    
C18   C63   S    
O9    Zn12  S    
C104  O22   A    
C107  C116  T    
C120  O7    A    
C125  H81   S    
C10   C139  A    
C85   C102  S    
C43   H39   S    
C40   H25   S    
C31   H4    S    
C29   H67   S    
O45   Zn5   S    
C67   C75   T    
C63   C72   T    
C3    C37   S    
C80   C101  S    
C135  C148  A    
O14   Zn2   S    
C57   C148  S    
O5    Zn10  S    
C89   O27   A    
C132  C151  A    
C2    C81   T    
C90   O28   A    
C25   C70   S    
O23   Zn6   S    
C9    C59   S    
C132  H87   S    
O41   Zn9   S    
C93   O36   A    
C38   H20   S    
C35   C84   T    
O27   Zn1   S    
O3    Zn10  S    
C49   H48   S    
