data_mof_unit_57308.cif
_audit_creation_date              2012-12-10T17:09:53-0500
_audit_creation_method            fapswitch 2.2
_symmetry_space_group_name_H-M    P1
_symmetry_Int_Tables_number       1
_space_group_crystal_system       triclinic
_cell_length_a                    10.777245
_cell_length_b                    12.986192
_cell_length_c                    11.689976
_cell_angle_alpha                 99.950825
_cell_angle_beta                  93.63118
_cell_angle_gamma                 90.884716
_cell_volume                      1607.64793043

loop_
_atom_site_label
_atom_site_type_symbol
_atom_type_description
_atom_site_fract_x
_atom_site_fract_y
_atom_site_fract_z
_atom_type_partial_charge
C1    C     C_R   0.492458 0.299200 0.478522 0.835596
C2    C     C_R   0.072202 0.594889 0.569666 0.054189
C3    C     C_R   0.129086 0.510016 0.501797 -0.076980
C4    C     C_R   0.057708 0.430831 0.430262 -0.183784
C5    C     C_R   0.929746 0.431242 0.429403 -0.194200
C6    C     C_R   0.871326 0.511010 0.500073 -0.085900
C7    C     C_R   0.500171 0.813777 0.533598 -0.079780
C8    C     C_R   0.477103 0.186040 0.466856 -0.089391
C9    C     C_R   0.371993 0.021783 0.382387 -0.175208
C10   C     C_R   0.389711 0.128275 0.384595 0.132127
C11   C     C_R   0.545786 0.135724 0.545356 -0.273203
C12   C     C_R   0.262573 0.502965 0.500721 0.807619
C13   C     C_R   0.528725 0.028745 0.542560 0.142773
C14   C     C_R   0.439994 0.970629 0.460895 0.085041
C15   C     C_R   0.422346 0.862896 0.459235 0.071603
C16   C     C_R   0.585271 0.872437 0.615907 -0.223165
C17   C     C_R   0.598932 0.979483 0.620939 -0.180883
C18   C     C_R   0.360863 0.422424 0.025119 0.025080
C19   C     C_R   0.376633 0.429291 0.147015 0.076553
C20   C     C_R   0.562400 0.530160 0.154809 0.039213
C21   C     C_R   0.549850 0.527428 0.032734 0.012332
C22   C     C_R   0.448547 0.471970 0.966670 0.066332
C23   C     C_R   0.499153 0.700637 0.521458 0.808806
C24   C     C_R   0.437928 0.468573 0.844189 0.063633
C25   C     C_R   0.620211 0.574692 0.854180 0.096771
C26   C     C_R   0.635566 0.579363 0.975386 -0.300185
C27   C     C_R   0.737529 0.503732 0.500006 0.786731
C28   C     C_R   0.142309 0.680888 0.634316 -0.152116
C29   C     C_R   0.083970 0.765560 0.697882 0.229034
C30   C     C_R   0.954051 0.765058 0.697557 -0.168125
C31   C     C_R   0.883354 0.681389 0.633456 -0.227597
C32   C     C_R   0.941045 0.595286 0.568946 0.102252
Cu1   Cu    Cu3+1 0.509250 0.507730 0.615930 0.946206
Cu2   Cu    Cu3+1 0.490750 0.492270 0.384070 0.980495
H1    H     H_    0.101449 0.367216 0.376459 0.176131
H2    H     H_    0.666425 0.023319 0.684291 0.144211
H3    H     H_    0.612886 0.180178 0.608831 0.156887
H4    H     H_    0.362083 0.424834 0.791593 0.161766
H5    H     H_    0.687067 0.614938 0.811229 0.127339
H6    H     H_    0.714045 0.623255 0.023791 0.149571
H7    H     H_    0.306748 0.394661 0.191536 0.160429
H8    H     H_    0.639610 0.573300 0.206051 0.135135
H9    H     H_    0.242585 0.684783 0.634259 0.159893
H10   H     H_    0.907075 0.830179 0.745680 0.131390
H11   H     H_    0.783362 0.686090 0.633126 0.140480
H12   H     H_    0.875985 0.367631 0.375377 0.158671
H13   H     H_    0.643710 0.834880 0.674442 0.147886
H14   H     H_    0.304365 0.980295 0.318136 0.200017
N1    N     N_R   0.523180 0.519350 0.790130 -0.196148
N2    N     N_R   0.476820 0.480650 0.209890 -0.189620
O1    O     O_R   0.506570 0.354460 0.582000 -0.584384
O2    O     O_R   0.490940 0.341410 0.386200 -0.555609
O3    O     O_R   0.327470 0.506530 0.597920 -0.596757
O4    O     O_R   0.311840 0.493480 0.402120 -0.566117
O5    O     O_R   0.509060 0.658590 0.613800 -0.598685
O6    O     O_R   0.493430 0.645540 0.418000 -0.551088
O7    O     O_R   0.688160 0.506520 0.597880 -0.591179
O8    O     O_R   0.672530 0.493470 0.402080 -0.585351
I1    I     I_    0.270878 0.193143 0.265998 -0.447982
N3    N     N_3   0.255071 0.366658 0.962071 -0.610233
H15   H     H_    0.256823 0.289676 0.977312 0.244171
H16   H     H_    0.174975 0.400534 0.996277 0.233629
N4    N     N_3   0.158422 0.851638 0.761811 -0.571921
H17   H     H_    0.202908 0.887387 0.701382 0.226893
H18   H     H_    0.101770 0.907839 0.805787 0.220307
I2    I     I_    0.271865 0.775600 0.353708 -0.381604

loop_
_geom_bond_atom_site_label_1
_geom_bond_atom_site_label_2
_ccdc_geom_bond_type
Cu1   O5    S    
C6    C32   A    
C9    C14   A    
N4    H18   S    
C11   H3    S    
Cu2   O6    S    
C29   C30   A    
C17   H2    S    
C20   N2    A    
Cu1   O1    S    
C1    C8    S    
C11   C13   A    
C9    C10   A    
C28   H9    S    
C20   H8    S    
C31   C32   A    
C13   C17   A    
C21   C26   A    
C30   H10   S    
C29   N4    S    
C2    C3    A    
C4    H1    S    
C23   O6    A    
C10   I1    S    
C18   C22   A    
C21   C22   A    
C25   H5    S    
C23   O5    A    
C1    O1    A    
C19   N2    A    
C26   H6    S    
C30   C31   A    
C12   O3    A    
C8    C11   A    
C7    C23   S    
C2    C32   A    
C16   H13   S    
C18   N3    S    
C28   C29   A    
Cu1   Cu2   S    
Cu2   O4    S    
C25   N1    A    
Cu1   O3    S    
C5    C6    A    
C1    O2    A    
C22   C24   A    
Cu2   N2    S    
C2    C28   A    
N4    H17   S    
Cu1   N1    S    
C24   H4    S    
C19   H7    S    
C4    C5    A    
C20   C21   A    
C9    H14   S    
N3    H16   S    
C18   C19   A    
C27   O7    A    
C24   N1    A    
Cu2   O8    S    
C14   C15   A    
C7    C16   A    
Cu1   O7    S    
C3    C12   S    
C31   H11   S    
C7    C15   A    
C25   C26   A    
C13   C14   A    
C15   I2    S    
Cu2   O2    S    
C8    C10   A    
C12   O4    A    
C3    C4    A    
C6    C27   S    
C16   C17   A    
N3    H15   S    
C5    H12   S    
C27   O8    A    
