data_mof_unit_22764.cif
_audit_creation_date              2012-12-10T19:34:17-0500
_audit_creation_method            fapswitch 2.2
_symmetry_space_group_name_H-M    P1
_symmetry_Int_Tables_number       1
_space_group_crystal_system       triclinic
_cell_length_a                    13.021539
_cell_length_b                    15.846467
_cell_length_c                    17.050454
_cell_angle_alpha                 95.544115
_cell_angle_beta                  91.659065
_cell_angle_gamma                 86.517452
_cell_volume                      3494.41411745

loop_
_atom_site_label
_atom_site_type_symbol
_atom_type_description
_atom_site_fract_x
_atom_site_fract_y
_atom_site_fract_z
_atom_type_partial_charge
C1    C     C_R   0.508151 0.489349 0.348773 0.842348
C2    C     C_R   0.497617 0.510076 0.651870 0.901914
C3    C     C_R   0.559263 0.551625 0.144345 0.358457
C4    C     C_R   0.467636 0.444806 0.858337 0.244315
C5    C     C_R   0.527973 0.478723 0.097427 0.045551
C6    C     C_R   0.467386 0.524483 0.903827 0.082070
C7    C     C_R   0.504210 0.406453 0.132764 0.274315
C8    C     C_R   0.469683 0.599027 0.866338 0.280153
C9    C     C_R   0.509981 0.406669 0.215285 0.273230
C10   C     C_R   0.472324 0.594800 0.783579 0.219392
C11   C     C_R   0.440040 0.756767 0.468196 0.425581
C12   C     C_R   0.547442 0.244354 0.541747 0.443501
C13   C     C_R   0.436753 0.846928 0.475942 0.220042
C14   C     C_R   0.536159 0.156337 0.545423 0.215574
C15   C     C_R   0.517305 0.889458 0.517273 0.197068
C16   C     C_R   0.474346 0.111516 0.487873 0.194552
C17   C     C_R   0.590507 0.840683 0.557712 -0.490768
C18   C     C_R   0.417033 0.158570 0.434735 -0.520676
C19   C     C_R   0.585738 0.751624 0.555444 0.550693
C20   C     C_R   0.422774 0.247616 0.437233 0.520818
C21   C     C_R   0.301265 0.515766 0.500540 0.894979
C22   C     C_R   0.698034 0.484064 0.497520 0.837774
C23   C     C_R   0.809444 0.474182 0.492086 -0.285007
C24   C     C_R   0.188785 0.523995 0.505507 -0.198390
C25   C     C_R   0.035656 0.594187 0.565727 0.395697
C26   C     C_R   0.963145 0.397107 0.441126 0.493433
C27   C     C_R   0.140189 0.595610 0.546763 0.222239
C28   C     C_R   0.856202 0.409745 0.440028 0.212432
C29   C     C_R   0.131306 0.456443 0.472971 0.321644
C30   C     C_R   0.869221 0.528922 0.540986 0.379922
C31   C     C_R   0.024107 0.459387 0.481861 -0.227919
C32   C     C_R   0.976379 0.527445 0.530986 -0.194692
C33   C     C_R   0.524772 0.483400 0.262616 -0.392971
C34   C     C_R   0.487088 0.515061 0.738807 -0.315786
C35   C     C_R   0.558300 0.553660 0.226406 0.293663
C36   C     C_R   0.485877 0.439717 0.777134 0.311239
Cu1   Cu    Cu3+1 0.494970 0.415610 0.496200 1.046693
Cu2   Cu    Cu3+1 0.505030 0.584390 0.503800 1.061192
H1    H     H_    0.650314 0.872480 0.592421 0.189202
H2    H     H_    0.367465 0.125706 0.391341 0.189522
N1    N     N_2   0.526388 0.474125 0.014353 -0.163049
N2    N     N_2   0.469155 0.530961 0.987458 -0.181365
N3    N     N_R   0.512580 0.711160 0.509520 -0.243030
N4    N     N_R   0.487420 0.288840 0.490480 -0.246185
N5    N     N_2   0.526814 0.979848 0.522949 -0.135240
N6    N     N_2   0.464822 0.021099 0.481624 -0.128929
O1    O     O_R   0.495300 0.420890 0.382510 -0.485104
O2    O     O_R   0.504700 0.579110 0.617490 -0.513779
O3    O     O_R   0.503790 0.563430 0.388930 -0.586250
O4    O     O_R   0.496210 0.436570 0.611070 -0.505834
O5    O     O_R   0.345440 0.440310 0.497300 -0.552195
O6    O     O_R   0.654560 0.559690 0.502700 -0.503187
O7    O     O_R   0.353930 0.582840 0.503720 -0.497773
O8    O     O_R   0.646070 0.417160 0.496280 -0.592278
O9    O     O_3   0.820651 0.583415 0.597767 -0.635664
H3    H     H_    0.852143 0.569538 0.648840 0.318111
O10   O     O_3   0.180651 0.390376 0.428059 -0.628156
H4    H     H_    0.179972 0.340869 0.459395 0.337264
O11   O     O_3   0.652906 0.704466 0.600139 -0.614041
H5    H     H_    0.699945 0.742904 0.630725 0.322467
O12   O     O_3   0.365711 0.293937 0.385264 -0.615193
H6    H     H_    0.324601 0.254991 0.349747 0.318493
O13   O     O_3   0.800737 0.358506 0.386232 -0.726240
H7    H     H_    0.735805 0.389754 0.372018 0.317444
O14   O     O_3   0.196657 0.665412 0.569205 -0.729858
H8    H     H_    0.149240 0.716260 0.579788 0.344239
O15   O     O_3   0.989530 0.661936 0.612030 -0.541597
C37   C     C_3   0.022303 0.657403 0.691535 0.042556
H9    H     H_    0.104682 0.671366 0.700322 0.149021
H10   H     H_    0.011641 0.593537 0.711329 0.116033
C38   C     C_3   0.959112 0.723090 0.743781 -0.770886
H11   H     H_    0.876175 0.710387 0.737644 0.255841
H12   H     H_    0.984077 0.720221 0.806344 0.196535
H13   H     H_    0.970148 0.787742 0.726657 0.246785
O16   O     O_3   0.007216 0.329558 0.393548 -0.504808
C39   C     C_3   0.999994 0.254293 0.430958 0.090133
H14   H     H_    0.918652 0.236782 0.432398 0.176316
H15   H     H_    0.032142 0.261266 0.492449 0.089590
C40   C     C_3   0.061127 0.181833 0.385126 -0.769827
H16   H     H_    0.143555 0.196019 0.384404 0.240497
H17   H     H_    0.054646 0.122194 0.413411 0.195257
H18   H     H_    0.030649 0.172760 0.323572 0.261181
O17   O     O_3   0.498823 0.361640 0.733703 -0.667103
H19   H     H_    0.511143 0.316194 0.769384 0.364606
O18   O     O_3   0.598575 0.622874 0.269083 -0.672795
H20   H     H_    0.640460 0.601994 0.313460 0.328485
O19   O     O_3   0.448349 0.371331 0.891329 -0.711652
H21   H     H_    0.401557 0.386661 0.935861 0.354121
O20   O     O_3   0.596089 0.620516 0.112556 -0.666731
H22   H     H_    0.617551 0.603209 0.057922 0.335000
O21   O     O_3   0.481560 0.333539 0.085616 -0.545740
C41   C     C_3   0.375237 0.321525 0.089451 0.109876
H23   H     H_    0.328983 0.375076 0.065464 0.129421
H24   H     H_    0.351585 0.316146 0.150906 0.185052
C42   C     C_3   0.350932 0.239428 0.040523 -0.774742
H25   H     H_    0.394703 0.184869 0.064463 0.249506
H26   H     H_    0.267354 0.229690 0.042538 0.199243
H27   H     H_    0.372173 0.242189 0.978279 0.267968
O22   O     O_3   0.463345 0.676652 0.911238 -0.548218
C43   C     C_3   0.561067 0.711202 0.915371 0.121508
H28   H     H_    0.581265 0.731467 0.857375 0.181232
H29   H     H_    0.622280 0.664725 0.934377 0.123795
C44   C     C_3   0.558689 0.788947 0.975145 -0.748584
H30   H     H_    0.539145 0.770956 0.034039 0.283428
H31   H     H_    0.635281 0.816494 0.979275 0.196702
H32   H     H_    0.500209 0.837541 0.956674 0.241612
O23   O     O_3   0.502214 0.331590 0.249561 -0.524740
C45   C     C_3   0.594661 0.280738 0.237189 0.126080
H33   H     H_    0.664360 0.318695 0.244799 0.136923
H34   H     H_    0.593783 0.246883 0.176991 0.182883
C46   C     C_3   0.604409 0.214578 0.296226 -0.741277
H35   H     H_    0.674250 0.172066 0.284140 0.201907
H36   H     H_    0.611702 0.246323 0.356889 0.247944
H37   H     H_    0.535920 0.175783 0.291423 0.246342
O24   O     O_3   0.465194 0.669360 0.747180 -0.536369
C47   C     C_3   0.360157 0.695771 0.739116 0.138780
H38   H     H_    0.324741 0.711111 0.797827 0.156175
H39   H     H_    0.316627 0.645724 0.704533 0.140541
C48   C     C_3   0.350693 0.775463 0.695719 -0.747451
H40   H     H_    0.380320 0.761241 0.635280 0.253211
H41   H     H_    0.268664 0.798572 0.691611 0.187165
H42   H     H_    0.395382 0.826084 0.727720 0.234047
O25   O     O_3   0.611943 0.287687 0.595258 -0.498982
C49   C     C_3   0.715784 0.263201 0.577933 0.109265
H43   H     H_    0.732968 0.272670 0.515890 0.150288
H44   H     H_    0.735027 0.195634 0.587278 0.172250
C50   C     C_3   0.785709 0.316757 0.632814 -0.777472
H45   H     H_    0.867224 0.302310 0.616300 0.172466
H46   H     H_    0.766050 0.385348 0.628899 0.250410
H47   H     H_    0.776375 0.302442 0.694613 0.252389
O26   O     O_3   0.362324 0.714441 0.427010 -0.528641
C51   C     C_3   0.366674 0.724002 0.345632 0.113519
H48   H     H_    0.446411 0.712769 0.323836 0.192906
H49   H     H_    0.336814 0.788327 0.332544 0.183454
C52   C     C_3   0.298846 0.660311 0.300185 -0.738747
H50   H     H_    0.217572 0.673317 0.317899 0.246611
H51   H     H_    0.303828 0.665527 0.235939 0.203863
H52   H     H_    0.323955 0.594631 0.312425 0.249852
O27   O     O_3   0.585865 0.115667 0.605197 -0.564794
C53   C     C_3   0.518164 0.117549 0.668617 0.116899
H53   H     H_    0.447190 0.084105 0.650445 0.138601
H54   H     H_    0.496092 0.184045 0.691635 0.166256
C54   C     C_3   0.571694 0.072853 0.734832 -0.773259
H55   H     H_    0.642266 0.105395 0.755012 0.253251
H56   H     H_    0.519281 0.074152 0.785220 0.200212
H57   H     H_    0.593116 0.005710 0.713828 0.246926
O28   O     O_3   0.354400 0.892286 0.444082 -0.563824
C55   C     C_3   0.275023 0.903194 0.499496 0.103834
H58   H     H_    0.302883 0.933400 0.557404 0.133724
H59   H     H_    0.243463 0.841087 0.508201 0.177392
C56   C     C_3   0.188553 0.960969 0.468857 -0.787868
H60   H     H_    0.157893 0.932275 0.411579 0.254075
H61   H     H_    0.125375 0.969938 0.511776 0.197229
H62   H     H_    0.217716 0.023889 0.460595 0.249474

loop_
_geom_bond_atom_site_label_1
_geom_bond_atom_site_label_2
_ccdc_geom_bond_type
C54   H57   S    
C21   O7    A    
O9    H3    S    
C4    C36   A    
C52   H52   S    
C42   H25   S    
C11   C13   A    
N1    N2    D    
O28   C55   S    
C25   O15   S    
C53   C54   S    
O19   H21   S    
C42   H27   S    
C1    C33   S    
O25   C49   S    
C22   O8    A    
C4    O19   S    
O18   H20   S    
C47   H38   S    
C12   O25   S    
C49   H44   S    
C8    O22   S    
C39   H15   S    
C51   C52   S    
Cu1   O5    S    
Cu2   O6    S    
C36   O17   S    
C54   H55   S    
C45   H33   S    
C18   C20   A    
C54   H56   S    
C17   H1    S    
C56   H62   S    
C20   O12   S    
C18   H2    S    
C24   C29   A    
C43   H28   S    
C2    O4    A    
C17   C19   A    
C37   H9    S    
C44   H31   S    
C46   H36   S    
O17   H19   S    
C45   H34   S    
C51   H48   S    
C56   H60   S    
C24   C27   A    
C11   N3    A    
Cu1   O1    S    
Cu2   O2    S    
C2    C34   S    
C25   C32   A    
C56   H61   S    
C26   C31   A    
C9    C33   A    
C46   H37   S    
C41   H24   S    
C20   N4    A    
C19   N3    A    
C48   H41   S    
O15   C37   S    
C23   C30   A    
C52   H50   S    
C55   C56   S    
C39   H14   S    
C4    C6    A    
C16   N6    S    
O21   C41   S    
C5    C7    A    
C1    O1    A    
C6    C8    A    
C2    O2    A    
N5    N6    D    
C43   C44   S    
O13   H7    S    
O16   C39   S    
C50   H46   S    
O11   H5    S    
Cu1   Cu2   S    
C27   O14   S    
C38   H13   S    
C31   C32   A    
C3    C35   A    
O23   C45   S    
C7    O21   S    
C43   H29   S    
C26   O16   S    
C10   C34   A    
C45   C46   S    
C23   C28   A    
C53   H53   S    
C48   H40   S    
C49   C50   S    
Cu1   O8    S    
C55   H59   S    
C8    C10   A    
C29   O10   S    
C13   C15   A    
C14   C16   A    
C25   C27   A    
C13   O28   S    
C50   H45   S    
C21   O5    A    
Cu2   O3    S    
C22   O6    A    
C48   H42   S    
C52   H51   S    
C5    N1    S    
C46   H35   S    
C53   H54   S    
C3    C5    A    
O26   C51   S    
C11   O26   S    
C40   H18   S    
O27   C53   S    
C42   H26   S    
C15   C17   A    
C9    O23   S    
C30   O9    S    
C26   C28   A    
C47   C48   S    
C3    O20   S    
C19   O11   S    
Cu1   N4    S    
C12   C14   A    
C50   H47   S    
Cu2   N3    S    
C29   C31   A    
O22   C43   S    
C30   C32   A    
Cu1   O4    S    
C35   O18   S    
O10   H4    S    
Cu2   O7    S    
C37   C38   S    
C51   H49   S    
C41   H23   S    
C33   C35   A    
C47   H39   S    
C44   H32   S    
C34   C36   A    
C55   H58   S    
C41   C42   S    
C40   H17   S    
O12   H6    S    
C40   H16   S    
C28   O13   S    
C7    C9    A    
C38   H11   S    
C39   C40   S    
C14   O27   S    
C16   C18   A    
O14   H8    S    
C6    N2    S    
C21   C24   S    
C38   H12   S    
C44   H30   S    
C37   H10   S    
C15   N5    S    
C22   C23   S    
C12   N4    A    
O20   H22   S    
C1    O3    A    
C10   O24   S    
O24   C47   S    
C49   H43   S    
