data_mof_unit_36899.cif
_audit_creation_date              2012-10-26T20:16:43-0400
_audit_creation_method            fapswitch 2.2
_symmetry_space_group_name_H-M    P1
_symmetry_Int_Tables_number       1
_space_group_crystal_system       triclinic
_cell_length_a                    10.941304
_cell_length_b                    10.874198
_cell_length_c                    10.014899
_cell_angle_alpha                 99.425762
_cell_angle_beta                  99.289507
_cell_angle_gamma                 94.379384
_cell_volume                      1153.56353714

loop_
_atom_site_label
_atom_site_type_symbol
_atom_type_description
_atom_site_fract_x
_atom_site_fract_y
_atom_site_fract_z
_atom_type_partial_charge
Br1   Br    Br    0.374676 0.346378 0.826762 -0.605261
Br2   Br    Br    0.625325 0.653621 0.173238 -0.605263
C1    C     C_R   0.498045 0.262211 0.498471 0.569981
C2    C     C_R   0.742543 0.959487 0.799366 -0.103356
C3    C     C_R   0.386593 0.066778 0.245140 0.046816
C4    C     C_R   0.613408 0.933222 0.754860 0.046816
C5    C     C_R   0.461670 0.102374 0.154086 -0.065317
C6    C     C_R   0.538331 0.897624 0.845914 -0.065316
C7    C     C_R   0.408372 0.112128 0.020500 -0.119178
C8    C     C_R   0.591629 0.887870 0.979499 -0.119180
C9    C     C_R   0.280131 0.084094 0.975933 -0.097125
C10   C     C_R   0.719869 0.915907 0.024068 -0.097127
C11   C     C_R   0.447390 0.910963 0.384547 -0.134770
C12   C     C_R   0.501955 0.737789 0.501529 0.569981
C13   C     C_R   0.552611 0.089037 0.615453 -0.134769
C14   C     C_R   0.501907 0.872258 0.504561 0.022645
C15   C     C_R   0.498094 0.127742 0.495439 0.022645
C16   C     C_R   0.262803 0.507427 0.498917 0.585280
C17   C     C_R   0.737196 0.492573 0.501083 0.585278
C18   C     C_R   0.555116 0.962833 0.622039 -0.030056
C19   C     C_R   0.444885 0.037167 0.377961 -0.030056
C20   C     C_2   0.508532 0.513533 0.078675 0.250018
C21   C     C_2   0.491468 0.486467 0.921325 0.250020
C22   C     C_R   0.158809 0.579382 0.082962 -0.091664
C23   C     C_R   0.872317 0.484250 0.504450 0.006294
C24   C     C_R   0.841190 0.420601 0.917030 -0.091665
C25   C     C_R   0.116331 0.575609 0.205868 -0.053617
C26   C     C_R   0.883670 0.424380 0.794126 -0.053620
C27   C     C_R   0.076487 0.460172 0.239249 0.039646
C28   C     C_R   0.923513 0.539821 0.760751 0.039645
C29   C     C_R   0.081153 0.348407 0.148415 -0.094973
C30   C     C_R   0.918841 0.651582 0.851587 -0.094971
C31   C     C_R   0.117679 0.353341 0.021912 -0.106956
C32   C     C_R   0.882312 0.646643 0.978088 -0.106955
C33   C     C_R   0.155479 0.468782 0.989194 -0.085964
C34   C     C_R   0.127683 0.515750 0.495549 0.006293
C35   C     C_R   0.844515 0.531199 0.010801 -0.085963
C36   C     C_R   0.915565 0.433082 0.384446 -0.011062
C37   C     C_R   0.084434 0.566918 0.615554 -0.011063
C38   C     C_2   0.834724 0.337768 0.276236 0.234956
C39   C     C_2   0.165274 0.662233 0.723764 0.234955
C40   C     C_R   0.958932 0.539141 0.624285 -0.077730
C41   C     C_R   0.041067 0.460857 0.375715 -0.077728
C42   C     C_R   0.204659 0.049280 0.066312 -0.128743
C43   C     C_R   0.795341 0.950723 0.933690 -0.128744
C44   C     C_R   0.257457 0.040516 0.200636 -0.103353
Cu1   Cu    Cu3+1 0.521120 0.521140 0.639640 1.043224
Cu2   Cu    Cu3+1 0.478880 0.478860 0.360360 1.043222
H1    H     H_    0.179713 0.472904 0.889928 0.155058
H2    H     H_    0.385340 0.372423 0.098408 0.236261
H3    H     H_    0.190834 0.668604 0.059519 0.097912
H4    H     H_    0.809167 0.331377 0.940469 0.097911
H5    H     H_    0.116391 0.662509 0.276501 0.105859
H6    H     H_    0.883614 0.337481 0.723490 0.105859
H7    H     H_    0.054928 0.258486 0.174540 0.102919
H8    H     H_    0.945063 0.741506 0.825465 0.102916
H9    H     H_    0.115023 0.268223 0.948265 0.126443
H10   H     H_    0.884962 0.731759 0.051737 0.126451
H11   H     H_    0.239294 0.088978 0.871309 0.151546
H12   H     H_    0.820278 0.527073 0.110066 0.155051
H13   H     H_    0.760706 0.911023 0.128692 0.151547
H14   H     H_    0.105559 0.027640 0.031730 0.090547
H15   H     H_    0.894440 0.972365 0.968273 0.090549
H16   H     H_    0.198501 0.009876 0.268581 0.109269
H17   H     H_    0.801499 0.990129 0.731421 0.109269
H18   H     H_    0.845697 0.327292 0.170215 0.090013
H19   H     H_    0.154292 0.672719 0.829784 0.090011
H20   H     H_    0.561721 0.118291 0.185098 0.177340
H21   H     H_    0.438280 0.881706 0.814901 0.177342
H22   H     H_    0.467350 0.137962 0.950513 0.155423
H23   H     H_    0.532651 0.862034 0.049485 0.155423
H24   H     H_    0.405792 0.842321 0.294106 0.149250
H25   H     H_    0.594209 0.157679 0.705894 0.149250
H26   H     H_    0.614660 0.627577 0.901592 0.236260
N1    N     N_2   0.447120 0.447110 0.150550 -0.318503
N2    N     N_2   0.552880 0.552890 0.849450 -0.318501
O1    O     O_R   0.517830 0.337490 0.617920 -0.468518
O2    O     O_2   0.241345 0.735886 0.693094 -0.528645
O3    O     O_R   0.482170 0.662510 0.382080 -0.468518
O4    O     O_R   0.482150 0.301790 0.382070 -0.487633
O5    O     O_R   0.517850 0.698210 0.617930 -0.487632
O6    O     O_R   0.337480 0.517860 0.617920 -0.431884
O7    O     O_R   0.662520 0.482140 0.382080 -0.431889
O8    O     O_R   0.301810 0.482160 0.382070 -0.505739
O9    O     O_R   0.698190 0.517840 0.617930 -0.505738
O10   O     O_2   0.758659 0.264110 0.306906 -0.528648

loop_
_geom_bond_atom_site_label_1
_geom_bond_atom_site_label_2
_ccdc_geom_bond_type
C28   C30   A    
C25   C27   A    
C32   C35   A    
C22   C25   A    
C21   N2    D    
C37   C39   S    
C6    H21   S    
H26   N2    S    
Cu1   O9    S    
Cu2   O3    S    
Cu1   N2    S    
C2    H17   S    
C17   O7    A    
C13   C15   A    
Cu1   O6    S    
C38   O10   D    
C31   C33   A    
C5    H20   S    
Br2   C20   S    
C16   O8    A    
C29   C31   A    
C8    H23   S    
C22   H3    S    
C38   H18   S    
C27   C41   S    
Cu2   N1    S    
C20   N1    D    
C9    H11   S    
C1    O4    A    
C42   C44   A    
C37   C40   A    
C2    C43   A    
C13   C18   A    
C22   C33   A    
C7    H22   S    
C39   H19   S    
C2    C4    A    
C39   O2    D    
C3    C5    A    
C26   H6    S    
C4    C6    A    
C42   H14   S    
C43   H15   S    
C15   C19   A    
Cu2   O8    S    
C44   H16   S    
C30   C32   A    
C33   H1    S    
C24   H4    S    
C23   C36   A    
Cu1   Cu2   S    
C14   C18   A    
C11   C19   A    
C9    C42   A    
C12   O3    A    
C7    C9    A    
C8    C10   A    
C13   H25   S    
Br1   C21   S    
C12   C14   S    
Cu1   O1    S    
C1    O1    A    
C5    C7    A    
C31   H9    S    
C34   C37   A    
C10   C43   A    
C17   O9    A    
C23   C40   A    
C25   H5    S    
C24   C35   A    
C11   H24   S    
C4    C18   S    
C3    C44   A    
C24   C26   A    
Cu2   O7    S    
Cu2   O4    S    
C26   C28   A    
C36   C41   A    
C27   C29   A    
H2    N1    S    
C36   C38   S    
C10   H13   S    
C16   O6    A    
C1    C15   S    
Cu1   O5    S    
C17   C23   S    
C35   H12   S    
C3    C19   S    
C6    C8    A    
C11   C14   A    
C32   H10   S    
C20   C21   S    
C28   C40   S    
C34   C41   A    
C12   O5    A    
C29   H7    S    
C16   C34   S    
C30   H8    S    
