data_mof_unit_64796.cif
_audit_creation_date              2012-12-10T21:07:39-0500
_audit_creation_method            fapswitch 2.2
_symmetry_space_group_name_H-M    P1
_symmetry_Int_Tables_number       1
_space_group_crystal_system       triclinic
_cell_length_a                    8.584409
_cell_length_b                    17.556455
_cell_length_c                    16.921126
_cell_angle_alpha                 90.065386
_cell_angle_beta                  98.441235
_cell_angle_gamma                 92.10551
_cell_volume                      2520.82842278

loop_
_atom_site_label
_atom_site_type_symbol
_atom_type_description
_atom_site_fract_x
_atom_site_fract_y
_atom_site_fract_z
_atom_type_partial_charge
C1    C     C_R   0.504042 0.353927 0.500443 0.948337
C2    C     C_R   0.495938 0.646066 0.499565 0.948170
C3    C     C_1   0.501185 0.966227 0.501014 -0.058274
C4    C     C_1   0.497845 0.033735 0.500740 -0.058257
C5    C     C_R   0.400001 0.447385 0.825612 0.085238
C6    C     C_R   0.600152 0.552590 0.174411 0.085321
C7    C     C_R   0.401946 0.449001 0.741175 0.243618
C8    C     C_R   0.598142 0.550974 0.258845 0.243963
C9    C     C_R   0.593250 0.550576 0.757680 0.282680
C10   C     C_R   0.406682 0.449474 0.242292 0.282540
C11   C     C_R   0.593736 0.549919 0.841010 -0.282631
C12   C     C_R   0.406246 0.450136 0.158967 -0.282471
C13   C     C_R   0.497837 0.498437 0.876197 0.009383
C14   C     C_R   0.502261 0.501577 0.123805 0.009289
C15   C     C_1   0.499553 0.499595 0.963689 0.082324
C16   C     C_1   0.500571 0.500429 0.036315 0.082328
C17   C     C_R   0.201001 0.496835 0.479772 0.992329
C18   C     C_R   0.798997 0.503170 0.520229 0.992993
C19   C     C_2   0.037449 0.482508 0.473389 -0.048266
C20   C     C_2   0.962550 0.517492 0.526619 -0.049092
C21   C     C_R   0.632230 0.847311 0.540889 0.010841
C22   C     C_R   0.368006 0.152585 0.459346 0.010458
C23   C     C_R   0.624988 0.767907 0.539211 -0.173673
C24   C     C_R   0.375650 0.231993 0.460413 -0.173385
C25   C     C_R   0.492844 0.728075 0.498837 -0.070692
C26   C     C_R   0.507182 0.271906 0.501279 -0.070807
C27   C     C_R   0.364537 0.767260 0.457645 -0.025651
C28   C     C_R   0.634384 0.232788 0.543614 -0.025646
C29   C     C_R   0.372340 0.846511 0.459606 -0.211690
C30   C     C_R   0.626108 0.153533 0.542354 -0.212591
C31   C     C_R   0.503428 0.885854 0.500849 0.069796
C32   C     C_R   0.495704 0.114111 0.500576 0.069894
H1    H     H_    0.723612 0.736605 0.568281 0.203777
H2    H     H_    0.277671 0.263234 0.430583 0.204155
H3    H     H_    0.275072 0.878139 0.429180 0.137628
H4    H     H_    0.722600 0.121968 0.573638 0.137623
H5    H     H_    0.668854 0.590640 0.878509 0.200926
H6    H     H_    0.331063 0.409453 0.121449 0.200951
N1    N     N_R   0.500040 0.500030 0.707230 -0.144485
N2    N     N_R   0.499960 0.499970 0.292770 -0.144412
O1    O     O_R   0.500000 0.389130 0.566570 -0.583366
O2    O     O_R   0.500000 0.610870 0.433430 -0.582429
O3    O     O_R   0.499990 0.389100 0.433480 -0.604993
O4    O     O_R   0.500010 0.610900 0.566520 -0.605064
O5    O     O_R   0.271750 0.500010 0.550980 -0.608144
O6    O     O_R   0.728250 0.499990 0.449020 -0.608355
O7    O     O_R   0.271740 0.499980 0.417890 -0.568079
O8    O     O_R   0.728260 0.500020 0.582110 -0.568310
Zn1   Zn    Zn3+2 0.500010 0.500020 0.588860 1.052448
Zn2   Zn    Zn3+2 0.499990 0.499980 0.411140 1.052897
I1    I     I_    0.945564 0.382892 0.406189 -0.201120
I2    I     I_    0.054441 0.617072 0.593877 -0.203171
C33   C     C_2   0.773719 0.888899 0.583892 0.431216
H7    H     H_    0.780714 0.950712 0.585418 0.065186
O9    O     O_2   0.884815 0.854526 0.618245 -0.528617
C34   C     C_2   0.227206 0.110920 0.415757 0.431889
H8    H     H_    0.219847 0.049107 0.414755 0.064977
O10   O     O_2   0.117101 0.145230 0.380325 -0.527806
C35   C     C_2   0.219346 0.729773 0.413261 0.445568
H9    H     H_    0.128938 0.764506 0.381289 0.086819
O11   O     O_2   0.196755 0.660834 0.411876 -0.553589
C36   C     C_2   0.778911 0.270370 0.588524 0.446070
H10   H     H_    0.867046 0.235838 0.622612 0.086405
O12   O     O_2   0.803669 0.339128 0.587820 -0.553923
I3    I     I_    0.249614 0.369217 0.879316 -0.252441
I4    I     I_    0.750706 0.630700 0.120740 -0.251464
I5    I     I_    0.243173 0.371244 0.669610 -0.216551
I6    I     I_    0.756903 0.628727 0.330424 -0.216534
I7    I     I_    0.739006 0.636706 0.718401 -0.216167
I8    I     I_    0.260676 0.363447 0.281512 -0.215891

loop_
_geom_bond_atom_site_label_1
_geom_bond_atom_site_label_2
_ccdc_geom_bond_type
O4    Zn1   S    
C2    O4    A    
C6    C8    A    
C5    C7    A    
O3    Zn2   S    
C36   H10   S    
C14   C16   S    
C30   H4    S    
C6    C14   A    
C21   C31   A    
C29   H3    S    
C26   C28   A    
C19   C20   D    
O5    Zn1   S    
O7    Zn2   S    
C2    O2    A    
C5    I3    S    
C13   C15   S    
C35   H9    S    
C29   C31   A    
C27   C35   S    
C33   H7    S    
C3    C31   S    
C9    C11   A    
C4    C32   S    
C6    I4    S    
C22   C32   A    
O2    Zn2   S    
C19   I1    S    
N2    Zn2   S    
C21   C33   S    
C7    N1    A    
O1    Zn1   S    
O8    Zn1   S    
C17   C19   S    
C12   C14   A    
C8    I6    S    
C2    C25   S    
C10   C12   A    
C33   O9    D    
C21   C23   A    
C12   H6    S    
C1    C26   S    
C9    I7    S    
C17   O5    A    
C22   C24   A    
C35   O11   D    
C27   C29   A    
C28   C36   S    
C22   C34   S    
C7    I5    S    
C15   C16   T    
C30   C32   A    
C18   O6    A    
C11   C13   A    
C23   C25   A    
C34   H8    S    
C10   I8    S    
C18   C20   S    
C20   I2    S    
C1    O1    A    
C11   H5    S    
O6    Zn2   S    
C10   N2    A    
C36   O12   D    
C8    N2    A    
N1    Zn1   S    
C5    C13   A    
C1    O3    A    
C9    N1    A    
C24   H2    S    
C3    C4    T    
C24   C26   A    
C17   O7    A    
C34   O10   D    
C28   C30   A    
C23   H1    S    
C25   C27   A    
C18   O8    A    
