data_mof_unit_52674.cif
_audit_creation_date              2012-10-26T21:10:50-0400
_audit_creation_method            fapswitch 2.2
_symmetry_space_group_name_H-M    P1
_symmetry_Int_Tables_number       1
_space_group_crystal_system       triclinic
_cell_length_a                    10.824294
_cell_length_b                    14.709378
_cell_length_c                    14.727536
_cell_angle_alpha                 65.126579
_cell_angle_beta                  103.811994
_cell_angle_gamma                 102.899695
_cell_volume                      2045.69258916

loop_
_atom_site_label
_atom_site_type_symbol
_atom_type_description
_atom_site_fract_x
_atom_site_fract_y
_atom_site_fract_z
_atom_type_partial_charge
C1    C     C_R   0.478191 0.119435 0.312271 0.555953
C2    C     C_R   0.643932 0.781311 0.968287 -0.063633
C3    C     C_R   0.384316 0.151220 0.131441 -0.128510
C4    C     C_R   0.615482 0.848805 0.868582 -0.128582
C5    C     C_R   0.510397 0.288281 0.176276 -0.103954
C6    C     C_R   0.489537 0.711729 0.823732 -0.103990
C7    C     C_R   0.478747 0.359533 0.077107 0.016324
C8    C     C_R   0.520984 0.640509 0.922953 0.016265
C9    C     C_R   0.398973 0.323145 0.004004 0.072867
C10   C     C_R   0.600656 0.676910 0.996076 0.072840
C11   C     C_R   0.520460 0.465637 0.049966 -0.002039
C12   C     C_R   0.521804 0.880566 0.687729 0.555947
C13   C     C_R   0.479192 0.534414 0.950126 -0.002074
C14   C     C_R   0.398907 0.494833 0.880188 -0.062531
C15   C     C_R   0.600599 0.505237 0.119953 -0.062541
C16   C     C_R   0.262379 0.002173 0.497629 0.571800
C17   C     C_R   0.737621 0.997824 0.502377 0.571809
C18   C     C_R   0.361308 0.391763 0.905529 0.246538
C19   C     C_R   0.638180 0.608309 0.094604 0.246496
C20   C     C_R   0.733084 0.294730 0.651649 -0.105233
C21   C     C_R   0.266905 0.705276 0.348344 -0.105277
C22   C     C_R   0.694440 0.210733 0.626277 0.081576
C23   C     C_R   0.871080 0.995373 0.502796 0.005592
C24   C     C_R   0.305565 0.789275 0.373713 0.081578
C25   C     C_R   0.510609 0.280908 0.516944 0.061176
C26   C     C_R   0.489373 0.719076 0.483075 0.061186
C27   C     C_R   0.550903 0.373065 0.531687 0.009328
C28   C     C_R   0.449060 0.626919 0.468325 0.009378
C29   C     C_R   0.660216 0.374982 0.606211 0.021099
C30   C     C_R   0.339756 0.625014 0.393790 0.021052
C31   C     C_R   0.483585 0.459896 0.481113 0.026524
C32   C     C_R   0.516359 0.540080 0.518905 0.026557
C33   C     C_R   0.613993 0.528569 0.606037 0.087248
C34   C     C_R   0.128919 0.004623 0.497211 0.005588
C35   C     C_R   0.385933 0.471402 0.393988 0.087284
C36   C     C_R   0.690358 0.452287 0.641620 -0.053953
C37   C     C_R   0.309595 0.547703 0.358390 -0.053979
C38   C     C_R   0.359768 0.995577 0.803491 -0.068763
C39   C     C_R   0.640314 0.004750 0.196419 -0.068819
C40   C     C_R   0.259934 0.968348 0.735631 -0.097655
C41   C     C_R   0.740179 0.031863 0.264327 -0.097755
C42   C     C_R   0.193296 0.042635 0.655359 0.064505
C43   C     C_R   0.806699 0.957489 0.344581 0.064490
C44   C     C_R   0.226578 0.144645 0.644741 0.117861
C45   C     C_R   0.905609 0.985140 0.421202 -0.017234
C46   C     C_R   0.773276 0.855506 0.355133 0.117941
C47   C     C_R   0.328070 0.171182 0.712021 -0.046800
C48   C     C_R   0.671740 0.829082 0.287816 -0.046721
C49   C     C_R   0.395210 0.097078 0.790759 0.106308
C50   C     C_R   0.604713 0.903274 0.209098 0.106290
C51   C     C_R   0.964792 0.005623 0.583605 0.083776
C52   C     C_R   0.035205 0.994376 0.416397 0.083791
C53   C     C_R   0.094391 0.014878 0.578793 -0.017247
C54   C     C_R   0.459283 0.186318 0.204536 -0.001906
C55   C     C_R   0.540639 0.813690 0.795470 -0.001879
C56   C     C_R   0.355732 0.218736 0.031767 -0.063548
Cl1   Cl    Cl    0.262917 0.352857 0.810229 -0.596174
Cl2   Cl    Cl    0.736386 0.647231 0.189964 -0.596319
Cu1   Cu    Cu3+1 0.466270 0.918260 0.475690 0.990927
Cu2   Cu    Cu3+1 0.533730 0.081740 0.524310 0.990923
H1    H     H_    0.296090 0.188579 0.977756 0.202265
H2    H     H_    0.750114 0.148904 0.661248 0.171106
H3    H     H_    0.817950 0.295988 0.708039 0.151298
H4    H     H_    0.182038 0.704022 0.291952 0.151230
H5    H     H_    0.410742 0.937982 0.864983 0.161595
H6    H     H_    0.589434 0.062416 0.134939 0.161614
H7    H     H_    0.235774 0.889815 0.744612 0.126591
H8    H     H_    0.764451 0.110376 0.255398 0.126649
H9    H     H_    0.355942 0.249704 0.702241 0.189901
H10   H     H_    0.643750 0.750580 0.297551 0.190034
H11   H     H_    0.428967 0.690237 0.764767 0.142465
H12   H     H_    0.703497 0.811479 0.022306 0.202236
H13   H     H_    0.571184 0.309732 0.235207 0.142341
H14   H     H_    0.654665 0.928010 0.848275 0.168231
H15   H     H_    0.345144 0.072010 0.151740 0.168317
H16   H     H_    0.362167 0.541546 0.803855 0.161350
H17   H     H_    0.637158 0.458550 0.196360 0.161471
H18   H     H_    0.767889 0.448013 0.704842 0.165827
H19   H     H_    0.232057 0.551981 0.295171 0.165786
H20   H     H_    0.582137 0.734107 0.524101 0.175283
H21   H     H_    0.417836 0.265853 0.475952 0.175281
H22   H     H_    0.249901 0.851109 0.338739 0.171115
I1    I     I_    0.551944 0.139711 0.888032 -0.382860
I2    I     I_    0.447903 0.860818 0.111769 -0.382987
I3    I     I_    0.641978 0.598779 0.711632 -0.359001
I4    I     I_    0.357799 0.401099 0.288451 -0.359085
I5    I     I_    0.129986 0.262069 0.527045 -0.298212
I6    I     I_    0.869715 0.737962 0.472781 -0.298085
I7    I     I_    0.913033 0.990893 0.721373 -0.319724
I8    I     I_    0.086959 0.009086 0.278641 -0.319770
N1    N     N_R   0.584450 0.204570 0.560790 -0.246923
N2    N     N_R   0.415550 0.795430 0.439210 -0.246928
O1    O     O_R   0.455540 0.022090 0.338120 -0.503688
O2    O     O_R   0.544460 0.977910 0.661880 -0.503724
O3    O     O_R   0.512510 0.160150 0.379180 -0.488993
O4    O     O_R   0.487490 0.839850 0.620820 -0.489024
O5    O     O_R   0.291160 0.930970 0.479480 -0.482607
O6    O     O_R   0.708840 0.069030 0.520520 -0.482598
O7    O     O_R   0.348130 0.069020 0.520540 -0.504743
O8    O     O_R   0.651870 0.930980 0.479460 -0.504734

loop_
_geom_bond_atom_site_label_1
_geom_bond_atom_site_label_2
_ccdc_geom_bond_type
C8    C13   A    
C23   C45   A    
C27   C29   A    
C14   C18   A    
C52   I8    S    
C6    C55   A    
Cu2   O7    S    
C50   I2    S    
C47   C49   A    
C38   C49   A    
C15   C19   A    
C37   H19   S    
C29   C36   A    
C17   C23   S    
C35   C37   A    
Cu2   O6    S    
C42   C53   S    
C35   I4    S    
C16   O5    A    
C26   N2    A    
C33   C36   A    
C24   H22   S    
C47   H9    S    
C21   H4    S    
C33   I3    S    
C16   C34   S    
C11   C15   A    
C40   H7    S    
C22   N1    A    
C44   I5    S    
C3    H15   S    
C17   O6    A    
C4    H14   S    
C44   C47   A    
C40   C42   A    
Cu1   Cu2   S    
C13   C14   A    
C25   H21   S    
Cu1   O8    S    
C41   C43   A    
C12   O2    A    
C42   C44   A    
C2    H12   S    
C24   N2    A    
C43   C46   A    
C41   H8    S    
C46   I6    S    
C20   C29   A    
C19   Cl2   S    
C6    H11   S    
C46   C48   A    
C25   N1    A    
C27   C31   A    
C5    C54   A    
C28   C32   A    
C39   C41   A    
C5    C7    A    
C6    C8    A    
C45   C52   A    
C26   H20   S    
C30   C37   A    
C51   C53   A    
C14   H16   S    
C7    C11   A    
C1    C54   S    
C22   H2    S    
C3    C56   A    
C18   Cl1   S    
C23   C51   A    
C31   C32   A    
C38   H5    S    
C10   C19   A    
C1    O3    A    
C9    C56   A    
C43   C45   S    
C1    O1    A    
C20   C22   A    
C4    C55   A    
Cu1   O5    S    
C39   H6    S    
C31   C35   A    
Cu1   O4    S    
C2    C10   A    
Cu2   N1    S    
C7    C9    A    
C34   C52   A    
C48   H10   S    
C16   O7    A    
C25   C27   A    
C21   C30   A    
C26   C28   A    
C32   C33   A    
C49   I1    S    
C20   H3    S    
C28   C30   A    
C36   H18   S    
C51   I7    S    
C38   C40   A    
C11   C13   A    
C15   H17   S    
C2    C4    A    
C48   C50   A    
C3    C54   A    
Cu1   N2    S    
C5    H13   S    
C17   O8    A    
C12   C55   S    
Cu2   O3    S    
C9    C18   A    
C39   C50   A    
C34   C53   A    
C8    C10   A    
C21   C24   A    
C56   H1    S    
C12   O4    A    
Cu1   O1    S    
Cu2   O2    S    
