data_mof_unit_41726.cif
_audit_creation_date              2012-12-10T18:03:58-0500
_audit_creation_method            fapswitch 2.2
_symmetry_space_group_name_H-M    P1
_symmetry_Int_Tables_number       1
_space_group_crystal_system       triclinic
_cell_length_a                    10.898447
_cell_length_b                    9.647628
_cell_length_c                    10.942872
_cell_angle_alpha                 91.464057
_cell_angle_beta                  94.800174
_cell_angle_gamma                 91.085814
_cell_volume                      1145.91244155

loop_
_atom_site_label
_atom_site_type_symbol
_atom_type_description
_atom_site_fract_x
_atom_site_fract_y
_atom_site_fract_z
_atom_type_partial_charge
C1    C     C_R   0.263114 0.499376 0.509780 0.805083
C2    C     C_R   0.736464 0.501673 0.489379 0.795356
C3    C     C_R   0.412433 0.071054 0.429279 0.026956
C4    C     C_R   0.586242 0.078868 0.572072 0.038733
C5    C     C_R   0.419622 0.923362 0.420193 0.057439
C6    C     C_R   0.579429 0.931380 0.580688 0.061969
C7    C     C_R   0.505496 0.497267 0.262892 0.842352
C8    C     C_R   0.495731 0.500647 0.737083 0.855585
C9    C     C_R   0.561745 0.601279 0.069261 0.013312
C10   C     C_R   0.553457 0.605741 0.943201 0.042258
C11   C     C_R   0.519067 0.487748 0.130347 -0.179828
C12   C     C_R   0.496932 0.497753 0.870864 -0.165832
C13   C     C_R   0.489185 0.365242 0.058277 0.142498
C14   C     C_R   0.464219 0.374800 0.930262 0.125970
C15   C     C_3   0.532198 0.758554 0.948020 -0.033669
C16   C     C_3   0.546851 0.752101 0.086687 -0.037690
C17   C     C_R   0.057392 0.374857 0.504405 -0.039386
C18   C     C_R   0.932647 0.381349 0.460996 -0.017576
C19   C     C_R   0.870418 0.506629 0.477416 -0.240193
C20   C     C_R   0.128222 0.499902 0.517963 -0.230794
C21   C     C_R   0.939766 0.632828 0.494915 -0.019962
C22   C     C_R   0.067095 0.628115 0.523901 0.004380
Cu1   Cu    Cu3+1 0.500000 0.640660 0.500000 1.036380
Cu2   Cu    Cu3+1 0.500000 0.359340 0.500000 0.966392
H1    H     H_    0.607744 0.818856 0.913332 0.171373
H2    H     H_    0.462227 0.776422 0.129640 0.164427
N1    N     N_R   0.500000 0.852070 0.500000 -0.205746
N2    N     N_R   0.500000 0.147940 0.500000 -0.232223
O1    O     O_R   0.319640 0.618740 0.499990 -0.549724
O2    O     O_R   0.680360 0.618740 0.500010 -0.553874
O3    O     O_R   0.319620 0.381170 0.499990 -0.630913
O4    O     O_R   0.680380 0.381170 0.500010 -0.611387
O5    O     O_R   0.499990 0.618810 0.319660 -0.557767
O6    O     O_R   0.500010 0.618810 0.680340 -0.532387
O7    O     O_R   0.499960 0.381240 0.319650 -0.598426
O8    O     O_R   0.500040 0.381240 0.680350 -0.605206
I1    I     I_    0.502948 0.161392 0.129061 -0.334655
I2    I     I_    0.352566 0.213008 0.836490 -0.262030
I3    I     I_    0.349204 0.812306 0.880606 -0.221620
I4    I     I_    0.714379 0.845706 0.168719 -0.210951
C23   C     C_2   0.104936 0.243612 0.558880 0.559319
H3    H     H_    0.196699 0.238504 0.602989 0.091785
O9    O     O_2   0.038955 0.140669 0.564030 -0.405927
C24   C     C_2   0.874100 0.267907 0.378572 0.534339
H4    H     H_    0.778914 0.272797 0.341834 0.079669
O10   O     O_2   0.934305 0.172661 0.341270 -0.409242
C25   C     C_2   0.887544 0.771446 0.465248 0.508657
H5    H     H_    0.804754 0.808884 0.500172 0.140712
O11   O     O_2   0.941662 0.849526 0.400821 -0.440406
C26   C     C_2   0.129824 0.756911 0.577777 0.517501
H6    H     H_    0.199216 0.811552 0.531411 0.137529
O12   O     O_2   0.097386 0.807768 0.672841 -0.472103
C27   C     C_2   0.308855 0.141396 0.360578 0.362433
H7    H     H_    0.321706 0.240067 0.319358 0.157688
O13   O     O_2   0.205852 0.088176 0.348671 -0.488175
C28   C     C_2   0.689433 0.157092 0.641168 0.374326
H8    H     H_    0.674606 0.249197 0.695042 0.134656
O14   O     O_2   0.794838 0.117288 0.638516 -0.502196
C29   C     C_2   0.347829 0.856648 0.311694 0.473486
H9    H     H_    0.339074 0.912750 0.226863 0.090968
O15   O     O_2   0.289113 0.748848 0.314705 -0.506493
C30   C     C_2   0.652964 0.873775 0.688040 0.435372
H10   H     H_    0.674202 0.940492 0.768474 0.067290
O16   O     O_2   0.697959 0.759768 0.688906 -0.519813

loop_
_geom_bond_atom_site_label_1
_geom_bond_atom_site_label_2
_ccdc_geom_bond_type
C26   O12   D    
Cu1   Cu2   S    
Cu2   O4    S    
C8    O8    A    
C30   H10   S    
C18   C24   S    
C28   O14   D    
C14   I2    S    
C23   O9    D    
C23   H3    S    
C13   I1    S    
C25   H5    S    
C22   C26   S    
C8    C12   S    
Cu1   O6    S    
C6    C30   S    
C1    O1    A    
C17   C18   A    
Cu2   O3    S    
C29   H9    S    
C25   O11   D    
C8    O6    A    
C27   H7    S    
C4    C28   S    
C7    C11   S    
C7    O5    A    
C5    N1    A    
C15   I3    S    
Cu2   O8    S    
C10   C12   A    
C16   I4    S    
Cu1   O1    S    
C4    C6    A    
C3    N2    A    
C19   C21   A    
C9    C16   S    
C20   C22   A    
C26   H6    S    
Cu1   N1    S    
C10   C15   S    
C27   O13   D    
C1    O3    A    
C16   H2    S    
C17   C23   S    
C15   H1    S    
Cu2   O7    S    
C29   O15   D    
C2    O2    A    
C5    C29   S    
C15   C16   S    
Cu1   O2    S    
Cu2   N2    S    
C11   C13   A    
C17   C20   A    
C28   H8    S    
Cu1   O5    S    
C2    O4    A    
C18   C19   A    
C9    C10   A    
C21   C25   S    
C9    C11   A    
C1    C20   S    
C30   O16   D    
C3    C27   S    
C24   O10   D    
C13   C14   A    
C4    N2    A    
C2    C19   S    
C21   C22   A    
C7    O7    A    
C24   H4    S    
C6    N1    A    
C12   C14   A    
C3    C5    A    
