data_mof_unit_29438.cif
_audit_creation_date              2012-12-11T16:20:22-0500
_audit_creation_method            fapswitch 2.2
_symmetry_space_group_name_H-M    P1
_symmetry_Int_Tables_number       1
_space_group_crystal_system       triclinic
_cell_length_a                    6.908013
_cell_length_b                    34.339718
_cell_length_c                    38.373758
_cell_angle_alpha                 99.593407
_cell_angle_beta                  89.757644
_cell_angle_gamma                 90.186099
_cell_volume                      8975.57937957

loop_
_atom_site_label
_atom_site_type_symbol
_atom_type_description
_atom_site_fract_x
_atom_site_fract_y
_atom_site_fract_z
_atom_type_partial_charge
O1    O     O_R   0.494320 0.461440 0.460990 -0.513663
O2    O     O_R   0.821450 0.462560 0.532500 -0.518522
O3    O     O_R   0.994330 0.538560 0.539010 -0.547107
C1    C     C_R   0.652551 0.454344 0.544155 0.728889
O4    O     O_R   0.823870 0.456770 0.460860 -0.509382
O5    O     O_R   0.996760 0.532730 0.466860 -0.536756
C2    C     C_R   0.655187 0.446044 0.447832 0.813505
O6    O     O_R   0.491880 0.467270 0.533140 -0.541548
O7    O     O_3   0.661650 0.524930 0.502050 -0.390999
V1    V     V_3+5 0.935500 0.495380 0.499620 1.551743
O8    O     O_R   0.326630 0.537440 0.467500 -0.548523
C3    C     C_R   0.158083 0.546055 0.456080 0.740059
O9    O     O_R   0.324210 0.543230 0.539140 -0.549820
C4    C     C_R   0.155054 0.553722 0.552244 0.686357
V2    V     V_3+5 0.435810 0.504620 0.500380 1.487451
O10   O     O_3   0.159790 0.475070 0.497950 -0.329549
C5    C     C_R   0.887542 0.817787 0.801324 0.599303
N1    N     N_R   0.033091 0.821992 0.825982 -0.551755
C6    C     C_R   0.190699 0.797291 0.821756 0.590383
C7    C     C_R   0.207645 0.767559 0.791799 -0.027876
C8    C     C_R   0.060099 0.763155 0.766241 -0.019691
C9    C     C_R   0.898047 0.788289 0.771042 -0.042114
C10   C     C_R   0.368638 0.742248 0.786773 -0.143725
C11   C     C_R   0.382736 0.712997 0.756812 -0.150508
C12   C     C_R   0.236628 0.708408 0.731024 -0.031005
C13   C     C_R   0.074967 0.733626 0.735754 -0.018682
C14   C     C_R   0.928328 0.729437 0.710041 -0.026830
C15   C     C_R   0.766811 0.754620 0.715163 -0.138722
C16   C     C_R   0.751764 0.783636 0.745292 -0.144865
C17   C     C_R   0.247627 0.679019 0.700681 0.576747
N2    N     N_R   0.104558 0.675388 0.675516 -0.555241
C18   C     C_R   0.947284 0.700238 0.679711 0.587808
O11   O     O_2   0.734510 0.842455 0.805707 -0.508239
O12   O     O_2   0.330418 0.801267 0.846573 -0.522849
H1    H     H_    0.484840 0.745039 0.805899 0.169479
H2    H     H_    0.509231 0.694160 0.753846 0.171600
O13   O     O_2   0.399108 0.653946 0.696713 -0.526243
O14   O     O_2   0.810287 0.697124 0.654434 -0.526888
H3    H     H_    0.651009 0.751936 0.695961 0.170827
H4    H     H_    0.625031 0.802406 0.748307 0.174336
C19   C     C_R   0.966702 0.617567 0.635865 -0.087642
H5    H     H_    0.839292 0.618889 0.652555 0.155995
C20   C     C_R   0.978224 0.588368 0.605772 -0.205751
H6    H     H_    0.858537 0.567901 0.599895 0.126583
C21   C     C_R   0.143491 0.585149 0.583921 -0.053113
C22   C     C_R   0.296553 0.612046 0.592815 -0.206085
H7    H     H_    0.425526 0.610445 0.576498 0.138163
C23   C     C_R   0.283159 0.641814 0.622555 -0.080430
H8    H     H_    0.401272 0.662648 0.628433 0.167133
C24   C     C_R   0.118297 0.644835 0.644513 0.353472
C25   C     C_R   0.869400 0.855951 0.880329 -0.070900
H9    H     H_    0.755169 0.833997 0.876642 0.167377
C26   C     C_R   0.862167 0.886460 0.909520 -0.208482
H10   H     H_    0.741537 0.887274 0.927749 0.161749
C27   C     C_R   0.010075 0.915128 0.915548 -0.118751
C28   C     C_R   0.164811 0.912877 0.890821 0.219698
C29   C     C_R   0.169805 0.882333 0.861627 -0.092831
H11   H     H_    0.287670 0.881147 0.842774 0.182814
C30   C     C_R   0.023817 0.853514 0.856187 0.302475
C31   C     C_R   0.182696 0.854666 0.171706 0.609558
O15   O     O_2   0.307612 0.885124 0.172741 -0.524304
N3    N     N_R   0.039048 0.849161 0.146710 -0.551745
C32   C     C_R   0.908826 0.818733 0.145938 0.574527
C33   C     C_R   0.854797 0.895477 0.116084 -0.075754
C34   C     C_R   0.843553 0.920502 0.090798 -0.201022
C35   C     C_R   0.178140 0.906307 0.074650 -0.200215
C36   C     C_R   0.188044 0.880695 0.099404 -0.089653
C37   C     C_R   0.027098 0.875207 0.120632 0.356634
C38   C     C_R   0.066182 0.798158 0.196601 -0.035646
C39   C     C_R   0.200131 0.829038 0.196686 -0.084443
C40   C     C_R   0.353400 0.832805 0.220708 -0.123711
C41   C     C_R   0.919312 0.792946 0.170897 -0.009404
C42   C     C_R   0.005627 0.926455 0.069954 -0.052898
H12   H     H_    0.305292 0.910011 0.058908 0.135198
H13   H     H_    0.321690 0.865075 0.102059 0.149078
H14   H     H_    0.466334 0.854454 0.219259 0.198802
C43   C     C_R   0.148955 0.573034 0.429500 -0.050558
C44   C     C_R   0.214483 0.756840 0.277028 0.055741
C45   C     C_R   0.969585 0.713021 0.244508 0.048540
C46   C     C_R   0.096770 0.722472 0.273614 0.071121
C47   C     C_R   0.308517 0.768956 0.309618 -0.097598
C48   C     C_R   0.312947 0.744986 0.335557 -0.126504
C49   C     C_R   0.215360 0.708712 0.330643 -0.037577
C50   C     C_R   0.103327 0.697787 0.300007 -0.045605
C51   C     C_R   0.996051 0.662431 0.296007 -0.032500
C52   C     C_R   0.008347 0.637963 0.322011 0.585803
N4    N     N_R   0.120042 0.648818 0.351567 -0.555456
C53   C     C_R   0.221242 0.683762 0.356330 0.582336
C54   C     C_R   0.308263 0.608050 0.386899 -0.073515
C55   C     C_R   0.317869 0.583314 0.412424 -0.180181
C56   C     C_R   0.970552 0.588398 0.420531 -0.178514
C57   C     C_R   0.961442 0.613402 0.395245 -0.076489
C58   C     C_R   0.129998 0.623347 0.378054 0.365200
O16   O     O_2   0.325894 0.694622 0.385988 -0.523333
C59   C     C_R   0.223174 0.779251 0.248895 -0.021270
C60   C     C_R   0.079585 0.772418 0.222042 0.057797
C61   C     C_R   0.949722 0.739921 0.220231 0.081455
C62   C     C_R   0.370289 0.807764 0.245717 0.237373
H15   H     H_    0.457476 0.571885 0.418466 0.132534
H16   H     H_    0.439763 0.615120 0.373789 0.137721
H17   H     H_    0.390949 0.755371 0.359771 0.178176
H18   H     H_    0.371010 0.798002 0.316385 0.184295
O17   O     O_2   0.771188 0.812913 0.120749 -0.531933
C63   C     C_R   0.786884 0.761964 0.170442 -0.122520
H19   H     H_    0.708880 0.935725 0.087998 0.134793
H20   H     H_    0.729253 0.892042 0.132301 0.160883
H21   H     H_    0.670310 0.757626 0.151383 0.162907
C64   C     C_R   0.864949 0.677091 0.241026 -0.172947
C65   C     C_R   0.879313 0.652223 0.266136 -0.121027
O18   O     O_2   0.910623 0.603410 0.317545 -0.514927
C66   C     C_R   0.802002 0.735869 0.194445 -0.143597
H22   H     H_    0.774088 0.666836 0.218579 0.122992
H23   H     H_    0.837643 0.581257 0.433165 0.128606
H24   H     H_    0.796579 0.624998 0.262135 0.172364
H25   H     H_    0.822753 0.625106 0.389035 0.131687
H26   H     H_    0.691480 0.713425 0.192861 0.120199
C67   C     C_R   0.748391 0.322557 0.648331 0.595009
O19   O     O_2   0.898931 0.320122 0.625542 -0.516098
N5    N     N_R   0.602437 0.349086 0.646262 -0.548759
C68   C     C_R   0.445952 0.351062 0.668627 0.588185
C69   C     C_R   0.776996 0.400530 0.620415 -0.123334
C70   C     C_R   0.792842 0.426347 0.595641 0.167909
C71   C     C_R   0.479938 0.402988 0.571642 -0.229225
C72   C     C_R   0.467504 0.377072 0.596052 -0.081513
C73   C     C_R   0.615622 0.375636 0.620712 0.320812
C74   C     C_R   0.582586 0.299044 0.697011 -0.049451
C75   C     C_R   0.741985 0.297482 0.673872 -0.044436
C76   C     C_R   0.892061 0.271069 0.676717 -0.125579
C77   C     C_R   0.432494 0.325903 0.694046 -0.033083
C78   C     C_R   0.642511 0.427598 0.570819 -0.070918
H27   H     H_    0.363201 0.403321 0.552930 0.182314
H28   H     H_    0.342324 0.357945 0.595682 0.172911
H29   H     H_    0.017620 0.269521 0.659523 0.173693
C79   C     C_R   0.510967 0.072664 0.929565 -0.056451
C80   C     C_R   0.715188 0.221159 0.751137 0.039413
C81   C     C_R   0.405746 0.251752 0.773122 0.005525
C82   C     C_R   0.555791 0.224047 0.775079 0.060974
C83   C     C_R   0.858404 0.192386 0.753644 -0.179562
C84   C     C_R   0.846304 0.167616 0.778696 -0.121557
C85   C     C_R   0.692406 0.170602 0.802704 -0.028509
C86   C     C_R   0.546908 0.198977 0.801287 -0.109093
C87   C     C_R   0.393700 0.202261 0.826166 -0.038312
C88   C     C_R   0.392854 0.177219 0.852114 0.618132
N6    N     N_R   0.534138 0.149274 0.852412 -0.565161
C89   C     C_R   0.681668 0.145562 0.828145 0.598263
C90   C     C_R   0.684924 0.120554 0.900948 -0.073634
C91   C     C_R   0.678056 0.095142 0.925918 -0.205014
C92   C     C_R   0.352221 0.075667 0.907358 -0.162984
C93   C     C_R   0.360914 0.100346 0.881861 -0.078820
C94   C     C_R   0.526718 0.123291 0.878533 0.347541
O20   O     O_2   0.817099 0.117343 0.828303 -0.522244
C95   C     C_R   0.726122 0.246790 0.725500 0.027368
C96   C     C_R   0.573464 0.273862 0.723071 0.064805
C97   C     C_R   0.411956 0.276121 0.746402 0.042699
C98   C     C_R   0.885155 0.246409 0.701991 -0.176502
H30   H     H_    0.802320 0.093535 0.942735 0.135342
H31   H     H_    0.813599 0.138200 0.899092 0.160166
H32   H     H_    0.960402 0.146163 0.779314 0.171216
H33   H     H_    0.982184 0.187684 0.736380 0.128994
H34   H     H_    0.009444 0.227735 0.702515 0.130405
O21   O     O_2   0.304860 0.377717 0.666742 -0.532380
C99   C     C_R   0.272468 0.327257 0.716554 -0.134332
H35   H     H_    0.889931 0.399970 0.639824 0.158547
H36   H     H_    0.153186 0.347155 0.714492 0.168287
C100  C     C_R   0.254980 0.254508 0.798411 -0.234181
C101  C     C_R   0.248060 0.230648 0.824545 0.221738
O22   O     O_2   0.253533 0.180993 0.877170 -0.494793
C102  C     C_R   0.261541 0.302858 0.742010 -0.181017
H37   H     H_    0.139505 0.275589 0.799303 0.126098
H38   H     H_    0.222216 0.058423 0.909309 0.150611
H39   H     H_    0.238188 0.101582 0.864615 0.162699
H40   H     H_    0.130522 0.305522 0.757458 0.129152
C103  C     C_R   0.554414 0.165997 0.207433 0.571808
N7    N     N_R   0.545783 0.176613 0.174552 -0.559472
C104  C     C_R   0.553585 0.215573 0.170596 0.568762
C105  C     C_R   0.565316 0.245636 0.200408 -0.029736
C106  C     C_R   0.573811 0.235168 0.234329 -0.014051
C107  C     C_R   0.569546 0.195029 0.237954 -0.032690
C108  C     C_R   0.568834 0.285809 0.197131 -0.138263
C109  C     C_R   0.579759 0.315135 0.227099 -0.132006
C110  C     C_R   0.589116 0.305037 0.261102 -0.038850
C111  C     C_R   0.586970 0.264903 0.264691 -0.017778
C112  C     C_R   0.597928 0.254433 0.298569 -0.038910
C113  C     C_R   0.594774 0.214243 0.301840 -0.130048
C114  C     C_R   0.580130 0.184925 0.271928 -0.133878
C115  C     C_R   0.599812 0.334119 0.291671 0.595656
N8    N     N_R   0.612028 0.323583 0.324613 -0.545873
C116  C     C_R   0.612384 0.284471 0.328369 0.593672
O23   O     O_2   0.547700 0.127482 0.210619 -0.513682
O24   O     O_2   0.550782 0.225214 0.137929 -0.518921
H41   H     H_    0.562309 0.294753 0.171399 0.174384
H42   H     H_    0.581370 0.345751 0.223498 0.177030
O25   O     O_2   0.595745 0.372630 0.288435 -0.504496
O26   O     O_2   0.628668 0.274557 0.360801 -0.505992
H43   H     H_    0.602944 0.205280 0.327548 0.178760
H44   H     H_    0.577455 0.154312 0.275534 0.177666
C117  C     C_R   0.484365 0.356315 0.382514 -0.088442
H45   H     H_    0.366964 0.335063 0.379991 0.173951
C118  C     C_R   0.494699 0.385539 0.412682 0.220420
C119  C     C_R   0.645754 0.414046 0.416316 -0.181581
C120  C     C_R   0.786440 0.411611 0.388957 0.218936
C121  C     C_R   0.775247 0.381673 0.359332 -0.094333
H46   H     H_    0.884301 0.380116 0.338790 0.174031
C122  C     C_R   0.624060 0.354001 0.355669 0.259058
C123  C     C_R   0.354129 0.138042 0.125698 0.233143
C124  C     C_R   0.343979 0.107962 0.096053 -0.159035
H47   H     H_    0.206486 0.102022 0.082715 0.145155
C125  C     C_R   0.509191 0.085884 0.083630 -0.115325
C126  C     C_R   0.684840 0.094300 0.101833 -0.188172
H48   H     H_    0.814564 0.077714 0.093324 0.141630
C127  C     C_R   0.695027 0.123884 0.131612 -0.100662
H49   H     H_    0.830508 0.129355 0.145557 0.157002
C128  C     C_R   0.531466 0.146239 0.143656 0.333786
O27   O     O_R   0.662230 0.032770 0.966890 -0.535636
O28   O     O_R   0.330090 0.043230 0.039150 -0.546716
O29   O     O_R   0.157350 0.967260 0.033130 -0.542075
C129  C     C_R   0.498811 0.053945 0.052199 0.705276
O30   O     O_R   0.332650 0.037450 0.967510 -0.538145
O31   O     O_R   0.159930 0.961430 0.960980 -0.514474
C130  C     C_R   0.501722 0.045982 0.956146 0.762753
O32   O     O_R   0.659640 0.038600 0.039040 -0.543211
O33   O     O_3   0.492510 0.975090 0.997960 -0.358349
V3    V     V_3+5 0.218600 0.004620 0.000380 1.458463
O34   O     O_R   0.830050 0.956730 0.960830 -0.531622
C131  C     C_R   0.999300 0.946697 0.947328 0.764383
O35   O     O_R   0.827490 0.962520 0.032470 -0.546387
C132  C     C_R   0.996087 0.953820 0.043777 0.692882
V4    V     V_3+5 0.718310 0.995320 0.999580 1.460890
O36   O     O_3   0.994270 0.024900 0.002040 -0.375347
Br1   Br    Br    0.369390 0.951372 0.893670 -0.532385
Br2   Br    Br    0.620747 0.809524 0.267968 -0.573763
N9    N     N_3   0.958723 0.451844 0.596185 -0.643227
H50   H     H_    0.912220 0.480720 0.605231 0.208556
H51   H     H_    0.061434 0.445272 0.614276 0.240896
N10   N     N_3   0.091131 0.235918 0.849468 -0.585803
H52   H     H_    0.095382 0.265018 0.862897 0.234219
H53   H     H_    0.961014 0.232060 0.835505 0.229873
Br3   Br    Br    0.302637 0.383117 0.448673 -0.474149
Br4   Br    Br    0.992366 0.449454 0.389023 -0.486344
N11   N     N_3   0.182091 0.159425 0.137545 -0.677261
H54   H     H_    0.159346 0.157209 0.164101 0.233627
H55   H     H_    0.203882 0.189170 0.135878 0.268224

loop_
_geom_bond_atom_site_label_1
_geom_bond_atom_site_label_2
_ccdc_geom_bond_type
C80   C83   A    
N4    C53   A    
C74   C75   A    
C9    C16   A    
C123  N11   S    
C67   O19   S    
C19   C20   A    
C120  C121  A    
C19   C24   A    
C115  O25   S    
C59   C60   A    
C1    O6    A    
C38   C60   A    
O34   C131  A    
C104  O24   S    
C47   C48   A    
C59   C62   A    
O30   V3    S    
C90   H31   S    
C51   C52   A    
C113  C114  A    
C127  H49   S    
C79   C91   A    
O32   V4    S    
C13   C14   A    
C100  C101  A    
C85   C86   A    
C121  C122  A    
C33   C37   A    
C15   C16   A    
C52   O18   S    
C51   C65   A    
C67   N5    A    
O5    C3    A    
C17   N2    A    
C61   C66   A    
C44   C46   A    
C29   C30   A    
C81   C100  A    
O4    V1    S    
C106  C111  A    
C69   H35   S    
C125  C129  S    
C34   C42   A    
C64   C65   A    
C72   H28   S    
C117  C122  A    
C31   N3    A    
N1    C6    A    
C19   H5    S    
V3    O36   S    
C2    C119  S    
C117  C118  A    
C111  C112  A    
C57   C58   A    
N6    C94   S    
C76   C98   A    
O1    C2    A    
C90   C94   A    
C107  C114  A    
O8    V2    S    
C83   H33   S    
C105  C108  A    
C43   C56   A    
C104  C105  A    
C84   H32   S    
C119  C120  A    
C108  H41   S    
C77   C99   A    
C92   H38   S    
N10   H52   S    
C7    C10   A    
C120  Br4   S    
C66   H26   S    
O1    V2    S    
C18   O14   S    
O27   V4    S    
O7    V1    S    
C46   C50   A    
C23   C24   A    
C35   C36   A    
C14   C18   A    
C123  C128  A    
C118  C119  A    
C96   C97   A    
C103  N7    A    
C8    C9    A    
C3    C43   S    
C129  O32   A    
N11   H55   S    
N10   H53   S    
C97   C102  A    
C38   C39   A    
C86   C87   A    
C5    O11   S    
O34   V4    S    
C34   H19   S    
V4    O36   S    
C32   C41   A    
C8    C13   A    
C126  H48   S    
C4    C21   S    
C99   H36   S    
C47   H18   S    
C26   C27   A    
C100  H37   S    
C40   C62   A    
C22   C23   A    
C43   C55   A    
O29   C132  A    
C121  H46   S    
C54   H16   S    
C68   C77   A    
C71   C72   A    
C11   C12   A    
C32   O17   S    
C109  H42   S    
C125  C126  A    
C56   C57   A    
C42   C132  S    
C124  H47   S    
C12   C17   A    
C1    C78   S    
C41   C63   A    
C15   H3    S    
C12   C13   A    
C110  C111  A    
C35   C42   A    
N8    C122  S    
C48   C49   A    
C54   C58   A    
O31   C131  A    
C25   H9    S    
C17   O13   S    
C31   O15   S    
C25   C26   A    
C38   C41   A    
O2    C1    A    
C36   C37   A    
C112  C113  A    
C69   C73   A    
N3    C32   A    
C62   Br2   S    
C87   C101  A    
C81   C97   A    
C76   H29   S    
O30   C130  A    
C49   C50   A    
C95   C98   A    
C31   C39   A    
C44   C59   A    
O8    C3    A    
C60   C61   A    
C27   C28   A    
N9    H51   S    
C5    N1    A    
C82   C86   A    
C28   Br1   S    
C11   H2    S    
C50   C51   A    
N5    C68   A    
C33   H20   S    
C91   H30   S    
C67   C75   A    
C88   O22   S    
C69   C70   A    
C89   O20   S    
O3    C4    A    
C68   O21   S    
C106  C107  A    
C99   C102  A    
C65   H24   S    
C105  C106  A    
C127  C128  A    
O35   C132  A    
O6    V2    S    
O35   V4    S    
O9    V2    S    
C20   H6    S    
C21   C22   A    
C25   C30   A    
C28   C29   A    
C114  H44   S    
C75   C76   A    
O2    V1    S    
C118  Br3   S    
N5    C73   S    
C55   H15   S    
C39   C40   A    
C79   C92   A    
C109  C110  A    
C84   C85   A    
O4    C2    A    
C90   C91   A    
C101  N10   S    
C80   C82   A    
C123  C124  A    
C22   H7    S    
C23   H8    S    
C56   H23   S    
C71   H27   S    
C98   H34   S    
C52   N4    A    
C45   C61   A    
N2    C18   A    
C81   C82   A    
C6    O12   S    
O28   V3    S    
C85   C89   A    
O5    V1    S    
C63   C66   A    
C110  C115  A    
C26   H10   S    
C108  C109  A    
C113  H43   S    
C70   N9    S    
C112  C116  A    
C10   H1    S    
C5    C9    A    
C74   C77   A    
N3    C37   S    
N6    C89   A    
N7    C128  S    
C33   C34   A    
C27   C131  S    
C6    C7    A    
O28   C129  A    
C88   N6    A    
C115  N8    A    
O29   V3    S    
N8    C116  A    
C71   C78   A    
O3    V1    S    
V1    O10   S    
C93   C94   A    
C44   C47   A    
C29   H11   S    
C40   H14   S    
C103  C107  A    
C79   C130  S    
V2    O10   S    
N4    C58   S    
C16   H4    S    
C103  O23   S    
N11   H54   S    
C126  C127  A    
C48   H17   S    
C70   C78   A    
C45   C64   A    
C49   C53   A    
C124  C125  A    
C92   C93   A    
O7    V2    S    
C117  H45   S    
C57   H25   S    
C83   C84   A    
C10   C11   A    
O31   V3    S    
C45   C46   A    
C74   C96   A    
C64   H22   S    
N1    C30   S    
C102  H40   S    
C36   H13   S    
C7    C8    A    
C93   H39   S    
O33   V4    S    
C14   C15   A    
C53   O16   S    
C87   C88   A    
O27   C130  A    
C95   C96   A    
N2    C24   S    
C54   C55   A    
O9    C4    A    
O33   V3    S    
C20   C21   A    
C63   H21   S    
C116  O26   S    
C80   C95   A    
N9    H50   S    
C72   C73   A    
N7    C104  A    
C35   H12   S    
