data_mof_unit_28503.cif
_audit_creation_date              2012-12-11T15:53:54-0500
_audit_creation_method            fapswitch 2.2
_symmetry_space_group_name_H-M    P1
_symmetry_Int_Tables_number       1
_space_group_crystal_system       triclinic
_cell_length_a                    10.63812
_cell_length_b                    10.75791
_cell_length_c                    17.037643
_cell_angle_alpha                 80.659318
_cell_angle_beta                  99.211908
_cell_angle_gamma                 118.817023
_cell_volume                      1678.16732408

loop_
_atom_site_label
_atom_site_type_symbol
_atom_type_description
_atom_site_fract_x
_atom_site_fract_y
_atom_site_fract_z
_atom_type_partial_charge
C1    C     C_R   0.384183 0.283328 0.632076 0.553871
C2    C     C_R   0.387504 0.828528 0.672974 -0.129514
C3    C     C_R   0.371589 0.850575 0.748826 -0.151038
C4    C     C_3   0.151125 0.455362 0.798225 0.124685
C5    C     C_3   0.164301 0.431759 0.714938 -0.221522
C6    C     C_R   0.313335 0.690421 0.647199 0.018821
C7    C     C_1   0.823430 0.656770 0.705940 -0.026242
C8    C     C_1   0.851322 0.684716 0.773688 -0.022735
C9    C     C_1   0.364201 0.230980 0.714075 -0.045524
C10   C     C_1   0.333118 0.184052 0.781191 -0.019489
C11   C     C_1   0.335620 0.663441 0.277719 -0.044244
C12   C     C_R   0.368990 0.654481 0.585934 0.543538
C13   C     C_1   0.323173 0.672902 0.206957 -0.047461
C14   C     C_R   0.869715 0.685849 0.167956 0.025659
C15   C     C_R   0.914297 0.601974 0.224330 0.030603
C16   C     C_R   0.904747 0.595534 0.303971 0.015565
C17   C     C_R   0.834241 0.781988 0.276188 -0.160876
C18   C     C_R   0.843413 0.786933 0.194869 -0.159959
C19   C     C_3   0.877396 0.449019 0.227705 -0.265232
C20   C     C_3   0.866265 0.440148 0.316105 -0.269345
C21   C     C_R   0.849309 0.674287 0.329947 0.018084
C22   C     C_R   0.338361 0.183218 0.155098 0.025528
C23   C     C_R   0.776956 0.618855 0.626782 0.544604
C24   C     C_R   0.264520 0.246254 0.178925 0.029451
C25   C     C_R   0.269395 0.257663 0.258155 0.032376
C26   C     C_R   0.443373 0.170798 0.291689 -0.168063
C27   C     C_R   0.440405 0.160168 0.210832 -0.166091
C28   C     C_3   0.110751 0.219100 0.164137 -0.262597
C29   C     C_3   0.117804 0.232420 0.252100 -0.273077
C30   C     C_R   0.346167 0.206520 0.316256 0.022514
C31   C     C_R   0.892279 0.702130 0.855839 0.553448
C32   C     C_R   0.281957 0.750560 0.882809 0.575649
C33   C     C_R   0.286126 0.117040 0.858021 0.580011
C34   C     C_R   0.353937 0.232083 0.397465 0.555578
C35   C     C_R   0.893372 0.693891 0.086184 0.557020
C36   C     C_R   0.313075 0.700752 0.123821 0.567746
C37   C     C_R   0.288019 0.111436 0.083457 0.573174
C38   C     C_R   0.365129 0.653875 0.360766 0.551614
C39   C     C_R   0.775348 0.624174 0.401292 0.551564
C40   C     C_R   0.281452 0.734946 0.799248 0.019782
C41   C     C_R   0.188248 0.606175 0.766387 0.019484
C42   C     C_R   0.202620 0.584814 0.691059 -0.031031
Cr1   Cr    Cr6+3 0.608440 0.389080 0.519680 1.020609
Cr2   Cr    Cr6+3 0.288640 0.400090 0.490760 1.009278
Cr3   Cr    Cr6+3 0.602940 0.710800 0.489510 1.019659
Cr4   Cr    Cr6+3 0.052530 0.947560 0.964210 1.056367
Cr5   Cr    Cr6+3 0.059970 0.626800 0.992920 1.049008
Cr6   Cr    Cr6+3 0.373320 0.938440 0.995370 1.037865
H1    H     H_    0.468548 0.915936 0.638533 0.149073
H2    H     H_    0.772490 0.385287 0.193589 0.148319
H3    H     H_    0.754656 0.368258 0.332101 0.165588
H4    H     H_    0.951252 0.420624 0.354363 0.141087
H5    H     H_    0.515546 0.144344 0.334856 0.127971
H6    H     H_    0.505643 0.118342 0.193974 0.142051
H7    H     H_    0.032847 0.109976 0.148176 0.159158
H8    H     H_    0.099362 0.306792 0.124597 0.158456
H9    H     H_    0.112661 0.328279 0.263794 0.143424
H10   H     H_    0.046554 0.131079 0.286090 0.141693
H11   H     H_    0.437930 0.954674 0.770231 0.142810
H12   H     H_    0.255530 0.410836 0.712066 0.162143
H13   H     H_    0.061211 0.359130 0.682536 0.128917
H14   H     H_    0.799035 0.850901 0.294854 0.140165
H15   H     H_    0.822685 0.863863 0.153190 0.132813
H16   H     H_    0.969133 0.436390 0.214452 0.142047
O1    O     O_R   0.754020 0.497590 0.609930 -0.509503
O2    O     O_R   0.295080 0.533620 0.397890 -0.507510
O3    O     O_R   0.485280 0.746620 0.388440 -0.513278
O4    O     O_R   0.720550 0.696220 0.420010 -0.505958
O5    O     O_3   0.500010 0.499990 0.499980 -0.266327
O6    O     O_R   0.163320 0.092900 0.874450 -0.473097
O7    O     O_R   0.934650 0.822080 0.882840 -0.492376
O8    O     O_R   0.915520 0.604140 0.893670 -0.503008
O9    O     O_R   0.191760 0.638110 0.923230 -0.463820
O10   O     O_R   0.406180 0.826930 0.920660 -0.486104
O11   O     O_R   0.358620 0.062870 0.901950 -0.520279
O12   O     O_R   0.481420 0.271390 0.600630 -0.487717
O13   O     O_R   0.163910 0.085460 0.050210 -0.504337
O14   O     O_R   0.935200 0.815170 0.045770 -0.501986
O15   O     O_R   0.916120 0.596690 0.069430 -0.515053
O16   O     O_R   0.192310 0.631200 0.086170 -0.500436
O17   O     O_R   0.406770 0.819480 0.096420 -0.508298
O18   O     O_R   0.359170 0.055960 0.064880 -0.508621
O19   O     O_3   0.161940 0.837600 0.984160 -0.299770
O20   O     O_R   0.263810 0.254550 0.589590 -0.511330
O21   O     O_R   0.300820 0.531200 0.560890 -0.516390
O22   O     O_R   0.491480 0.744020 0.564270 -0.515878
O23   O     O_R   0.726290 0.693800 0.583010 -0.495847
O24   O     O_R   0.747830 0.500190 0.434090 -0.522967
O25   O     O_R   0.475680 0.273800 0.437630 -0.502544
O26   O     O_R   0.257620 0.257160 0.413750 -0.515356
C43   C     C_1   0.003634 0.373988 0.822354 0.271999
N1    N     N_1   0.887555 0.309906 0.841320 -0.281672
Br1   Br    Br    0.295235 0.436552 0.878567 -0.487366

loop_
_geom_bond_atom_site_label_1
_geom_bond_atom_site_label_2
_ccdc_geom_bond_type
C5    C42   S    
C16   C21   A    
C41   C42   A    
C14   C18   A    
Cr2   O2    S    
C19   C20   S    
Cr5   O15   S    
C28   H8    S    
C27   H6    S    
C7    C8    T    
C1    O20   A    
C15   C19   S    
C26   C27   A    
Cr1   O25   S    
C12   O21   A    
Cr1   O24   S    
C39   O24   A    
C28   C29   S    
Cr3   O23   S    
C20   H3    S    
C6    C12   S    
C18   H15   S    
C4    C41   S    
C15   C16   A    
Cr1   O12   S    
Cr6   O17   S    
C39   O4    A    
C33   O11   A    
C38   O2    A    
Cr3   O3    S    
Cr5   O19   S    
C9    C10   T    
C19   H16   S    
C43   N1    T    
Cr1   O1    S    
C4    C43   S    
C31   O7    A    
Cr1   O5    S    
C23   O23   A    
C8    C31   S    
Cr6   O11   S    
C2    C6    A    
Cr5   O16   S    
C28   H7    S    
C25   C29   S    
C30   C34   S    
Cr3   O5    S    
Cr6   O10   S    
C1    C9    S    
C24   C25   A    
Cr5   O9    S    
C13   C36   S    
C36   O16   A    
C32   O9    A    
Cr4   O14   S    
C22   C37   S    
C37   O13   A    
C17   C21   A    
C4    Br1   S    
C11   C38   S    
C34   O26   A    
C2    H1    S    
C17   H14   S    
C21   C39   S    
C36   O17   A    
C16   C20   S    
Cr3   O4    S    
C17   C18   A    
C5    H13   S    
Cr2   O5    S    
C29   H10   S    
Cr4   O7    S    
C33   O6    A    
C40   C41   A    
C29   H9    S    
C3    C40   A    
C26   C30   A    
C22   C27   A    
C22   C24   A    
C37   O18   A    
Cr2   O21   S    
C26   H5    S    
C14   C35   S    
Cr2   O26   S    
C25   C30   A    
C31   O8    A    
C5    H12   S    
C1    O12   A    
C24   C28   S    
C4    C5    S    
Cr2   O20   S    
Cr4   O13   S    
C35   O14   A    
Cr6   O19   S    
C12   O22   A    
C23   O1    A    
C2    C3    A    
C34   O25   A    
C20   H4    S    
C32   O10   A    
C11   C13   T    
C19   H2    S    
C7    C23   S    
C35   O15   A    
Cr6   O18   S    
Cr3   O22   S    
C10   C33   S    
C32   C40   S    
Cr5   O8    S    
Cr4   O6    S    
Cr4   O19   S    
C38   O3    A    
C6    C42   A    
C14   C15   A    
C3    H11   S    
