data_mof_unit_14030.cif
_audit_creation_date              2012-12-11T17:02:16-0500
_audit_creation_method            fapswitch 2.2
_symmetry_space_group_name_H-M    P1
_symmetry_Int_Tables_number       1
_space_group_crystal_system       triclinic
_cell_length_a                    21.644402
_cell_length_b                    7.052059
_cell_length_c                    14.852562
_cell_angle_alpha                 89.809906
_cell_angle_beta                  106.117988
_cell_angle_gamma                 89.902137
_cell_volume                      2177.92580174

loop_
_atom_site_label
_atom_site_type_symbol
_atom_type_description
_atom_site_fract_x
_atom_site_fract_y
_atom_site_fract_z
_atom_type_partial_charge
O1    O     O_R   0.585850 0.505770 0.002130 -0.537731
O2    O     O_R   0.414150 0.005770 0.997870 -0.537867
O3    O     O_R   0.467530 0.173560 0.861970 -0.539139
O4    O     O_R   0.532470 0.673560 0.138030 -0.539188
C1    C     C_R   0.455168 0.344816 0.825350 0.684591
C2    C     C_R   0.544954 0.843827 0.174706 0.684118
O5    O     O_R   0.588690 0.175900 0.993250 -0.544243
O6    O     O_R   0.411310 0.675900 0.006750 -0.543962
O7    O     O_R   0.536170 0.007950 0.130090 -0.536972
O8    O     O_R   0.463830 0.507950 0.869910 -0.536447
C3    C     C_R   0.615134 0.344424 0.998071 0.696806
C4    C     C_R   0.384895 0.844651 0.002083 0.697408
O9    O     O_3   0.482630 0.339970 0.044740 -0.373298
O10   O     O_3   0.517370 0.839970 0.955260 -0.373089
V1    V     V_3+5 0.503220 0.064200 0.991700 1.415218
V2    V     V_3+5 0.496780 0.564200 0.008300 1.415834
C5    C     C_R   0.275258 0.994696 0.947804 0.045522
C6    C     C_R   0.724701 0.493216 0.052696 0.046785
C7    C     C_R   0.315598 0.851616 0.997208 -0.097505
C8    C     C_R   0.684466 0.351088 0.003151 -0.098527
C9    C     C_R   0.286082 0.705399 0.035140 -0.173674
C10   C     C_R   0.714130 0.205846 0.964976 -0.175327
H1    H     H_    0.314300 0.586851 0.071079 0.118155
H2    H     H_    0.686055 0.087896 0.928981 0.119143
C11   C     C_R   0.220573 0.717511 0.032911 -0.157037
C12   C     C_R   0.779594 0.218349 0.967011 -0.156812
H3    H     H_    0.200829 0.608075 0.068032 0.117743
H4    H     H_    0.799441 0.109654 0.931763 0.119821
C13   C     C_R   0.182264 0.874519 0.991168 -0.156415
C14   C     C_R   0.817726 0.374754 0.008789 -0.157498
C15   C     C_R   0.210136 0.003623 0.941523 0.068006
C16   C     C_R   0.789762 0.502395 0.058790 0.067097
C17   C     C_3   0.209875 0.215997 0.933731 0.310412
C18   C     C_3   0.789854 0.714483 0.067605 0.310892
C19   C     C_3   0.282260 0.204178 0.946069 -0.397557
C20   C     C_3   0.717503 0.702562 0.055653 -0.397385
H5    H     H_    0.197459 0.291415 0.992281 0.048875
H6    H     H_    0.802010 0.792231 0.009299 0.048488
H7    H     H_    0.311471 0.259943 0.014534 0.126013
H8    H     H_    0.688075 0.760897 0.987620 0.125926
H9    H     H_    0.297415 0.253353 0.884257 0.179712
H10   H     H_    0.702512 0.749057 0.117941 0.181336
C21   C     C_R   0.928981 0.886750 0.723065 -0.092697
C22   C     C_R   0.071301 0.383512 0.276645 -0.088858
C23   C     C_R   0.573683 0.848008 0.276031 -0.029576
C24   C     C_R   0.426392 0.354428 0.724195 -0.027125
C25   C     C_R   0.941646 0.926527 0.566303 0.474741
C26   C     C_R   0.057332 0.378581 0.433797 0.479815
C27   C     C_R   0.967772 0.925105 0.664525 -0.265266
C28   C     C_R   0.031194 0.378896 0.335402 -0.271485
C29   C     C_R   0.863389 0.855301 0.685601 -0.220783
C30   C     C_R   0.137783 0.384327 0.313697 -0.220293
C31   C     C_R   0.834049 0.867299 0.588045 0.028075
C32   C     C_R   0.166566 0.379781 0.411426 0.028670
C33   C     C_R   0.874330 0.903166 0.528684 0.021514
C34   C     C_R   0.125240 0.375623 0.471155 0.023537
C35   C     C_R   0.765953 0.848767 0.548027 0.089872
C36   C     C_R   0.234986 0.378732 0.451402 0.090377
C37   C     C_R   0.738936 0.867756 0.448890 0.051140
C38   C     C_R   0.261279 0.370945 0.550977 0.051106
C39   C     C_R   0.781013 0.899763 0.392856 -0.191855
C40   C     C_R   0.218370 0.366601 0.607267 -0.197453
C41   C     C_R   0.846853 0.916554 0.431893 -0.168402
C42   C     C_R   0.152265 0.369382 0.568228 -0.172514
C43   C     C_R   0.723873 0.813341 0.603997 -0.188126
C44   C     C_R   0.278041 0.385324 0.395045 -0.187753
C45   C     C_R   0.658039 0.797977 0.565108 -0.209527
C46   C     C_R   0.344102 0.382626 0.434039 -0.209764
C47   C     C_R   0.630991 0.816962 0.469004 0.141956
C48   C     C_R   0.370425 0.373320 0.530624 0.142105
C49   C     C_R   0.670716 0.853116 0.409168 0.082480
C50   C     C_R   0.329668 0.367713 0.590835 0.082462
C51   C     C_R   0.564181 0.797430 0.432226 -0.163996
C52   C     C_R   0.437613 0.369551 0.567411 -0.163759
C53   C     C_R   0.535840 0.810711 0.336188 -0.174997
C54   C     C_R   0.465409 0.359731 0.663719 -0.177737
C55   C     C_R   0.640234 0.870851 0.311826 -0.208914
C56   C     C_R   0.359397 0.358673 0.688591 -0.206363
H11   H     H_    0.876323 0.942346 0.384976 0.171699
H12   H     H_    0.122169 0.366153 0.615497 0.177269
H13   H     H_    0.666575 0.897366 0.261327 0.096923
H14   H     H_    0.332318 0.354153 0.739368 0.094013
H15   H     H_    0.484446 0.790155 0.308606 0.103569
H16   H     H_    0.517308 0.356708 0.691142 0.102908
H17   H     H_    0.627905 0.770045 0.611046 0.121969
H18   H     H_    0.375008 0.387662 0.387762 0.121427
H19   H     H_    0.018122 0.955310 0.696272 0.111251
H20   H     H_    0.979814 0.374593 0.303328 0.106203
H21   H     H_    0.836661 0.828694 0.735542 0.104756
H22   H     H_    0.165266 0.387993 0.263454 0.102103
H23   H     H_    0.764783 0.913049 0.317765 0.156243
H24   H     H_    0.234104 0.361427 0.682601 0.161583
O11   O     O_R   0.036080 0.231270 0.130120 -0.535890
O12   O     O_R   0.963920 0.731270 0.869880 -0.537163
O13   O     O_R   0.911300 0.558970 0.006750 -0.552516
O14   O     O_R   0.088700 0.058970 0.993250 -0.552116
C57   C     C_R   0.885229 0.389799 0.004126 0.690651
C58   C     C_R   0.114766 0.889620 0.995864 0.690894
O15   O     O_R   0.032450 0.561140 0.138040 -0.544272
O16   O     O_R   0.967550 0.061140 0.861960 -0.542685
O17   O     O_R   0.085870 0.728910 0.002130 -0.540907
O18   O     O_R   0.914130 0.228910 0.997870 -0.540077
C59   C     C_R   0.044049 0.392095 0.175139 0.719060
C60   C     C_R   0.955878 0.892857 0.824778 0.719261
O19   O     O_3   0.017320 0.394650 0.955270 -0.383739
O20   O     O_3   0.982680 0.894650 0.044730 -0.383215
V3    V     V_3+5 0.996780 0.670490 0.008300 1.364735
V4    V     V_3+5 0.003220 0.170490 0.991700 1.369041
O21   O     O_3   0.978519 0.966556 0.504931 -0.552526
C61   C     C_3   0.041821 0.894313 0.536334 -0.211673
H25   H     H_    0.043642 0.750210 0.567870 0.137471
H26   H     H_    0.073136 0.994364 0.586281 0.163496
H27   H     H_    0.061497 0.882172 0.475115 0.161349
O22   O     O_3   0.019606 0.369571 0.496427 -0.554474
C62   C     C_3   0.957200 0.445582 0.460190 -0.200495
H28   H     H_    0.925285 0.341067 0.413912 0.160782
H29   H     H_    0.957621 0.583041 0.423279 0.136789
H30   H     H_    0.936752 0.473610 0.519585 0.161000
H31   H     H_    0.739891 0.795603 0.678812 0.118373
H32   H     H_    0.262687 0.393143 0.319808 0.117901
H33   H     H_    0.533904 0.768510 0.477816 0.116458
H34   H     H_    0.468726 0.373998 0.521462 0.116350
O23   O     O_3   0.178741 0.278455 0.841535 -0.557392
C63   C     C_3   0.116666 0.346169 0.836013 -0.182768
H35   H     H_    0.117715 0.459307 0.888355 0.149246
H36   H     H_    0.084699 0.227680 0.842997 0.157675
H37   H     H_    0.096113 0.410268 0.765775 0.137358
O24   O     O_3   0.821178 0.773916 0.159973 -0.554972
C64   C     C_3   0.883505 0.838990 0.165669 -0.184071
H38   H     H_    0.882826 0.953984 0.114002 0.148891
H39   H     H_    0.914951 0.719586 0.157803 0.156257
H40   H     H_    0.904464 0.899615 0.236313 0.137157

loop_
_geom_bond_atom_site_label_1
_geom_bond_atom_site_label_2
_ccdc_geom_bond_type
O17   V3    S    
C44   C46   A    
C2    C23   S    
C42   H12   S    
C27   H19   S    
C20   H10   S    
O1    C3    A    
C40   H24   S    
O24   C64   S    
O11   C59   A    
C2    O7    A    
C24   C54   A    
O22   C62   S    
O23   C63   S    
C25   C27   A    
C41   H11   S    
O5    C3    A    
O19   V3    S    
C14   C57   S    
C52   C54   A    
C13   C58   S    
C26   O22   S    
C7    C9    A    
C63   H36   S    
O11   V4    S    
C35   C37   A    
O20   V3    S    
C38   C50   A    
O2    C4    A    
C36   C38   A    
C62   H28   S    
O16   C60   A    
C46   H18   S    
C38   C40   A    
C37   C39   A    
C39   C41   A    
C21   C60   S    
C40   C42   A    
C17   C19   S    
C61   H25   S    
C30   H22   S    
C36   C44   A    
C62   H29   S    
O14   C58   A    
C48   C52   A    
C50   C56   A    
C34   C42   A    
O18   V4    S    
C6    C8    A    
C57   O18   A    
C28   H20   S    
C64   H40   S    
C22   C30   A    
O5    V1    S    
O14   V4    S    
O12   C60   A    
O6    V2    S    
C44   H32   S    
C51   C53   A    
C54   H16   S    
C22   C59   S    
C30   C32   A    
C31   C33   A    
C11   C13   A    
C3    C8    S    
O19   V4    S    
C32   C34   A    
O12   V3    S    
C45   H17   S    
O16   V4    S    
C53   H15   S    
C20   H8    S    
O4    C2    A    
O15   C59   A    
C24   C56   A    
C31   C35   A    
C21   C27   A    
C43   C45   A    
C25   O21   S    
C17   H5    S    
C33   C41   A    
C29   C31   A    
C16   C18   S    
O4    V2    S    
C19   H7    S    
C56   H14   S    
C55   H13   S    
O6    C4    A    
C62   H30   S    
C15   C17   S    
C43   H31   S    
O1    V2    S    
C47   C51   A    
O2    V1    S    
C61   H27   S    
O13   V3    S    
C63   H37   S    
C46   C48   A    
C52   H34   S    
C8    C10   A    
C12   C14   A    
C51   H33   S    
C9    H1    S    
C5    C15   A    
C10   H2    S    
C6    C16   A    
C49   C55   A    
O3    V1    S    
C25   C33   A    
C64   H38   S    
C32   C36   A    
C22   C28   A    
C26   C34   A    
C9    C11   A    
C18   H6    S    
C35   C43   A    
O3    C1    A    
C48   C50   A    
O13   C57   A    
C11   H3    S    
C58   O17   A    
O15   V3    S    
C1    C24   S    
C12   H4    S    
C47   C49   A    
C23   C53   A    
O7    V1    S    
C1    O8    A    
C13   C15   A    
O8    V2    S    
O21   C61   S    
C29   H21   S    
C14   C16   A    
C21   C29   A    
O20   V4    S    
C4    C7    S    
C26   C28   A    
C5    C7    A    
C18   C20   S    
C19   H9    S    
C61   H26   S    
C18   O24   S    
C10   C12   A    
O9    V2    S    
C17   O23   S    
O10   V1    S    
C23   C55   A    
C5    C19   S    
C45   C47   A    
C6    C20   S    
C39   H23   S    
C37   C49   A    
C63   H35   S    
C64   H39   S    
