data_mof_unit_19193.cif
_audit_creation_date              2012-12-11T16:53:31-0500
_audit_creation_method            fapswitch 2.2
_symmetry_space_group_name_H-M    P1
_symmetry_Int_Tables_number       1
_space_group_crystal_system       triclinic
_cell_length_a                    15.029592
_cell_length_b                    14.791503
_cell_length_c                    17.272155
_cell_angle_alpha                 108.390951
_cell_angle_beta                  107.580418
_cell_angle_gamma                 108.255706
_cell_volume                      3099.04777922

loop_
_atom_site_label
_atom_site_type_symbol
_atom_type_description
_atom_site_fract_x
_atom_site_fract_y
_atom_site_fract_z
_atom_type_partial_charge
C1    C     C_R   0.088553 0.282274 0.069488 -0.126827
C2    C     C_R   0.022772 0.571736 0.742750 -0.127206
C3    C     C_R   0.753105 0.191226 0.726334 -0.195781
C4    C     C_R   0.356152 0.545713 0.040674 -0.288052
C5    C     C_R   0.241739 0.700958 0.264873 -0.146719
C6    C     C_R   0.704592 0.498603 0.915167 -0.126341
C7    C     C_R   0.894418 0.399499 0.178057 0.201817
C8    C     C_R   0.083716 0.799229 0.001324 0.558752
C9    C     C_R   0.911266 0.716250 0.928525 -0.184597
C10   C     C_R   0.068191 0.488826 0.255073 -0.197476
C11   C     C_R   0.244862 0.799864 0.190468 -0.155410
C12   C     C_R   0.933842 0.520909 0.748980 -0.156481
C13   C     C_R   0.698778 0.411499 0.997544 -0.097949
C14   C     C_R   0.284949 0.804919 0.277166 0.026307
C15   C     C_R   0.640234 0.442642 0.942545 0.076851
C16   C     C_R   0.979459 0.433527 0.259274 0.019833
C17   C     C_R   0.996830 0.810773 0.955686 -0.148659
C18   C     C_R   0.453765 0.543051 0.945943 0.086313
C19   C     C_R   0.420195 0.506763 0.002855 0.113414
C20   C     C_R   0.425221 0.412552 0.001610 -0.123755
C21   C     C_R   0.482074 0.373166 0.962332 -0.254959
C22   C     C_R   0.533772 0.427077 0.923089 0.097380
C23   C     C_R   0.765637 0.199808 0.812538 0.466260
C24   C     C_R   0.499701 0.496356 0.898263 0.118788
C25   C     C_3   0.556889 0.598028 0.895699 -0.601847
C26   C     C_3   0.521557 0.651573 0.960654 0.018944
C27   C     C_R   0.978316 0.439845 0.343531 0.126697
C28   C     C_R   0.020853 0.576882 0.660854 0.074453
C29   C     C_R   0.108053 0.649265 0.582733 0.540383
C30   C     C_R   0.097262 0.661369 0.662161 -0.333596
C31   C     C_R   0.949091 0.484829 0.580390 -0.248703
C32   C     C_R   0.959051 0.470632 0.501890 0.117816
C33   C     C_R   0.037647 0.553557 0.501897 -0.013034
C34   C     C_R   0.301731 0.595412 0.005083 0.499698
C35   C     C_R   0.044412 0.538069 0.421269 -0.239173
C36   C     C_R   0.907801 0.355177 0.346639 -0.127167
C37   C     C_R   0.895165 0.371874 0.424838 -0.144283
C38   C     C_R   0.715981 0.094278 0.641282 -0.168192
C39   C     C_R   0.382857 0.890569 0.356855 0.110636
C40   C     C_R   0.541449 0.054556 0.420795 -0.087786
C41   C     C_R   0.438652 0.985403 0.355321 -0.229950
C42   C     C_R   0.429969 0.869316 0.428293 -0.146987
C43   C     C_R   0.532825 0.937128 0.493460 -0.091281
C44   C     C_R   0.588505 0.031141 0.490169 -0.008052
C45   C     C_R   0.775481 0.294213 0.735346 0.526838
C46   C     C_R   0.688389 0.101972 0.559849 0.205569
C47   C     C_R   0.678250 0.990934 0.635629 0.350421
C48   C     C_R   0.584071 0.910486 0.559554 0.400765
C49   C     C_R   0.093114 0.097341 0.113864 0.042805
C50   C     C_R   0.000922 0.101229 0.067812 0.109496
C51   C     C_R   0.906047 0.018024 0.048148 -0.206457
C52   C     C_R   0.906649 0.945820 0.085478 -0.133403
C53   C     C_R   0.001293 0.953720 0.141667 0.097610
C54   C     C_R   0.092843 0.024196 0.147801 -0.012157
C55   C     C_3   0.198814 0.096782 0.225201 0.472496
C56   C     C_R   0.293700 0.490890 0.072127 0.456186
C57   C     C_3   0.197948 0.179543 0.190427 -0.587982
C58   C     C_R   0.106545 0.592769 0.819099 0.577877
C59   C     C_R   0.915798 0.199720 0.996886 -0.059819
C60   C     C_R   0.002169 0.187527 0.040704 0.006469
H1    H     H_    0.167423 0.305976 0.115371 0.152709
H2    H     H_    0.681642 0.517734 0.859349 0.087472
H3    H     H_    0.831416 0.692067 0.883085 0.129175
H4    H     H_    0.147891 0.517945 0.303503 0.109636
H5    H     H_    0.264600 0.865904 0.174591 0.142968
H6    H     H_    0.668635 0.356973 0.022160 0.140365
H7    H     H_    0.390744 0.371318 0.034494 0.184948
H8    H     H_    0.496739 0.310570 0.974282 0.147784
H9    H     H_    0.642976 0.636345 0.925289 0.232789
H10   H     H_    0.856155 0.504905 0.706177 0.155648
H11   H     H_    0.519703 0.592609 0.826970 0.177371
H12   H     H_    0.477871 0.690037 0.931232 0.139707
H13   H     H_    0.099142 0.603509 0.418266 0.160428
H14   H     H_    0.862031 0.276844 0.289256 0.168036
H15   H     H_    0.836620 0.307276 0.425239 0.166263
H16   H     H_    0.152733 0.732279 0.725476 0.163253
H17   H     H_    0.890285 0.419842 0.580321 0.192341
H18   H     H_    0.582723 0.127436 0.418434 0.150429
H19   H     H_    0.404528 0.004883 0.302030 0.110170
H20   H     H_    0.388415 0.798954 0.433215 0.144835
H21   H     H_    0.831248 0.011620 0.008668 0.138296
H22   H     H_    0.833660 0.887330 0.074490 0.171897
H23   H     H_    0.259192 0.070129 0.218631 -0.010735
H24   H     H_    0.194049 0.248798 0.236519 0.225351
H25   H     H_    0.258056 0.199776 0.165602 0.155389
H26   H     H_    0.836121 0.150261 0.980097 0.167218
H27   H     H_    0.258842 0.670890 0.313830 0.087784
N1    N     N_R   0.055640 0.348550 0.045600 -0.053580
N2    N     N_R   0.798340 0.505430 0.954400 -0.038737
N3    N     N_R   0.931580 0.439470 0.128350 -0.052457
N4    N     N_R   0.051950 0.704140 0.002340 -0.082569
N5    N     N_R   0.944360 0.651450 0.954400 -0.069054
N6    N     N_R   0.039170 0.492150 0.176290 -0.046465
N7    N     N_R   0.188710 0.696600 0.128350 -0.030858
N8    N     N_R   0.794820 0.447010 0.002340 -0.036568
N9    N     N_R   0.960830 0.507850 0.823710 -0.080350
N10   N     N_R   0.811290 0.303400 0.871650 -0.129204
N11   N     N_R   0.205180 0.552990 0.997660 -0.116436
N12   N     N_R   0.814810 0.361830 0.823710 -0.145860
N13   N     N_R   0.201660 0.494570 0.045600 -0.137716
N14   N     N_R   0.068420 0.560530 0.871650 -0.098706
N15   N     N_R   0.948050 0.295860 0.997660 -0.046029
N16   N     N_R   0.185190 0.638170 0.176290 -0.054391
Ni1   Ni    Ni4+2 0.119330 0.493420 0.109950 0.191209
Ni2   Ni    Ni4+2 0.880670 0.506580 0.890050 0.176304
Ni3   Ni    Ni4+2 0.872590 0.372590 0.000000 0.228905
Ni4   Ni    Ni4+2 0.127410 0.627410 0.000000 0.271237
I1    I     I_    0.747211 0.266162 0.122840 -0.541455
O1    O     O_3   0.188593 0.863230 0.029340 -0.706190
C61   C     C_3   0.206178 0.941310 0.997690 0.142459
H28   H     H_    0.287117 0.005529 0.044797 0.142699
H29   H     H_    0.154550 0.980643 0.000517 0.097722
C62   C     C_3   0.198491 0.893721 0.901854 -0.284166
H30   H     H_    0.244476 0.847731 0.899884 0.242896
H31   H     H_    0.115509 0.838318 0.851945 0.191315
C63   C     C_3   0.240860 0.980654 0.874619 -1.010697
H32   H     H_    0.199345 0.030894 0.879323 0.280767
H33   H     H_    0.229492 0.943325 0.803386 0.280889
H34   H     H_    0.325812 0.032232 0.919935 0.275441
I2    I     I_    0.656037 0.742686 0.094845 -0.484956
O2    O     O_3   0.190484 0.728429 0.585904 -0.663573
C64   C     C_3   0.275399 0.702520 0.597556 0.171951
H35   H     H_    0.311082 0.724902 0.554494 0.148081
H36   H     H_    0.252033 0.615432 0.574726 0.081209
C65   C     C_3   0.358420 0.766815 0.697083 -0.291283
H37   H     H_    0.390044 0.853027 0.715143 0.206946
H38   H     H_    0.322900 0.752722 0.742514 0.201853
C66   C     C_3   0.448011 0.736274 0.713165 -1.005449
H39   H     H_    0.418348 0.650563 0.697348 0.253608
H40   H     H_    0.506867 0.784960 0.785720 0.272312
H41   H     H_    0.486637 0.751354 0.669914 0.307307
I3    I     I_    0.808391 0.187722 0.533520 -0.475432
O3    O     O_3   0.719492 0.119771 0.833248 -0.642386
C67   C     C_3   0.608841 0.077378 0.790227 0.297737
H42   H     H_    0.575604 0.998356 0.789282 0.151844
H43   H     H_    0.576779 0.062864 0.718059 0.071410
C68   C     C_3   0.570686 0.148882 0.842026 -0.413285
H44   H     H_    0.601453 0.163110 0.913993 0.243863
H45   H     H_    0.599690 0.226322 0.839888 0.197757
C69   C     C_3   0.451396 0.098066 0.799217 -0.976165
H46   H     H_    0.418505 0.077437 0.725609 0.272164
H47   H     H_    0.425636 0.154734 0.833260 0.277021
H48   H     H_    0.420275 0.025082 0.807666 0.269144
O4    O     O_3   0.721085 0.970122 0.707091 -0.626361
C70   C     C_3   0.828235 0.999582 0.731247 0.243190
H49   H     H_    0.874706 0.087953 0.765941 0.122235
H50   H     H_    0.840587 0.965437 0.670100 0.074631
C71   C     C_3   0.867151 0.956160 0.796763 -0.254037
H51   H     H_    0.850750 0.985375 0.855944 0.218962
H52   H     H_    0.824664 0.867477 0.761758 0.185652
C72   C     C_3   0.984171 0.991202 0.830726 -1.042848
H53   H     H_    0.002059 0.960808 0.772677 0.278767
H54   H     H_    0.009279 0.958314 0.878041 0.278496
H55   H     H_    0.028548 0.079688 0.867751 0.273514
O5    O     O_3   0.537901 0.808348 0.551017 -0.667591
C73   C     C_3   0.600589 0.755254 0.540044 0.193131
H56   H     H_    0.558418 0.674174 0.532408 0.132923
H57   H     H_    0.675731 0.793266 0.601724 0.131303
C74   C     C_3   0.619938 0.743713 0.455535 -0.366956
H58   H     H_    0.544100 0.705520 0.394182 0.218311
H59   H     H_    0.667373 0.823526 0.463320 0.201570
C75   C     C_3   0.679224 0.677603 0.442388 -0.949995
H60   H     H_    0.758255 0.719328 0.500850 0.264295
H61   H     H_    0.688090 0.666551 0.378974 0.285999
H62   H     H_    0.636305 0.597883 0.436990 0.258290
O6    O     O_3   0.195915 0.126262 0.310367 -0.630992
C76   C     C_3   0.236199 0.072109 0.354321 0.185097
H63   H     H_    0.321966 0.104847 0.376080 0.104988
H64   H     H_    0.197216 0.984552 0.308306 0.092363
C77   C     C_3   0.217574 0.089206 0.438810 -0.238560
H65   H     H_    0.256418 0.176066 0.485669 0.206010
H66   H     H_    0.132234 0.058026 0.418379 0.215156
C78   C     C_3   0.260625 0.032039 0.488466 -1.000889
H67   H     H_    0.220036 0.944532 0.443659 0.278104
H68   H     H_    0.247922 0.047468 0.550492 0.275249
H69   H     H_    0.345849 0.061497 0.509200 0.269774
O7    O     O_3   0.341944 0.693784 0.004301 -0.613044
C79   C     C_3   0.440227 0.771019 0.079436 0.209133
H70   H     H_    0.491638 0.803886 0.051237 0.165835
H71   H     H_    0.477848 0.740076 0.123609 0.118889
C80   C     C_3   0.434250 0.867075 0.139755 -0.372856
H72   H     H_    0.370488 0.879260 0.099071 0.266222
H73   H     H_    0.420950 0.851184 0.194415 0.204744
C81   C     C_3   0.536674 0.969737 0.185688 -0.911098
H74   H     H_    0.602193 0.960041 0.227412 0.289029
H75   H     H_    0.529499 0.036743 0.230806 0.259608
H76   H     H_    0.554489 0.990399 0.133814 0.278677
O8    O     O_3   0.741348 0.317797 0.663784 -0.645378
C82   C     C_3   0.670236 0.360337 0.670767 0.167573
H77   H     H_    0.656901 0.391336 0.619708 0.130304
H78   H     H_    0.703862 0.429896 0.738115 0.079995
C83   C     C_3   0.564109 0.274776 0.649288 -0.316026
H79   H     H_    0.531903 0.207531 0.580771 0.212179
H80   H     H_    0.574120 0.243252 0.700041 0.184303
C84   C     C_3   0.486181 0.320234 0.651308 -1.006680
H81   H     H_    0.517886 0.389466 0.718446 0.264263
H82   H     H_    0.412354 0.258184 0.640116 0.282369
H83   H     H_    0.468728 0.345808 0.596869 0.267520
O9    O     O_3   0.327799 0.452215 0.132331 -0.675857
C85   C     C_3   0.330314 0.509339 0.216193 0.180324
H84   H     H_    0.249779 0.490567 0.208493 0.114107
H85   H     H_    0.376002 0.597152 0.242710 0.093294
C86   C     C_3   0.382764 0.476107 0.285338 -0.273261
H86   H     H_    0.353581 0.388371 0.253202 0.212037
H87   H     H_    0.468169 0.512689 0.306814 0.212579
C87   C     C_3   0.361424 0.508846 0.368328 -1.051572
H88   H     H_    0.380413 0.594778 0.397365 0.277163
H89   H     H_    0.409770 0.493947 0.421017 0.277073
H90   H     H_    0.277876 0.460550 0.348869 0.268443
O10   O     O_3   0.211010 0.631377 0.837724 -0.641990
C88   C     C_3   0.227907 0.560037 0.772916 0.179172
H91   H     H_    0.313391 0.595026 0.794292 0.139235
H92   H     H_    0.192479 0.554543 0.704443 0.102066
C89   C     C_3   0.191588 0.446988 0.766340 -0.354305
H93   H     H_    0.227284 0.451412 0.834428 0.196151
H94   H     H_    0.105140 0.406451 0.739360 0.210869
C90   C     C_3   0.222422 0.379072 0.702839 -0.949215
H95   H     H_    0.184799 0.370271 0.633005 0.271671
H96   H     H_    0.196262 0.298513 0.699877 0.275040
H97   H     H_    0.308673 0.416380 0.728097 0.257284

loop_
_geom_bond_atom_site_label_1
_geom_bond_atom_site_label_2
_ccdc_geom_bond_type
N14   Ni4   S    
N9    Ni2   S    
C5    N16   A    
C42   H20   S    
O3    C67   S    
C26   H12   S    
C20   H7    S    
C3    C23   A    
C19   C20   A    
C18   C26   S    
C69   H48   S    
C86   H86   S    
C2    C12   A    
C66   H39   S    
C67   C68   S    
C79   H70   S    
C63   H34   S    
C39   C41   A    
C80   H72   S    
C81   H74   S    
C90   H97   S    
C86   H87   S    
C13   N8    A    
C18   C24   A    
C73   H56   S    
C69   H47   S    
C75   H60   S    
C46   I3    S    
C11   C14   A    
C89   H94   S    
C80   C81   S    
C77   H65   S    
C49   C54   A    
C29   C33   A    
N13   Ni1   S    
C49   C57   S    
C63   H32   S    
N6    Ni1   S    
C18   C19   A    
C72   H55   S    
C82   H78   S    
C61   H28   S    
C70   H50   S    
C14   C39   S    
C4    C19   S    
C73   H57   S    
C15   C22   S    
C35   H13   S    
C74   H58   S    
C3    C38   S    
C81   H75   S    
C85   H84   S    
C87   H88   S    
C29   O2    S    
C65   C66   S    
C72   H53   S    
C74   H59   S    
C25   H11   S    
C39   C42   A    
C43   C48   A    
C51   H21   S    
C62   C63   S    
C1    N1    A    
C58   O10   S    
C6    C15   A    
C59   C60   A    
C78   H67   S    
C21   C22   A    
C4    C56   A    
C9    N5    A    
N1    Ni1   S    
C44   C46   A    
C31   H17   S    
C76   C77   S    
C75   H61   S    
C13   H6    S    
C78   H68   S    
C69   H46   S    
N12   Ni2   S    
C68   C69   S    
C4    C34   A    
N7    Ni4   S    
C74   C75   S    
O2    C64   S    
C23   O3    S    
C51   C52   A    
C83   C84   S    
N4    Ni4   S    
C86   C87   S    
C71   C72   S    
C24   C25   S    
N3    Ni3   S    
C76   H64   S    
C45   N12   A    
C80   H73   S    
C76   H63   S    
C58   N14   A    
C89   H93   S    
C67   H43   S    
C10   N6    A    
C27   C35   A    
C90   H95   S    
C53   C54   A    
C7    N3    A    
C47   O4    S    
C3    C45   A    
N11   Ni4   S    
C66   H40   S    
O8    C82   S    
C83   H80   S    
N2    N8    A    
C82   C83   S    
C43   C44   A    
C28   C31   A    
C88   H91   S    
C29   C30   A    
N8    Ni3   S    
C75   H62   S    
C30   H16   S    
N1    N15   A    
C47   C48   A    
C50   C51   A    
C38   C47   A    
C57   H24   S    
C8    N4    A    
C32   C37   A    
C71   H51   S    
C52   H22   S    
C68   H45   S    
C61   C62   S    
C5    C14   A    
C36   H14   S    
O5    C73   S    
N10   Ni3   S    
C11   N7    A    
C9    C17   A    
C40   C41   A    
C23   N10   A    
C48   O5    S    
N7    N16   A    
O7    C79   S    
N11   N13   A    
C55   C57   S    
C21   H8    S    
O6    C76   S    
C49   C50   A    
C22   C24   A    
C1    C60   A    
C25   H9    S    
C42   C43   A    
C56   N13   A    
C55   H23   S    
C66   H41   S    
C70   H49   S    
N4    N5    A    
C70   C71   S    
C52   C53   A    
N3    N6    A    
C62   H30   S    
C78   H69   S    
C12   H10   S    
C54   C55   S    
C7    C16   A    
N10   N12   A    
C88   H92   S    
C9    H3    S    
C59   N15   A    
C31   C32   A    
C10   H4    S    
C34   N11   A    
C71   H52   S    
O4    C70   S    
C89   C90   S    
C1    H1    S    
C41   H19   S    
C79   H71   S    
C2    C58   A    
C45   O8    S    
C67   H42   S    
C73   C74   S    
C27   C36   A    
C90   H96   S    
C6    N2    A    
C68   H44   S    
C8    C17   A    
C81   H76   S    
C50   C60   S    
C32   C33   A    
C56   O9    S    
C64   C65   S    
C13   C15   A    
C25   C26   S    
C59   H26   S    
C10   C16   A    
C8    O1    S    
C83   H79   S    
C87   H90   S    
C6    H2    S    
C65   H37   S    
C77   H66   S    
C16   C27   S    
C85   C86   S    
C28   C30   A    
C33   C35   A    
C63   H33   S    
N15   Ni3   S    
C40   H18   S    
C72   H54   S    
C37   H15   S    
C82   H77   S    
C61   H29   S    
C38   C46   A    
C79   C80   S    
O9    C85   S    
C84   H81   S    
C5    H27   S    
C84   H83   S    
O1    C61   S    
N5    Ni2   S    
C40   C44   A    
C88   C89   S    
C20   C21   A    
C36   C37   A    
O10   C88   S    
N2    Ni2   S    
N16   Ni1   S    
C65   H38   S    
C26   I2    S    
C7    I1    S    
C12   N9    A    
C34   O7    S    
C2    C28   S    
C55   O6    S    
C84   H82   S    
C64   H35   S    
N9    N14   A    
C87   H89   S    
C64   H36   S    
C57   H25   S    
C85   H85   S    
C11   H5    S    
C62   H31   S    
C77   C78   S    
