data_mof_unit_5962.cif
_audit_creation_date              2012-12-11T15:32:37-0500
_audit_creation_method            fapswitch 2.2
_symmetry_space_group_name_H-M    P1
_symmetry_Int_Tables_number       1
_space_group_crystal_system       triclinic
_cell_length_a                    6.94945
_cell_length_b                    20.461888
_cell_length_c                    24.339611
_cell_angle_alpha                 89.756755
_cell_angle_beta                  90.874129
_cell_angle_gamma                 89.901344
_cell_volume                      3460.625621

loop_
_atom_site_label
_atom_site_type_symbol
_atom_type_description
_atom_site_fract_x
_atom_site_fract_y
_atom_site_fract_z
_atom_type_partial_charge
O1    O     O_R   0.507320 0.423560 0.460500 -0.537885
O2    O     O_R   0.170760 0.556250 0.437010 -0.530421
O3    O     O_R   0.004030 0.576440 0.539500 -0.534173
C1    C     C_R   0.338757 0.576440 0.421067 0.727086
O4    O     O_R   0.177370 0.422820 0.454110 -0.538231
O5    O     O_R   0.010680 0.442050 0.556720 -0.537225
C2    C     C_R   0.344732 0.398660 0.443301 0.715129
O6    O     O_R   0.500680 0.557950 0.443280 -0.534308
O7    O     O_3   0.340380 0.506470 0.533650 -0.370140
V1    V     V_3+5 0.064130 0.498800 0.493760 1.438955
O8    O     O_R   0.681160 0.443750 0.562990 -0.539322
C3    C     C_R   0.850860 0.423637 0.578823 0.716641
O9    O     O_R   0.674560 0.577180 0.545890 -0.545041
C4    C     C_R   0.843715 0.601554 0.555865 0.752961
V2    V     V_3+5 0.564560 0.501200 0.506240 1.420479
O10   O     O_3   0.838180 0.493530 0.466350 -0.364984
C5    C     C_R   0.968365 0.838177 0.911452 -0.042727
C6    C     C_R   0.854989 0.663081 0.586964 -0.078631
C7    C     C_R   0.945887 0.720470 0.909128 -0.159002
C8    C     C_R   0.963316 0.778188 0.938788 -0.166992
C9    C     C_R   0.956188 0.840286 0.853797 -0.213583
C10   C     C_R   0.938067 0.781987 0.822375 0.086438
C11   C     C_R   0.932514 0.721793 0.851519 0.139599
C12   C     C_R   0.924203 0.781197 0.763413 0.055239
C13   C     C_R   0.902764 0.720236 0.734919 0.071739
C14   C     C_R   0.897650 0.662111 0.766328 -0.188079
C15   C     C_R   0.912784 0.663081 0.823227 -0.205144
C16   C     C_R   0.931748 0.839240 0.731986 -0.187531
C17   C     C_R   0.918737 0.838190 0.675055 -0.186203
C18   C     C_R   0.897323 0.779510 0.646774 0.103867
C19   C     C_R   0.888113 0.719490 0.675954 0.093371
C20   C     C_R   0.886124 0.780826 0.589160 -0.232870
C21   C     C_R   0.864391 0.723182 0.559072 0.280292
C22   C     C_R   0.866076 0.661347 0.644640 -0.286778
H1    H     H_    0.908364 0.617063 0.845429 0.121065
H2    H     H_    0.859021 0.613715 0.663478 0.106382
H3    H     H_    0.925949 0.884139 0.652824 0.119870
H4    H     H_    0.941716 0.674509 0.931383 0.115211
H5    H     H_    0.971803 0.776111 0.983251 0.113846
H6    H     H_    0.959176 0.888083 0.835136 0.091283
H7    H     H_    0.882567 0.614472 0.748241 0.122069
H8    H     H_    0.948900 0.886803 0.750083 0.120734
H9    H     H_    0.893913 0.826999 0.567270 0.114832
C23   C     C_3   0.868816 0.309331 0.769813 -0.189355
C24   C     C_3   0.049756 0.268469 0.783024 0.352462
H10   H     H_    0.835821 0.358409 0.786537 0.112661
H11   H     H_    0.216912 0.255271 0.699759 0.107097
C25   C     C_1   0.960885 0.121582 0.875203 -0.189808
C26   C     C_1   0.863324 0.378068 0.624552 -0.197310
C27   C     C_3   0.745231 0.246640 0.777004 -0.193661
C28   C     C_3   0.928940 0.206901 0.790775 0.108247
C29   C     C_3   0.769782 0.230437 0.715180 -0.122833
C30   C     C_3   0.894497 0.292220 0.708569 0.127162
C31   C     C_3   0.953885 0.190197 0.729499 -0.180405
C32   C     C_3   0.078863 0.252512 0.722013 -0.144445
C33   C     C_1   0.947737 0.159880 0.837059 -0.046175
C34   C     C_1   0.876219 0.339511 0.662513 -0.054702
H12   H     H_    0.987857 0.141050 0.713086 0.119059
H13   H     H_    0.652422 0.214982 0.686665 0.113028
H14   H     H_    0.608204 0.243256 0.799636 0.162076
C35   C     C_3   0.585791 0.743355 0.229957 0.676524
C36   C     C_3   0.432770 0.688881 0.231481 -0.214559
H15   H     H_    0.451607 0.638377 0.215950 0.133178
H16   H     H_    0.169956 0.729799 0.178011 0.184542
C37   C     C_1   0.348656 0.622134 0.375181 -0.189902
C38   C     C_1   0.475578 0.878167 0.125111 -0.182318
C39   C     C_3   0.544643 0.761606 0.290073 -0.210984
C40   C     C_3   0.388743 0.707961 0.291274 0.073953
C41   C     C_3   0.390991 0.811516 0.269197 -0.236805
C42   C     C_3   0.434978 0.792701 0.209339 0.052208
C43   C     C_3   0.234931 0.757302 0.271115 -0.057140
C44   C     C_3   0.279423 0.738960 0.210751 -0.165800
C45   C     C_1   0.364223 0.660688 0.337250 -0.019624
C46   C     C_1   0.459972 0.839791 0.163200 0.015520
H17   H     H_    0.088820 0.762921 0.288326 0.153056
H18   H     H_    0.373442 0.862101 0.284660 0.136164
H19   H     H_    0.655434 0.770622 0.322490 0.120190
C47   C     C_R   0.476911 0.162716 0.088697 -0.076896
C48   C     C_R   0.339733 0.337637 0.410666 -0.135056
C49   C     C_R   0.574506 0.275762 0.096377 -0.153378
C50   C     C_R   0.561705 0.218311 0.066182 -0.166091
C51   C     C_R   0.405593 0.165257 0.142518 -0.179178
C52   C     C_R   0.409482 0.224409 0.173533 0.079818
C53   C     C_R   0.501682 0.279021 0.149782 0.083092
C54   C     C_R   0.333554 0.230450 0.228030 -0.034496
C55   C     C_R   0.380246 0.286985 0.260743 -0.015825
C56   C     C_R   0.454696 0.342787 0.232782 0.292616
C57   C     C_R   0.518030 0.337266 0.178785 -0.266684
C58   C     C_R   0.203060 0.184205 0.249976 0.277888
C59   C     C_R   0.158621 0.185611 0.305568 -0.254211
C60   C     C_R   0.229143 0.234198 0.340804 0.019381
C61   C     C_R   0.339810 0.286427 0.318917 0.052679
C62   C     C_R   0.178337 0.233127 0.397104 0.320756
C63   C     C_R   0.230190 0.286028 0.430654 -0.185595
C64   C     C_R   0.404787 0.335612 0.356359 -0.188467
H20   H     H_    0.577456 0.379970 0.158697 0.125837
H21   H     H_    0.502308 0.373763 0.344628 0.170601
H22   H     H_    0.183449 0.288260 0.472811 0.116675
H23   H     H_    0.058959 0.149234 0.320462 0.149740
H24   H     H_    0.643223 0.317841 0.077965 0.114240
H25   H     H_    0.620664 0.216939 0.025242 0.111359
H26   H     H_    0.359632 0.119622 0.160249 0.148372
O11   O     O_R   0.323550 0.942140 0.056770 -0.534518
O12   O     O_R   0.647080 0.077200 0.045890 -0.542225
O13   O     O_R   0.813610 0.057920 0.943260 -0.535038
C65   C     C_R   0.479289 0.101166 0.056947 0.691022
O14   O     O_R   0.653470 0.943760 0.063000 -0.534335
O15   O     O_R   0.820050 0.923540 0.960490 -0.535466
C66   C     C_R   0.485462 0.923676 0.079038 0.721158
O16   O     O_R   0.317110 0.076520 0.039540 -0.532383
O17   O     O_3   0.483830 0.993580 0.966380 -0.365958
V3    V     V_3+5 0.760140 0.001190 0.006240 1.429486
O18   O     O_R   0.149510 0.922740 0.954070 -0.538230
C67   C     C_R   0.980145 0.898743 0.943645 0.697396
O19   O     O_R   0.143120 0.056170 0.936970 -0.537131
C68   C     C_R   0.973422 0.076255 0.921105 0.722063
V4    V     V_3+5 0.259690 0.998700 0.993700 1.434280
O20   O     O_3   0.986130 0.006420 0.033620 -0.366240
N1    N     N_2   0.201670 0.288197 0.820695 -0.528493
H27   H     H_    0.158106 0.289388 0.860976 0.253879
C69   C     C_3   0.305515 0.346156 0.804529 -0.585123
H28   H     H_    0.424849 0.355212 0.834367 0.198610
H29   H     H_    0.208012 0.389255 0.803913 0.193804
H30   H     H_    0.368643 0.339567 0.763265 0.209687
F1    F     F_    0.767687 0.736265 0.208542 -0.712371
N2    N     N_2   0.857231 0.725733 0.500617 -0.532389
H31   H     H_    0.944147 0.761437 0.484198 0.251245
C70   C     C_3   0.664488 0.728075 0.477371 -0.547161
H32   H     H_    0.592235 0.774411 0.488960 0.186190
H33   H     H_    0.577926 0.686084 0.491942 0.209984
H34   H     H_    0.671553 0.725620 0.431875 0.196859
N3    N     N_2   0.446046 0.406789 0.255371 -0.542003
H35   H     H_    0.549746 0.438455 0.241218 0.255389
C71   C     C_3   0.255943 0.435808 0.254374 -0.550266
H36   H     H_    0.260699 0.483736 0.275593 0.196469
H37   H     H_    0.151805 0.404014 0.275990 0.211822
H38   H     H_    0.205963 0.443593 0.211244 0.197280
N4    N     N_2   0.094877 0.141133 0.215585 -0.542813
H39   H     H_    0.052301 0.098464 0.234568 0.249218
C72   C     C_3   0.938788 0.172248 0.185253 -0.506205
H40   H     H_    0.868812 0.136059 0.157608 0.198779
H41   H     H_    0.829694 0.191332 0.214044 0.194208
H42   H     H_    0.993347 0.213028 0.159593 0.211744
N5    N     N_2   0.071935 0.179057 0.418622 -0.528789
H43   H     H_    0.136876 0.134128 0.413784 0.247947
C73   C     C_3   0.965774 0.186069 0.468990 -0.559777
H44   H     H_    0.869937 0.143207 0.474208 0.198276
H45   H     H_    0.874425 0.230681 0.467197 0.207857
H46   H     H_    0.066397 0.188074 0.504840 0.185966

loop_
_geom_bond_atom_site_label_1
_geom_bond_atom_site_label_2
_ccdc_geom_bond_type
C35   C42   S    
C13   C19   A    
C43   H17   S    
C56   C57   A    
C57   H20   S    
C62   C63   A    
O14   V3    S    
C4    C6    S    
O13   C68   A    
O2    C1    A    
C7    C8    A    
C39   H19   S    
C72   H42   S    
C1    O6    A    
C70   H32   S    
C71   H38   S    
O12   C65   A    
C3    C26   S    
C37   C45   T    
V1    O10   S    
C50   H25   S    
C54   C55   A    
C23   C24   S    
C14   C15   A    
N2    H31   S    
C2    C48   S    
H11   C32   S    
C16   C17   A    
C29   H13   S    
C72   H41   S    
C73   H44   S    
O5    C3    A    
C1    C37   S    
O17   V4    S    
C63   H22   S    
O19   C68   A    
C38   C46   T    
C5    C8    A    
C26   C34   T    
C41   H18   S    
C28   C33   S    
O15   C67   A    
C41   C43   S    
C35   C39   S    
C69   H30   S    
O8    V2    S    
C23   C30   S    
O17   V3    S    
C23   H10   S    
N3    H35   S    
O19   V4    S    
C42   C46   S    
C27   C29   S    
O1    V2    S    
C11   C15   A    
C18   C20   A    
O7    V1    S    
C35   C36   S    
C49   C53   A    
C25   C68   S    
C24   N1    S    
C30   C32   S    
O9    C4    A    
C49   H24   S    
O14   C66   A    
O11   V4    S    
O16   V4    S    
C29   C31   S    
C5    C67   S    
C73   H45   S    
N1    C69   S    
C39   C40   S    
C53   C57   A    
C72   H40   S    
C48   C63   A    
N5    C73   S    
C60   C61   A    
O12   V3    S    
C8    H5    S    
C54   C58   A    
C55   C56   A    
C49   C50   A    
C71   H37   S    
C15   H1    S    
C13   C14   A    
C61   C64   A    
C5    C9    A    
O15   V3    S    
C39   C41   S    
C56   N3    S    
C7    C11   A    
C48   C64   A    
C17   C18   A    
C7    H4    S    
C60   C62   A    
C73   H46   S    
C47   C51   A    
C52   C53   A    
N1    H27   S    
C36   H15   S    
C27   C28   S    
C51   H26   S    
C19   C22   A    
C36   C44   S    
C12   C13   A    
C6    C22   A    
C69   H28   S    
C62   N5    S    
N4    C72   S    
O18   V4    S    
N3    C71   S    
C52   C54   A    
O13   V3    S    
C58   N4    S    
O6    V2    S    
O9    V2    S    
C10   C12   A    
O2    V1    S    
C70   H34   S    
C59   H23   S    
C29   C30   S    
O4    C2    A    
O18   C67   A    
C31   H12   S    
C23   C27   S    
C25   C33   T    
C31   C32   S    
N2    C70   S    
O1    C2    A    
C12   C16   A    
N5    H43   S    
C70   H33   S    
O5    V1    S    
C35   F1    S    
O8    C3    A    
C64   H21   S    
C71   H36   S    
O3    C4    A    
C36   C40   S    
O11   C66   A    
C28   C31   S    
C27   H14   S    
C20   C21   A    
C40   C45   S    
O4    V1    S    
O3    V1    S    
C55   C61   A    
V4    O20   S    
V3    O20   S    
C47   C50   A    
C59   C60   A    
C18   C19   A    
C9    H6    S    
C40   C43   S    
C16   H8    S    
C21   N2    S    
C20   H9    S    
C30   C34   S    
C47   C65   S    
C22   H2    S    
H16   C44   S    
C38   C66   S    
O7    V2    S    
C41   C42   S    
C6    C21   A    
C69   H29   S    
N4    H39   S    
C43   C44   S    
C24   C32   S    
C65   O16   A    
C51   C52   A    
C17   H3    S    
C24   C28   S    
C10   C11   A    
C42   C44   S    
C58   C59   A    
C9    C10   A    
V2    O10   S    
C14   H7    S    
