data_mof_unit_59991.cif
_audit_creation_date              2012-12-10T22:11:12-0500
_audit_creation_method            fapswitch 2.2
_symmetry_space_group_name_H-M    P1
_symmetry_Int_Tables_number       1
_space_group_crystal_system       triclinic
_cell_length_a                    12.106231
_cell_length_b                    12.302525
_cell_length_c                    23.117702
_cell_angle_alpha                 91.178322
_cell_angle_beta                  90.52974
_cell_angle_gamma                 90.412233
_cell_volume                      3442.11689346

loop_
_atom_site_label
_atom_site_type_symbol
_atom_type_description
_atom_site_fract_x
_atom_site_fract_y
_atom_site_fract_z
_atom_type_partial_charge
C1    C     C_R   0.656875 0.998476 0.579410 0.943435
C2    C     C_R   0.343133 0.001522 0.420585 0.943221
C3    C     C_R   0.891157 0.809460 0.131520 0.193879
C4    C     C_R   0.108799 0.190454 0.868531 0.193869
C5    C     C_R   0.087669 0.851671 0.194174 -0.202027
C6    C     C_R   0.912374 0.148449 0.805763 -0.202025
C7    C     C_R   0.085046 0.771149 0.151684 -0.241064
C8    C     C_R   0.914997 0.228969 0.848255 -0.241128
C9    C     C_R   0.899440 0.161479 0.191742 -0.136069
C10   C     C_R   0.100517 0.838399 0.808192 -0.136066
C11   C     C_R   0.903295 0.242662 0.151526 -0.266744
C12   C     C_R   0.096660 0.757216 0.848407 -0.266772
C13   C     C_R   0.110138 0.918050 0.321703 -0.352855
C14   C     C_R   0.889959 0.081912 0.678237 -0.353198
C15   C     C_R   0.192528 0.911033 0.363379 0.536348
C16   C     C_R   0.807597 0.088914 0.636535 0.536459
C17   C     C_R   0.871106 0.107649 0.321936 0.555394
C18   C     C_R   0.128792 0.892381 0.678013 0.555415
C19   C     C_R   0.793357 0.101250 0.365978 -0.302548
C20   C     C_R   0.206544 0.898782 0.633972 -0.302538
C21   C     C_3   0.994592 0.010823 0.247830 -0.038019
C22   C     C_3   0.005406 0.989184 0.752170 -0.038000
C23   C     C_R   0.654787 0.001588 0.420888 0.899479
C24   C     C_R   0.345213 0.998412 0.579111 0.899483
C25   C     C_R   0.094714 0.012690 0.289260 -0.038639
C26   C     C_R   0.905278 0.987325 0.710741 -0.038387
C27   C     C_R   0.258943 0.002499 0.375423 -0.202669
C28   C     C_R   0.741077 0.997498 0.624564 -0.202482
C29   C     C_R   0.895787 0.012287 0.288970 0.013951
C30   C     C_R   0.104215 0.987711 0.711030 0.013976
C31   C     C_R   0.737794 0.003920 0.376385 -0.080950
C32   C     C_R   0.262207 0.996079 0.623614 -0.080920
C33   C     C_R   0.994827 0.102330 0.204796 0.222694
C34   C     C_R   0.005173 0.897667 0.795202 0.222513
C35   C     C_R   0.000588 0.262697 0.121089 -0.053072
C36   C     C_R   0.999420 0.737298 0.878911 -0.053002
C37   C     C_R   0.992136 0.911120 0.207119 0.036220
C38   C     C_R   0.007869 0.088894 0.792876 0.036194
C39   C     C_R   0.987949 0.748923 0.119893 -0.047204
C40   C     C_R   0.012049 0.251087 0.880104 -0.047165
C41   C     C_R   0.991939 0.662716 0.075462 0.871922
C42   C     C_R   0.008060 0.337284 0.924539 0.871929
C43   C     C_R   0.999680 0.349936 0.079597 0.885220
C44   C     C_R   0.000322 0.650063 0.920404 0.885204
C45   C     C_R   0.160626 0.106760 0.302958 0.614140
C46   C     C_R   0.839268 0.893297 0.697097 0.614351
C47   C     C_R   0.245517 0.097270 0.344100 -0.430652
C48   C     C_R   0.754385 0.902789 0.655951 -0.430743
C49   C     C_R   0.840689 0.913951 0.301943 -0.257851
C50   C     C_R   0.159425 0.086015 0.698111 -0.258012
C51   C     C_R   0.761437 0.910461 0.344288 -0.203155
C52   C     C_R   0.238671 0.089503 0.655763 -0.203128
C53   C     C_R   0.088906 0.115645 0.170394 -0.070940
C54   C     C_R   0.911153 0.884445 0.829661 -0.070884
C55   C     C_R   0.094120 0.195964 0.129310 0.182896
C56   C     C_R   0.905952 0.804141 0.870755 0.182900
C57   C     C_R   0.895506 0.890490 0.174285 -0.168109
C58   C     C_R   0.104458 0.109438 0.825759 -0.168135
H1    H     H_    0.301622 0.164699 0.352328 0.185139
H2    H     H_    0.698201 0.835408 0.647767 0.185113
H3    H     H_    0.861163 0.837281 0.281243 0.168503
H4    H     H_    0.139037 0.162674 0.718848 0.168510
H5    H     H_    0.160123 0.064516 0.177298 0.120009
H6    H     H_    0.839976 0.935649 0.822801 0.120081
H7    H     H_    0.823035 0.939673 0.182019 0.136051
H8    H     H_    0.176896 0.060187 0.818060 0.136092
H9    H     H_    0.166192 0.869378 0.215056 0.142867
H10   H     H_    0.833873 0.130825 0.784840 0.142950
H11   H     H_    0.821316 0.145501 0.212266 0.122038
H12   H     H_    0.178616 0.854290 0.787625 0.122100
H13   H     H_    0.056193 0.848340 0.314989 0.185751
H14   H     H_    0.944015 0.151548 0.684908 0.185607
H15   H     H_    0.720244 0.833955 0.352590 0.165423
H16   H     H_    0.279947 0.165983 0.647500 0.165427
H17   H     H_    0.160444 0.726805 0.143403 0.166940
H18   H     H_    0.839633 0.273397 0.856495 0.166930
H19   H     H_    0.829392 0.289802 0.144248 0.166782
H20   H     H_    0.170520 0.709984 0.855637 0.166750
H21   H     H_    0.778182 0.171913 0.393293 0.174993
H22   H     H_    0.221644 0.828155 0.606618 0.174973
O1    O     O_R   0.621380 0.090460 0.561410 -0.581637
O2    O     O_R   0.378620 0.909540 0.438590 -0.581860
O3    O     O_R   0.617150 0.909540 0.438590 -0.636812
O4    O     O_R   0.382850 0.090460 0.561410 -0.636734
O5    O     O_R   0.619720 0.093230 0.440890 -0.631158
O6    O     O_R   0.380280 0.906770 0.559110 -0.631157
O7    O     O_R   0.618800 0.906770 0.559110 -0.640105
O8    O     O_R   0.381200 0.093230 0.440890 -0.640063
O9    O     O_R   0.087590 0.627480 0.058790 -0.628908
O10   O     O_R   0.912410 0.372520 0.941210 -0.628898
O11   O     O_R   0.905660 0.383870 0.059980 -0.630019
O12   O     O_R   0.094340 0.616130 0.940020 -0.630008
O13   O     O_R   0.092570 0.390420 0.063230 -0.621776
O14   O     O_R   0.907430 0.609580 0.936770 -0.621765
O15   O     O_R   0.900680 0.620930 0.055550 -0.622594
O16   O     O_R   0.099320 0.379070 0.944450 -0.622596
Zn1   Zn    Zn3+2 0.501730 0.123520 0.501540 0.948620
Zn2   Zn    Zn3+2 0.498270 0.876480 0.498460 0.948476
Zn3   Zn    Zn3+2 0.125690 0.504390 0.002180 0.931248
Zn4   Zn    Zn3+2 0.874310 0.495610 0.997820 0.931251
O17   O     O_3   0.932208 0.202211 0.314058 -0.586805
C59   C     C_3   0.865506 0.296113 0.315060 -0.350406
H23   H     H_    0.857396 0.328134 0.360060 0.170257
H24   H     H_    0.782631 0.281854 0.294803 0.145138
H25   H     H_    0.907147 0.359895 0.289783 0.198065
O18   O     O_3   0.067588 0.797866 0.685848 -0.586915
C60   C     C_3   0.134186 0.703893 0.684784 -0.350463
H26   H     H_    0.217084 0.718024 0.705038 0.145178
H27   H     H_    0.142242 0.671952 0.639765 0.170289
H28   H     H_    0.092488 0.640102 0.710029 0.198010
C61   C     C_3   0.198805 0.205405 0.094737 -0.877937
H29   H     H_    0.257110 0.138288 0.103574 0.220048
H30   H     H_    0.178674 0.201332 0.047904 0.238071
H31   H     H_    0.242352 0.282749 0.106029 0.260397
C62   C     C_3   0.801369 0.794843 0.905421 -0.878028
H32   H     H_    0.743137 0.862049 0.896641 0.220093
H33   H     H_    0.757674 0.717563 0.894164 0.260422
H34   H     H_    0.821662 0.798876 0.952237 0.238029
C63   C     C_3   0.783578 0.792957 0.098860 -0.893743
H35   H     H_    0.720563 0.853724 0.111855 0.222312
H36   H     H_    0.797176 0.801841 0.051888 0.244305
H37   H     H_    0.748544 0.711461 0.107779 0.254709
C64   C     C_3   0.216313 0.206828 0.901267 -0.893743
H38   H     H_    0.279280 0.145977 0.888320 0.222345
H39   H     H_    0.251478 0.288279 0.892370 0.254729
H40   H     H_    0.202570 0.197969 0.948227 0.244238
O19   O     O_3   0.200740 0.818518 0.396221 -0.578138
C65   C     C_3   0.243893 0.733333 0.361621 -0.303283
H41   H     H_    0.323289 0.757306 0.341297 0.151663
H42   H     H_    0.183374 0.705391 0.327941 0.147037
H43   H     H_    0.261130 0.663272 0.389683 0.185249
O20   O     O_3   0.799495 0.181293 0.603571 -0.578138
C66   C     C_3   0.757402 0.267009 0.638175 -0.303146
H44   H     H_    0.819018 0.295488 0.671174 0.147428
H45   H     H_    0.678697 0.243424 0.659328 0.150922
H46   H     H_    0.739200 0.336594 0.609944 0.185295
O21   O     O_3   0.143690 0.203903 0.274139 -0.591415
C67   C     C_3   0.164174 0.297951 0.308842 -0.231670
H47   H     H_    0.253404 0.319451 0.308651 0.130670
H48   H     H_    0.133530 0.289332 0.353810 0.180645
H49   H     H_    0.119383 0.366864 0.289526 0.180941
O22   O     O_3   0.856112 0.796189 0.725961 -0.591499
C68   C     C_3   0.835577 0.702105 0.691294 -0.231962
H50   H     H_    0.866238 0.710639 0.646323 0.180728
H51   H     H_    0.746334 0.680663 0.691485 0.130763
H52   H     H_    0.880318 0.633192 0.710642 0.180837

loop_
_geom_bond_atom_site_label_1
_geom_bond_atom_site_label_2
_ccdc_geom_bond_type
C16   C28   A    
C68   H52   S    
C41   O9    A    
C1    O7    A    
O17   C59   S    
C5    C37   A    
C17   C29   A    
C61   H29   S    
C5    H9    S    
C19   C31   A    
C65   H41   S    
C24   C32   S    
C64   H38   S    
C39   C41   S    
C29   C49   A    
C23   O3    A    
O9    Zn3   S    
C2    O2    A    
C42   O16   A    
O4    Zn1   S    
C60   H28   S    
C9    H11   S    
C52   H16   S    
C64   H39   S    
C21   C33   S    
O18   C60   S    
C1    O1    A    
C68   H50   S    
C22   C38   S    
O16   Zn3   S    
C8    H18   S    
C59   H25   S    
C45   C47   A    
C17   O17   S    
C32   C52   A    
C11   H19   S    
C17   C19   A    
C38   C58   A    
C58   H8    S    
C4    C40   A    
O20   C66   S    
C62   H33   S    
O3    Zn2   S    
C12   H20   S    
C1    C28   S    
C50   C52   A    
C60   H26   S    
C6    C38   A    
C2    O8    A    
C2    C27   S    
C18   C30   A    
O11   Zn4   S    
C12   C36   A    
C35   C43   S    
O13   Zn3   S    
O8    Zn1   S    
C44   O12   A    
O7    Zn2   S    
C6    H10   S    
C30   C50   A    
C3    C39   A    
C15   O19   S    
C9    C33   A    
C60   H27   S    
C13   C25   A    
O6    Zn2   S    
C10   C12   A    
O10   Zn4   S    
C48   H2    S    
C46   C48   A    
C53   C55   A    
C33   C53   A    
C22   C34   S    
C54   C56   A    
C49   H3    S    
C20   H22   S    
C35   C55   A    
C10   C34   A    
C44   O14   A    
C46   O22   S    
C57   H7    S    
C5    C7    A    
O15   Zn4   S    
C64   H40   S    
C7    H17   S    
C13   H13   S    
C49   C51   A    
C21   C29   S    
C43   O11   A    
C4    C64   S    
C42   O10   A    
C23   C31   S    
C19   H21   S    
C18   O18   S    
C36   C56   A    
C66   H46   S    
C15   C27   A    
O14   Zn4   S    
C62   H34   S    
C45   O21   S    
C61   H30   S    
C14   C26   A    
C59   H24   S    
C9    C11   A    
C63   H36   S    
C3    C63   S    
C10   H12   S    
C34   C54   A    
C13   C15   A    
C23   O5    A    
C66   H44   S    
C50   H4    S    
O2    Zn2   S    
C14   C16   A    
C36   C44   S    
O19   C65   S    
C65   H43   S    
C25   C45   A    
C20   C32   A    
C63   H37   S    
C27   C47   A    
C68   H51   S    
C21   C25   S    
C28   C48   A    
C22   C30   S    
C55   C61   S    
C14   H14   S    
C51   H15   S    
C31   C51   A    
C67   H49   S    
C65   H42   S    
C6    C8    A    
C63   H35   S    
C67   H48   S    
O21   C67   S    
C11   C35   A    
C24   O4    A    
C53   H5    S    
C41   O15   A    
O1    Zn1   S    
C40   C42   S    
C43   O13   A    
C56   C62   S    
C3    C57   A    
C61   H31   S    
C18   C20   A    
C59   H23   S    
C16   O20   S    
O5    Zn1   S    
C67   H47   S    
C26   C46   A    
C47   H1    S    
C21   C37   S    
C54   H6    S    
C22   C26   S    
C4    C58   A    
C66   H45   S    
C7    C39   A    
O22   C68   S    
C8    C40   A    
C24   O6    A    
C37   C57   A    
C62   H32   S    
O12   Zn3   S    
