data_mof_unit_16321.cif
_audit_creation_date              2013-03-05T15:58:56-0500
_audit_creation_method            fapswitch 2.2
_symmetry_space_group_name_H-M    P1
_symmetry_Int_Tables_number       1
_space_group_crystal_system       triclinic
_cell_length_a                    10.63607
_cell_length_b                    12.593381
_cell_length_c                    13.117579
_cell_angle_alpha                 82.335578
_cell_angle_beta                  90.379685
_cell_angle_gamma                 102.380093
_cell_volume                      1700.39586595

loop_
_atom_site_label
_atom_site_type_symbol
_atom_site_description
_atom_site_fract_x
_atom_site_fract_y
_atom_site_fract_z
_atom_type_partial_charge
O1    O     O_R   0.468120 0.366740 0.627160 -0.620790
O2    O     O_R   0.510770 0.544830 0.662520 -0.614216
C1    C     C_R   0.480197 0.438791 0.691204 0.846247
O3    O     O_R   0.663880 0.410950 0.482330 -0.576064
O4    O     O_R   0.706530 0.589040 0.517700 -0.630303
C2    C     C_R   0.741997 0.500640 0.499675 0.845156
Zn1   Zn    Zn3+2 0.471520 0.381090 0.476390 0.974400
Zn2   Zn    Zn3+2 0.528480 0.618910 0.523610 0.925947
O5    O     O_R   0.489230 0.455170 0.337480 -0.597621
O6    O     O_R   0.531880 0.633260 0.372840 -0.634916
O7    O     O_R   0.293470 0.410960 0.482300 -0.624224
O8    O     O_R   0.336120 0.589050 0.517670 -0.652735
C3    C     C_R   0.512903 0.561107 0.308717 0.906751
C4    C     C_R   0.258125 0.499619 0.500567 0.825630
C5    C     C_3   0.904707 0.406471 0.579997 -0.374669
H1    H     H_    0.845850 0.325579 0.566576 0.216478
H2    H     H_    0.876923 0.419660 0.658292 0.156010
C6    C     C_3   0.048064 0.403550 0.577365 -0.377574
H3    H     H_    0.087871 0.408769 0.655714 0.154745
H4    H     H_    0.059017 0.323910 0.554570 0.206709
H5    H     H_    0.087899 0.411767 0.365912 0.214132
C7    C     C_3   0.926254 0.490667 0.388817 0.189466
C8    C     C_3   0.956528 0.610640 0.530630 -0.458689
C9    C     C_3   0.878885 0.501005 0.499274 0.049075
H6    H     H_    0.940629 0.681630 0.475503 0.192197
H7    H     H_    0.924939 0.622258 0.608447 0.197383
C10   C     C_3   0.121716 0.500351 0.500117 0.118941
C11   C     C_3   0.070736 0.488799 0.390549 -0.450937
C12   C     C_3   0.099298 0.610011 0.531605 -0.388301
H8    H     H_    0.136436 0.620554 0.610065 0.188105
H9    H     H_    0.151418 0.681181 0.477238 0.189650
H10   H     H_    0.914997 0.565677 0.337031 0.090476
H11   H     H_    0.124602 0.557722 0.334692 0.139686
C13   C     C_R   0.415913 0.708028 0.063005 0.327484
H12   H     H_    0.445571 0.748208 0.217156 0.186242
H13   H     H_    0.316532 0.698190 0.871630 0.196409
C14   C     C_R   0.501944 0.597086 0.199985 -0.116372
C15   C     C_R   0.497086 0.299694 0.838754 -0.191560
C16   C     C_R   0.507580 0.271199 0.943825 -0.104935
C17   C     C_R   0.494989 0.345305 0.010839 -0.178122
C18   C     C_R   0.465357 0.448030 0.973435 0.103096
C19   C     C_R   0.433946 0.467877 0.869448 0.094194
C20   C     C_R   0.466057 0.531734 0.035561 0.034015
C21   C     C_R   0.416548 0.625974 0.998632 0.036558
C22   C     C_R   0.364490 0.633082 0.900354 -0.177296
C23   C     C_R   0.373974 0.555752 0.836428 -0.214538
C24   C     C_R   0.517143 0.524390 0.133242 -0.229988
C25   C     C_R   0.454713 0.690426 0.164969 -0.278869
C26   C     C_R   0.464406 0.399522 0.800903 -0.123090
H14   H     H_    0.565140 0.459404 0.161389 0.197397
H15   H     H_    0.518265 0.245242 0.787018 0.161716
H16   H     H_    0.505788 0.318865 0.091463 0.154932
H17   H     H_    0.531085 0.193447 0.973139 0.178585
H18   H     H_    0.332129 0.564611 0.761146 0.162377
C27   C     C_R   0.322731 0.088456 0.345869 -0.274959
H19   H     H_    0.301497 0.255342 0.329684 0.139337
H20   H     H_    0.293008 0.881484 0.314955 0.186199
H21   H     H_    0.255083 0.066674 0.286010 0.167087
N1    N     N_R   0.433240 0.222190 0.444680 -0.103702
C28   C     C_R   0.651554 0.799295 0.630402 0.023709
C29   C     C_R   0.682493 0.903775 0.659133 -0.214494
C30   C     C_R   0.625123 0.985465 0.609765 -0.158374
C31   C     C_R   0.536147 0.962653 0.530796 0.019211
C32   C     C_R   0.508220 0.854775 0.504307 0.240054
C33   C     C_R   0.473843 0.041932 0.477412 -0.009876
C34   C     C_R   0.385271 0.011724 0.399172 0.183541
C35   C     C_R   0.360125 0.905364 0.374619 -0.264180
C36   C     C_R   0.421069 0.828303 0.426354 -0.225460
C37   C     C_R   0.495599 0.150739 0.498082 0.004833
C38   C     C_R   0.348434 0.194501 0.370203 0.020676
N2    N     N_R   0.566070 0.776970 0.554790 -0.132330
H22   H     H_    0.561308 0.181634 0.555347 0.118930
H23   H     H_    0.695496 0.735280 0.668601 0.141210
H24   H     H_    0.652228 0.065010 0.635095 0.136113
H25   H     H_    0.750519 0.921385 0.719581 0.161157
H26   H     H_    0.398046 0.748394 0.403546 0.209084
N3    N     N_R   0.374780 0.807844 0.027225 0.198273
O9    O     O_R   0.420422 0.865670 0.940550 -0.407546
O10   O     O_R   0.311212 0.851067 0.089046 -0.414994
N4    N     N_R   0.851879 0.394749 0.346221 0.227261
O11   O     O_R   0.858320 0.295453 0.385055 -0.404068
O12   O     O_R   0.783893 0.408980 0.264703 -0.411070

loop_
_geom_bond_atom_site_label_1
_geom_bond_atom_site_label_2
_geom_bond_distance
_ccdc_geom_bond_type
C5    C6    1.533787 S    
C31   C33   1.420342 A    
C10   C12   1.558607 S    
C18   C19   1.404835 A    
C1    C26   1.456442 S    
C15   C26   1.402297 A    
N3    O9    1.301361 A    
C29   H25   1.082557 S    
Zn1   O7    2.012209 S    
C12   H8    1.114215 S    
C7    H10   1.115514 S    
C8    C12   1.520186 S    
C13   N3    1.437878 S    
O4    C2    1.299624 A    
O7    C4    1.303024 A    
C32   N2    1.362794 A    
C5    H1    1.110661 S    
C28   H23   1.081719 S    
Zn1   O5    1.924019 S    
C6    H3    1.113624 S    
C19   C23   1.410788 A    
C8    H7    1.114331 S    
O5    C3    1.307120 A    
C8    C9    1.554183 S    
C4    C10   1.452837 S    
C14   C24   1.381987 A    
C3    C14   1.449573 S    
C34   C35   1.389116 A    
C7    C11   1.541898 S    
C18   C20   1.414580 A    
H20   C35   1.084392 S    
O3    Zn1   2.002302 S    
H12   C25   1.082437 S    
Zn1   N1    2.052699 S    
C24   H14   1.078306 S    
N3    O10   1.301485 A    
C15   C16   1.387106 A    
C35   C36   1.382300 A    
C13   C21   1.420108 A    
O3    C2    1.296729 A    
C16   C17   1.391261 A    
C15   H15   1.083476 S    
N1    C38   1.354246 A    
C28   N2    1.357318 A    
C17   H16   1.078626 S    
C28   C29   1.387984 A    
O1    C1    1.302886 A    
C37   H22   1.076334 S    
C20   C21   1.425371 A    
C30   C31   1.414559 A    
Zn2   O8    2.002302 S    
C2    C9    1.455009 S    
C23   H18   1.082486 S    
H13   C22   1.081113 S    
C14   C25   1.396848 A    
N1    C37   1.349770 A    
N4    O12   1.301013 A    
C17   C18   1.420238 A    
H5    C11   1.113194 S    
O8    C4    1.292764 A    
C11   H11   1.114079 S    
H19   C38   1.081964 S    
C7    C9    1.567894 S    
C13   C25   1.400444 A    
C32   C36   1.400651 A    
C27   C34   1.397975 A    
C21   C22   1.399123 A    
C5    H2    1.113695 S    
C5    C9    1.553729 S    
Zn2   N2    2.040347 S    
O1    Zn1   1.961690 S    
O2    Zn2   1.924019 S    
C6    C10   1.548569 S    
N4    O11   1.301615 A    
O6    C3    1.302639 A    
O4    Zn2   2.012210 S    
C36   H26   1.065765 S    
O2    C1    1.308419 A    
C7    N4    1.470222 S    
C12   H9    1.113959 S    
C16   H17   1.082753 S    
C33   C37   1.402487 A    
C6    H4    1.113293 S    
C8    H6    1.114240 S    
C29   C30   1.391493 A    
C27   C38   1.384230 A    
C19   C26   1.408665 A    
C31   C32   1.416383 A    
C22   C23   1.386654 A    
Zn2   O6    1.961687 S    
C33   C34   1.422386 A    
C27   H21   1.083899 S    
C10   C11   1.546787 S    
C30   H24   1.077345 S    
C20   C24   1.387926 A    
