data_mof_unit_51632.cif
_audit_creation_date              2012-12-10T19:42:06-0500
_audit_creation_method            fapswitch 2.2
_symmetry_space_group_name_H-M    P1
_symmetry_Int_Tables_number       1
_space_group_crystal_system       triclinic
_cell_length_a                    18.234683
_cell_length_b                    18.323879
_cell_length_c                    18.486994
_cell_angle_alpha                 120.337817
_cell_angle_beta                  89.912488
_cell_angle_gamma                 119.73284
_cell_volume                      4366.38622945

loop_
_atom_site_label
_atom_site_type_symbol
_atom_type_description
_atom_site_fract_x
_atom_site_fract_y
_atom_site_fract_z
_atom_type_partial_charge
C1    C     C_R   0.140333 0.780025 0.138219 0.484343
C2    C     C_R   0.801948 0.109308 0.804116 0.021536
C3    C     C_3   0.584704 0.898195 0.790877 -0.273275
C4    C     C_3   0.523829 0.929430 0.780696 -0.439606
C5    C     C_3   0.849387 0.872108 0.613151 -0.280121
C6    C     C_3   0.864260 0.818874 0.525002 -0.450962
C7    C     C_R   0.728755 0.057093 0.825905 -0.141350
C8    C     C_R   0.860933 0.220475 0.860115 0.508193
C9    C     C_R   0.668920 0.948058 0.770238 -0.006491
C10   C     C_R   0.688355 0.890796 0.695484 0.032593
C11   C     C_R   0.760564 0.946231 0.676388 -0.030431
C12   C     C_3   0.813538 0.933652 0.614829 -0.107681
C13   C     C_3   0.876180 0.055009 0.673522 0.035965
C14   C     C_R   0.774192 0.561269 0.223410 0.019010
C15   C     C_R   0.820813 0.516902 0.211086 0.016038
C16   C     C_R   0.805568 0.690368 0.775946 0.048452
C17   C     C_R   0.828451 0.490213 0.269519 0.001045
C18   C     C_R   0.762864 0.472423 0.312551 -0.009924
C19   C     C_R   0.708282 0.509134 0.315503 0.008155
C20   C     C_R   0.140397 0.501082 0.860467 0.503945
C21   C     C_R   0.724072 0.563233 0.278442 -0.034121
C22   C     C_3   0.662073 0.564692 0.226987 -0.218821
C23   C     C_3   0.718361 0.562510 0.164697 0.051800
C24   C     C_R   0.173968 0.945355 0.262936 -0.006310
C25   C     C_R   0.198778 0.891701 0.194981 -0.011557
C26   C     C_R   0.285069 0.947643 0.189917 -0.015506
C27   C     C_R   0.774944 0.595493 0.763961 -0.002746
C28   C     C_R   0.339279 0.055807 0.249066 -0.119383
C29   C     C_R   0.306696 0.108439 0.307640 0.004027
C30   C     C_R   0.224699 0.051377 0.314959 0.040011
C31   C     C_3   0.143110 0.052942 0.316560 -0.108371
C32   C     C_R   0.862738 0.503014 0.142620 0.491450
C33   C     C_3   0.087559 0.935306 0.262257 -0.245580
C34   C     C_R   0.278758 0.577755 0.247670 -0.047372
C35   C     C_R   0.196037 0.490726 0.185029 0.017017
C36   C     C_R   0.167341 0.395743 0.171408 -0.004903
C37   C     C_R   0.218815 0.395074 0.229184 -0.050972
C38   C     C_R   0.820515 0.597742 0.827146 -0.028349
C39   C     C_R   0.302392 0.489069 0.295464 0.036766
C40   C     C_R   0.329811 0.576615 0.299180 0.055927
C41   C     C_3   0.399531 0.691517 0.353262 0.051620
C42   C     C_3   0.340087 0.691770 0.292313 -0.111460
C43   C     C_R   0.289159 0.562585 0.841188 -0.016273
C44   C     C_R   0.140146 0.498705 0.138127 0.538614
C45   C     C_R   0.197078 0.510721 0.806228 0.004052
C46   C     C_R   0.160745 0.474344 0.718778 -0.141336
C47   C     C_R   0.213068 0.475778 0.662732 -0.018662
C48   C     C_R   0.303078 0.510198 0.695179 0.063444
C49   C     C_R   0.802434 0.502826 0.806985 0.018881
C50   C     C_R   0.339460 0.558037 0.785870 0.042320
C51   C     C_3   0.404037 0.561365 0.840589 0.047565
C52   C     C_3   0.344522 0.562241 0.900966 -0.105943
C53   C     C_R   0.641778 0.500527 0.361189 0.491957
C54   C     C_R   0.359440 0.501700 0.639603 0.556103
C55   C     C_R   0.637146 0.779352 0.639730 0.493287
C56   C     C_R   0.861069 0.502262 0.860789 0.494416
C57   C     C_R   0.360195 0.219888 0.360760 0.508780
C58   C     C_R   0.359440 0.497103 0.357819 0.544335
C59   C     C_R   0.639417 0.498613 0.638987 0.508150
C60   C     C_R   0.726853 0.406793 0.734086 -0.030497
C61   C     C_R   0.881654 0.695321 0.908427 -0.168015
C62   C     C_R   0.887150 0.783815 0.930386 0.023074
C63   C     C_R   0.845136 0.780478 0.863270 0.056700
C64   C     C_3   0.695649 0.305200 0.721120 -0.266069
C65   C     C_3   0.720399 0.242488 0.646576 -0.366094
C66   C     C_3   0.972186 0.114025 0.734811 -0.267883
C67   C     C_3   0.039932 0.113584 0.686003 -0.447605
C68   C     C_2   0.872577 0.096393 0.621470 0.234953
C69   C     C_3   0.907200 0.485643 0.289164 -0.253279
C70   C     C_3   0.997810 0.587238 0.324486 -0.422689
C71   C     C_R   0.675297 0.406098 0.676963 -0.003508
C72   C     C_3   0.745401 0.403912 0.343394 -0.241868
C73   C     C_3   0.786935 0.466492 0.443868 -0.405803
C74   C     C_3   0.666019 0.460788 0.069586 -0.264180
C75   C     C_3   0.594058 0.452092 0.016723 -0.455587
C76   C     C_3   0.769326 0.661473 0.166377 -0.235693
C77   C     C_3   0.842034 0.760633 0.255009 -0.438268
C78   C     C_2   0.316756 0.897243 0.118853 0.227938
C79   C     C_3   0.124373 0.092768 0.267523 -0.265300
C80   C     C_3   0.151445 0.068837 0.183712 -0.400995
C81   C     C_2   0.086005 0.296898 0.095366 0.243601
C82   C     C_R   0.699705 0.500008 0.691948 0.002901
C83   C     C_3   0.181751 0.294517 0.219196 -0.265193
C84   C     C_3   0.113306 0.278140 0.267681 -0.427408
C85   C     C_2   0.406101 0.747329 0.450286 0.225977
C86   C     C_3   0.493609 0.724960 0.343737 -0.280955
C87   C     C_3   0.494209 0.648651 0.254852 -0.440377
C88   C     C_3   0.294056 0.746914 0.335276 -0.287431
C89   C     C_3   0.356439 0.862039 0.375928 -0.435826
C90   C     C_2   0.938837 0.876716 0.023663 0.183670
C91   C     C_3   0.169305 0.439037 0.570436 -0.271215
C92   C     C_3   0.211575 0.527177 0.559484 -0.396392
C93   C     C_R   0.812792 0.050298 0.725994 0.047429
C94   C     C_2   0.400541 0.463441 0.796735 0.208741
C95   C     C_3   0.502504 0.658459 0.880792 -0.268072
C96   C     C_3   0.514262 0.750847 0.887185 -0.428388
C97   C     C_3   0.386626 0.656492 0.999244 -0.268644
C98   C     C_3   0.427411 0.641086 0.057768 -0.464513
C99   C     C_3   0.835157 0.865915 0.882827 -0.230356
C100  C     C_3   0.771495 0.871632 0.935954 -0.404366
C101  C     C_3   0.820078 0.700946 0.699397 -0.267693
C102  C     C_3   0.882807 0.670961 0.661667 -0.453797
C103  C     C_2   0.592112 0.306891 0.604734 0.236168
H1    H     H_    0.771944 0.898133 0.547516 0.141495
H2    H     H_    0.090925 0.443074 0.693613 0.140921
H3    H     H_    0.894667 0.780145 0.527279 0.137076
H4    H     H_    0.799238 0.759443 0.469749 0.169227
H5    H     H_    0.909076 0.875250 0.511132 0.140770
H6    H     H_    0.911596 0.919956 0.668883 0.148928
H7    H     H_    0.799167 0.810258 0.619161 0.149129
H8    H     H_    0.303417 0.488304 0.894657 0.141036
H9    H     H_    0.716592 0.101265 0.884725 0.127769
H10   H     H_    0.685764 0.218829 0.581745 0.175052
H11   H     H_    0.793681 0.287969 0.659766 0.208896
H12   H     H_    0.699691 0.171701 0.641864 0.168952
H13   H     H_    0.622091 0.257916 0.706078 0.110298
H14   H     H_    0.722791 0.317510 0.782857 0.154376
H15   H     H_    0.019901 0.034126 0.636099 0.151345
H16   H     H_    0.047599 0.152206 0.652968 0.151198
H17   H     H_    0.592574 0.493989 0.196308 0.121150
H18   H     H_    0.106211 0.156783 0.734739 0.158067
H19   H     H_    0.996835 0.196008 0.783875 0.174015
H20   H     H_    0.971910 0.084239 0.774390 0.148532
H21   H     H_    0.901218 0.084303 0.568443 0.090864
H22   H     H_    0.052388 0.583154 0.344387 0.131552
H23   H     H_    0.009835 0.602884 0.273531 0.154892
H24   H     H_    0.001176 0.652436 0.383630 0.141188
H25   H     H_    0.908045 0.473247 0.341670 0.132080
H26   H     H_    0.902985 0.420009 0.230043 0.178980
H27   H     H_    0.762666 0.515306 0.479578 0.177261
H28   H     H_    0.666423 0.637536 0.267189 0.128073
H29   H     H_    0.768793 0.413337 0.463691 0.163940
H30   H     H_    0.860965 0.517404 0.464617 0.123434
H31   H     H_    0.672911 0.343766 0.320357 0.188682
H32   H     H_    0.771107 0.355983 0.310290 0.121007
H33   H     H_    0.547099 0.460544 0.053011 0.147368
H34   H     H_    0.625116 0.511873 0.003597 0.142190
H35   H     H_    0.555288 0.375169 0.951767 0.138163
H36   H     H_    0.713039 0.455746 0.032246 0.159680
H37   H     H_    0.633411 0.393181 0.072919 0.135620
H38   H     H_    0.813790 0.777128 0.309949 0.140409
H39   H     H_    0.921885 0.704680 0.958891 0.143459
H40   H     H_    0.896412 0.754293 0.270924 0.161679
H41   H     H_    0.871705 0.826676 0.249853 0.124113
H42   H     H_    0.801573 0.649288 0.114248 0.173229
H43   H     H_    0.720198 0.674164 0.149489 0.128371
H44   H     H_    0.269808 0.821767 0.057593 0.127990
H45   H     H_    0.224857 0.119635 0.201077 0.141621
H46   H     H_    0.128295 0.987026 0.139597 0.152482
H47   H     H_    0.121525 0.084354 0.145953 0.181804
H48   H     H_    0.051504 0.058686 0.248835 0.144500
H49   H     H_    0.159500 0.177439 0.314756 0.174526
H50   H     H_    0.403912 0.099433 0.244111 0.181164
H51   H     H_    0.038439 0.238038 0.103554 0.114828
H52   H     H_    0.070672 0.302029 0.258796 0.139695
H53   H     H_    0.147871 0.323583 0.339886 0.169459
H54   H     H_    0.068144 0.195319 0.240540 0.145770
H55   H     H_    0.149586 0.228718 0.147909 0.136169
H56   H     H_    0.234494 0.290003 0.241936 0.165354
H57   H     H_    0.449345 0.830984 0.493677 0.093580
H58   H     H_    0.477179 0.578889 0.250122 0.168927
H59   H     H_    0.445565 0.624689 0.198441 0.141363
H60   H     H_    0.562000 0.685640 0.249574 0.127425
H61   H     H_    0.138505 0.088193 0.384549 0.129606
H62   H     H_    0.526210 0.800559 0.353496 0.124260
H63   H     H_    0.536257 0.737442 0.397367 0.178748
H64   H     H_    0.418318 0.899444 0.427572 0.143109
H65   H     H_    0.374948 0.873744 0.323548 0.175375
H66   H     H_    0.321854 0.899687 0.406912 0.148571
H67   H     H_    0.234342 0.713791 0.283451 0.166398
H68   H     H_    0.269929 0.735237 0.386191 0.167306
H69   H     H_    0.958082 0.869456 0.073911 0.090415
H70   H     H_    0.203989 0.588602 0.608751 0.145456
H71   H     H_    0.283760 0.561400 0.568627 0.182444
H72   H     H_    0.054865 0.905210 0.300753 0.114780
H73   H     H_    0.177293 0.497485 0.491699 0.147997
H74   H     H_    0.170709 0.373802 0.518071 0.174882
H75   H     H_    0.096974 0.407448 0.557866 0.125031
H76   H     H_    0.439204 0.457529 0.835489 0.089189
H77   H     H_    0.467161 0.768934 0.915346 0.154654
H78   H     H_    0.583562 0.820276 0.929539 0.126200
H79   H     H_    0.502756 0.734234 0.820306 0.169838
H80   H     H_    0.535137 0.683878 0.947208 0.123390
H81   H     H_    0.541675 0.636609 0.838974 0.169126
H82   H     H_    0.374026 0.574191 0.056320 0.154877
H83   H     H_    0.042745 0.893452 0.194595 0.144336
H84   H     H_    0.478131 0.626831 0.034747 0.139235
H85   H     H_    0.460150 0.711319 0.127258 0.144822
H86   H     H_    0.437846 0.730047 0.009657 0.169063
H87   H     H_    0.334540 0.666264 0.023739 0.204476
H88   H     H_    0.705021 0.796219 0.898366 0.145057
H89   H     H_    0.796842 0.890783 0.001781 0.187776
H90   H     H_    0.763042 0.931883 0.946360 0.135481
H91   H     H_    0.901155 0.941369 0.916794 0.196326
H92   H     H_    0.804573 0.851207 0.821070 0.128967
H93   H     H_    0.896309 0.684141 0.609292 0.126809
H94   H     H_    0.369903 0.708499 0.245540 0.147704
H95   H     H_    0.947553 0.719146 0.714947 0.160458
H96   H     H_    0.852512 0.588462 0.632622 0.157922
H97   H     H_    0.756867 0.655402 0.645746 0.146611
H98   H     H_    0.853634 0.781926 0.721827 0.120553
H99   H     H_    0.534262 0.268115 0.620889 0.090636
H100  H     H_    0.506107 0.908345 0.712335 0.172251
H101  H     H_    0.461217 0.888160 0.792546 0.142555
H102  H     H_    0.556893 0.013687 0.829463 0.145390
H103  H     H_    0.544278 0.813073 0.746062 0.171423
H104  H     H_    0.603514 0.921645 0.859959 0.139108
O1    O     O_3   0.000000 0.500000 0.000000 -0.435564
O2    O     O_R   0.323450 0.268330 0.384170 -0.555087
O3    O     O_R   0.444860 0.560620 0.384150 -0.541234
O4    O     O_R   0.055050 0.731580 0.115780 -0.553544
O5    O     O_R   0.615780 0.439200 0.555040 -0.500621
O6    O     O_R   0.323420 0.439190 0.384160 -0.560957
O7    O     O_R   0.615760 0.560630 0.676470 -0.553081
O8    O     O_R   0.615740 0.731500 0.676460 -0.569890
O9    O     O_R   0.444900 0.268330 0.384170 -0.523108
O10   O     O_R   0.615750 0.560630 0.384150 -0.553687
O11   O     O_R   0.323430 0.439200 0.555040 -0.549878
O12   O     O_R   0.055090 0.439280 0.823480 -0.536258
O13   O     O_R   0.884220 0.268410 0.823490 -0.500854
O14   O     O_R   0.176520 0.560720 0.944920 -0.561407
O15   O     O_R   0.884200 0.439290 0.115800 -0.555849
O16   O     O_R   0.176530 0.560720 0.115800 -0.554689
O17   O     O_R   0.884180 0.560710 0.944910 -0.573181
O18   O     O_R   0.055100 0.439290 0.115810 -0.517421
O19   O     O_R   0.884190 0.439280 0.823480 -0.539478
O20   O     O_2   0.837110 0.141924 0.636884 -0.512256
O21   O     O_2   0.396299 0.940671 0.127282 -0.528198
O22   O     O_2   0.072949 0.279207 0.021767 -0.510756
O23   O     O_R   0.884180 0.560710 0.115790 -0.558453
O24   O     O_2   0.364593 0.700226 0.481175 -0.533917
O25   O     O_2   0.961695 0.961907 0.045935 -0.564541
O26   O     O_2   0.354823 0.390714 0.719443 -0.516912
O27   O     O_2   0.588994 0.266957 0.527263 -0.482388
O28   O     O_R   0.176500 0.731590 0.115790 -0.561689
O29   O     O_R   0.884220 0.268420 0.944930 -0.533999
O30   O     O_3   0.499960 0.499910 0.499960 -0.436521
O31   O     O_R   0.615770 0.439200 0.384160 -0.560762
O32   O     O_R   0.444870 0.560630 0.676470 -0.545867
O33   O     O_R   0.615730 0.731500 0.555020 -0.543360
Zn1   Zn    Zn3+2 0.956630 0.413250 0.869870 0.952627
Zn2   Zn    Zn3+2 0.130130 0.586750 0.043370 0.912723
Zn3   Zn    Zn3+2 0.956630 0.413250 0.043380 0.939368
Zn4   Zn    Zn3+2 0.956610 0.586750 0.043370 0.883271
Zn5   Zn    Zn3+2 0.543330 0.586660 0.630080 0.911640
Zn6   Zn    Zn3+2 0.543320 0.586660 0.456570 0.907635
Zn7   Zn    Zn3+2 0.369830 0.413160 0.456580 0.915766
Zn8   Zn    Zn3+2 0.543350 0.413170 0.456590 0.953163

loop_
_geom_bond_atom_site_label_1
_geom_bond_atom_site_label_2
_ccdc_geom_bond_type
C70   H24   S    
C91   H74   S    
C87   H60   S    
C46   H2    S    
C17   C69   S    
C101  C102  S    
C64   H13   S    
C22   H28   S    
C1    O4    A    
C41   C42   S    
C95   C96   S    
C34   C42   S    
O1    Zn3   S    
C96   H78   S    
O5    Zn8   S    
C68   H21   S    
C97   C98   S    
C68   O20   D    
C4    H102  S    
O28   Zn2   S    
C38   C49   A    
C45   C46   A    
C92   H73   S    
C22   H17   S    
C41   C86   S    
C99   H91   S    
C70   H23   S    
C29   C30   A    
C49   C60   A    
C83   C84   S    
C34   C40   A    
O29   Zn3   S    
C28   C29   A    
C19   C21   A    
O1    Zn2   S    
C54   O32   A    
C34   C35   A    
C98   H82   S    
C102  H95   S    
C55   O8    A    
C30   C31   S    
C84   H52   S    
C43   C52   S    
C4    H101  S    
C5    H7    S    
C27   C38   A    
C91   H75   S    
C99   H92   S    
C52   C97   S    
O32   Zn5   S    
C7    H9    S    
O30   Zn7   S    
C17   C18   A    
C18   C19   A    
C65   H11   S    
O6    Zn7   S    
C78   O21   D    
C89   H64   S    
C63   C99   S    
C83   H56   S    
C73   H27   S    
C2    C7    A    
C69   H25   S    
C86   H63   S    
C36   C37   A    
C98   H85   S    
C20   O14   A    
C66   H19   S    
C33   H83   S    
C85   H57   S    
C55   O33   A    
C44   O18   A    
O2    Zn7   S    
C20   C45   S    
O14   Zn2   S    
C71   C82   A    
C19   C53   S    
C16   C27   A    
C97   H86   S    
C66   C67   S    
C73   H29   S    
C76   H43   S    
C88   H68   S    
C81   O22   D    
C21   C22   S    
C59   C82   S    
C1    C25   S    
C65   H12   S    
C53   O10   A    
C90   O25   D    
C100  H89   S    
C86   H62   S    
C47   C91   S    
C33   H72   S    
C67   H18   S    
C54   O11   A    
C32   O23   A    
C13   C66   S    
C58   O3    A    
C18   C72   S    
C80   H46   S    
C57   O2    A    
C59   O7    A    
C88   H67   S    
C74   C75   S    
C51   C52   S    
C47   C48   A    
C15   C32   S    
C24   C25   A    
C5    C12   S    
C75   H34   S    
C96   H79   S    
C39   C40   A    
C56   O17   A    
C86   C87   S    
O17   Zn4   S    
O19   Zn1   S    
C52   H8    S    
C92   H71   S    
C25   C26   A    
C100  H90   S    
C39   C58   S    
C74   H37   S    
O33   Zn6   S    
C96   H77   S    
C64   H14   S    
O12   Zn1   S    
O30   Zn8   S    
C13   C93   S    
C35   C36   A    
C14   C23   S    
C48   C54   S    
C77   H40   S    
C89   H65   S    
C98   H84   S    
C8    O13   A    
C16   C101  S    
C72   H31   S    
C99   C100  S    
C57   O9    A    
C36   C81   S    
C6    H4    S    
O15   Zn3   S    
C32   O15   A    
C62   C63   A    
C31   C33   S    
C50   C51   S    
C6    H3    S    
C74   H36   S    
O30   Zn5   S    
C94   O26   D    
C44   O16   A    
C26   C78   S    
O1    Zn1   S    
C75   H33   S    
C3    C9    S    
C43   C45   A    
C35   C44   S    
C78   H44   S    
C8    O29   A    
C70   H22   S    
C40   C41   S    
C16   C63   A    
C29   C57   S    
C76   H42   S    
O8    Zn5   S    
C103  O27   D    
C28   H50   S    
C4    H100  S    
C20   O12   A    
C100  H88   S    
O9    Zn8   S    
C101  H97   S    
O3    Zn6   S    
C23   C74   S    
C90   H69   S    
C3    C4    S    
C91   C92   S    
C59   O5    A    
C14   C21   A    
C79   H48   S    
C9    C10   A    
C15   C17   A    
C71   C103  S    
C31   H61   S    
C97   H87   S    
C87   H58   S    
C14   C15   A    
C3    H103  S    
C65   H10   S    
O4    Zn4   S    
C27   C82   A    
C2    C93   A    
C2    C8    S    
O1    Zn4   S    
C73   H30   S    
C72   C73   S    
C72   H32   S    
C75   H35   S    
C102  H93   S    
C53   O31   A    
C42   H94   S    
C84   H54   S    
C43   C50   A    
C31   C79   S    
C85   O24   D    
C92   H70   S    
O18   Zn3   S    
C49   C56   S    
C41   C85   S    
O13   Zn1   S    
C26   C28   A    
C24   C33   S    
C60   C71   A    
C12   C13   S    
C56   O19   A    
C60   C64   S    
C3    H104  S    
O11   Zn7   S    
C38   C61   A    
C61   C62   A    
C103  H99   S    
C89   H66   S    
C37   C39   A    
C101  H98   S    
C102  H96   S    
C64   C65   S    
C76   C77   S    
C84   H53   S    
C95   H80   S    
C5    C6    S    
C83   H55   S    
C5    H6    S    
O10   Zn6   S    
C1    O28   A    
C62   C90   S    
C48   C50   A    
O30   Zn6   S    
C80   H47   S    
O7    Zn5   S    
C94   H76   S    
C10   C55   S    
C69   C70   S    
C95   H81   S    
C67   H15   S    
C24   C30   A    
C12   H1    S    
C46   C47   A    
O23   Zn4   S    
C10   C11   A    
C81   H51   S    
C51   C94   S    
C79   C80   S    
C66   H20   S    
C58   O6    A    
C7    C9    A    
C61   H39   S    
C80   H45   S    
C87   H59   S    
C42   C88   S    
C88   C89   S    
C77   H38   S    
C69   H26   S    
O31   Zn8   S    
C23   C76   S    
C6    H5    S    
C22   C23   S    
C37   C83   S    
C11   C93   A    
O16   Zn2   S    
C77   H41   S    
C67   H16   S    
C11   C12   S    
C51   C95   S    
C79   H49   S    
C13   C68   S    
