data_mof_unit_17572.cif
_audit_creation_date              2013-03-05T15:49:10-0500
_audit_creation_method            fapswitch 2.2
_symmetry_space_group_name_H-M    P1
_symmetry_Int_Tables_number       1
_space_group_crystal_system       triclinic
_cell_length_a                    17.837636
_cell_length_b                    24.587762
_cell_length_c                    15.106403
_cell_angle_alpha                 89.835488
_cell_angle_beta                  126.783432
_cell_angle_gamma                 90.051504
_cell_volume                      5306.35266088

loop_
_atom_site_label
_atom_site_type_symbol
_atom_site_description
_atom_site_fract_x
_atom_site_fract_y
_atom_site_fract_z
_atom_type_partial_charge
C1    C     C_R   0.341103 0.148347 0.907394 -0.156732
C2    C     C_R   0.342211 0.851690 0.906387 -0.143786
C3    C     C_R   0.846012 0.650068 0.906405 -0.182056
C4    C     C_R   0.837780 0.353404 0.906697 -0.126259
H1    H     H_    0.288330 0.158522 0.821617 0.216669
H2    H     H_    0.290542 0.842625 0.819912 0.218366
H3    H     H_    0.795259 0.660693 0.820355 0.219894
H4    H     H_    0.784593 0.344894 0.820346 0.213195
N1    N     N_R   0.392450 0.103580 0.942190 -0.108670
N2    N     N_R   0.392450 0.896420 0.942190 -0.110924
N3    N     N_R   0.892450 0.603580 0.942190 -0.104490
N4    N     N_R   0.892450 0.396420 0.942190 -0.113253
C5    C     C_R   0.441568 0.848143 0.089640 0.831066
C6    C     C_R   0.439228 0.149798 0.091626 0.805229
C7    C     C_R   0.937401 0.349809 0.090539 0.871971
C8    C     C_R   0.944253 0.652101 0.089879 0.745900
N5    N     N_R   0.450490 0.896000 0.057360 -0.162269
N6    N     N_R   0.450490 0.104000 0.057360 -0.152153
N7    N     N_R   0.950490 0.396000 0.057360 -0.162369
N8    N     N_R   0.950490 0.604000 0.057360 -0.150281
C9    C     C_R   0.549156 0.044333 0.305433 0.325420
C10   C     C_R   0.542843 0.953227 0.300270 0.382789
C11   C     C_R   0.042813 0.546840 0.300097 0.381508
C12   C     C_R   0.049143 0.455846 0.305667 0.323852
N9    N     N_R   0.525490 0.028390 0.207550 -0.135653
N10   N     N_R   0.525490 0.971610 0.207550 -0.146003
N11   N     N_R   0.025490 0.528390 0.207550 -0.144082
N12   N     N_R   0.025490 0.471610 0.207550 -0.136160
C13   C     C_R   0.239990 0.954003 0.698363 -0.016961
C14   C     C_R   0.239380 0.045555 0.697541 0.042179
C15   C     C_R   0.738916 0.454743 0.697980 0.021534
C16   C     C_R   0.739437 0.546340 0.699175 0.002157
H5    H     H_    0.226070 0.912247 0.670936 0.209359
H6    H     H_    0.223373 0.087237 0.668749 0.175237
H7    H     H_    0.722795 0.413214 0.668791 0.170652
H8    H     H_    0.725303 0.588217 0.671975 0.211282
N13   N     N_R   0.317450 0.971190 0.792000 -0.082675
N14   N     N_R   0.317450 0.028810 0.792000 -0.084146
N15   N     N_R   0.817450 0.471190 0.792000 -0.084387
N16   N     N_R   0.817450 0.528810 0.792000 -0.082604
C17   C     C_R   0.368206 0.177565 0.000594 0.035309
C18   C     C_R   0.369044 0.821030 0.998264 0.045571
C19   C     C_R   0.875091 0.680510 0.998454 0.072979
C20   C     C_R   0.862901 0.323446 0.999011 0.014608
C21   C     C_R   0.547612 0.998221 0.357973 0.013360
C22   C     C_R   0.047815 0.501907 0.358308 0.014633
C23   C     C_R   0.191203 0.999579 0.638827 0.161389
C24   C     C_R   0.690358 0.500931 0.639904 0.163729
C25   C     C_R   0.443122 0.043649 0.691172 0.741078
C26   C     C_R   0.448099 0.954114 0.695536 0.636084
C27   C     C_R   0.944454 0.545190 0.693121 0.644627
C28   C     C_R   0.944227 0.455795 0.692386 0.737534
N17   N     N_R   0.473900 0.028390 0.792280 -0.162570
N18   N     N_R   0.473900 0.971610 0.792280 -0.161381
N19   N     N_R   0.973900 0.528390 0.792280 -0.160431
N20   N     N_R   0.973900 0.471610 0.792280 -0.165433
C29   C     C_R   0.769056 0.954718 0.251821 -0.025962
C30   C     C_R   0.768025 0.046504 0.251700 0.049135
C31   C     C_R   0.268400 0.453895 0.251967 0.007209
C32   C     C_R   0.268462 0.545669 0.250228 0.012796
H9    H     H_    0.793782 0.913287 0.270122 0.193311
H10   H     H_    0.789968 0.088501 0.267554 0.176939
H11   H     H_    0.291447 0.412139 0.269631 0.173501
H12   H     H_    0.292000 0.587377 0.266456 0.197945
N21   N     N_R   0.682310 0.971180 0.208170 -0.068332
N22   N     N_R   0.682310 0.028820 0.208170 -0.075250
N23   N     N_R   0.182310 0.471180 0.208170 -0.073319
N24   N     N_R   0.182310 0.528820 0.208170 -0.070346
C33   C     C_R   0.645071 0.152312 0.090443 0.751661
C34   C     C_R   0.657503 0.851850 0.093262 0.746542
C35   C     C_R   0.148413 0.651559 0.090938 0.781655
C36   C     C_R   0.153556 0.350546 0.093097 0.727500
N25   N     N_R   0.606470 0.103570 0.057210 -0.163304
N26   N     N_R   0.606470 0.896430 0.057210 -0.167680
N27   N     N_R   0.106470 0.603570 0.057210 -0.165906
N28   N     N_R   0.106470 0.396430 0.057210 -0.168052
C37   C     C_R   0.566032 0.851186 0.909002 0.328730
C38   C     C_R   0.555240 0.151968 0.907803 0.316823
C39   C     C_R   0.061651 0.349548 0.909108 0.356113
C40   C     C_R   0.059079 0.650991 0.908394 0.294309
N29   N     N_R   0.549740 0.896000 0.943240 -0.144768
N30   N     N_R   0.549740 0.104000 0.943240 -0.138081
N31   N     N_R   0.049740 0.396000 0.943240 -0.141487
N32   N     N_R   0.049740 0.604000 0.943240 -0.142670
Ni1   Ni    Ni4+2 0.433780 0.065390 0.868430 0.315773
Ni2   Ni    Ni4+2 0.433780 0.934610 0.868430 0.312267
Ni3   Ni    Ni4+2 0.933780 0.565390 0.868430 0.310945
Ni4   Ni    Ni4+2 0.933780 0.434610 0.868430 0.315830
Ni5   Ni    Ni4+2 0.565800 0.934190 0.131570 0.362898
Ni6   Ni    Ni4+2 0.565800 0.065810 0.131570 0.359137
Ni7   Ni    Ni4+2 0.065800 0.434190 0.131570 0.357386
Ni8   Ni    Ni4+2 0.065800 0.565810 0.131570 0.364910
C41   C     C_R   0.432121 0.998300 0.631175 -0.057704
C42   C     C_R   0.930962 0.500752 0.630483 -0.065959
C43   C     C_R   0.822771 0.001000 0.279374 0.140103
C44   C     C_R   0.322669 0.499559 0.278363 0.139676
C45   C     C_R   0.616014 0.184154 0.998968 -0.047553
C46   C     C_R   0.637530 0.823522 0.002629 -0.120537
C47   C     C_R   0.121750 0.682838 0.999673 -0.057725
C48   C     C_R   0.130976 0.320988 0.002698 -0.118672
C49   C     C_3   0.037871 0.948832 0.477937 0.703942
C50   C     C_3   0.021149 0.027917 0.529921 0.715218
C51   C     C_3   0.520253 0.472252 0.529527 0.720454
C52   C     C_3   0.536867 0.551936 0.478688 0.709478
C53   C     C_3   0.961113 0.977632 0.475372 0.048046
C54   C     C_3   0.459831 0.522503 0.474751 0.046211
C55   C     C_3   0.922683 0.001549 0.361850 -0.224264
C56   C     C_3   0.422589 0.499250 0.361341 -0.220494
C57   C     C_3   0.999758 0.972472 0.362637 -0.228865
C58   C     C_3   0.983361 0.053076 0.416611 -0.285641
C59   C     C_3   0.483732 0.447765 0.416378 -0.301263
C60   C     C_3   0.499986 0.528994 0.363547 -0.218739
C61   C     C_3   0.061673 0.023438 0.421018 0.303128
C62   C     C_3   0.562293 0.478044 0.422166 0.300180
C63   C     C_3   0.099688 0.999353 0.534258 -0.429714
C64   C     C_3   0.599002 0.501438 0.535203 -0.433179
H13   H     H_    0.989781 0.950430 0.292266 0.241693
H14   H     H_    0.961754 0.095985 0.390800 0.229987
H15   H     H_    0.462780 0.404894 0.390184 0.220329
H16   H     H_    0.490517 0.551578 0.293750 0.244749
C65   C     C_3   0.309344 0.793406 0.106975 0.435228
C66   C     C_3   0.350954 0.234352 0.125613 0.501159
C67   C     C_3   0.803524 0.293681 0.106813 0.458775
C68   C     C_3   0.856023 0.735134 0.124255 0.503354
H17   H     H_    0.281390 0.834810 0.100852 0.173268
H18   H     H_    0.365066 0.197402 0.175277 0.196702
H19   H     H_    0.774630 0.334601 0.100750 0.184254
H20   H     H_    0.868291 0.697043 0.171302 0.167166
C69   C     C_3   0.744067 0.251445 0.112603 0.616172
C70   C     C_3   0.785345 0.769264 0.125476 0.584832
C71   C     C_3   0.249744 0.751133 0.113358 0.639135
C72   C     C_3   0.279782 0.267969 0.126399 0.567630
H21   H     H_    0.791636 0.221353 0.177837 0.170879
H22   H     H_    0.822090 0.806036 0.176418 0.167394
H23   H     H_    0.297491 0.721545 0.179631 0.179093
H24   H     H_    0.315877 0.305145 0.176156 0.157452
C73   C     C_3   0.825491 0.223057 0.997213 0.259863
C74   C     C_3   0.808157 0.775934 0.939296 0.294259
C75   C     C_3   0.332011 0.721263 0.999425 0.266848
C76   C     C_3   0.301075 0.272621 0.938928 0.288810
C77   C     C_3   0.203412 0.796447 0.901262 -0.618056
C78   C     C_3   0.214870 0.190482 0.953369 -0.592318
C79   C     C_3   0.697342 0.298588 0.901459 -0.617453
C80   C     C_3   0.720074 0.693629 0.948709 -0.612589
C81   C     C_3   0.306508 0.782767 0.001608 -0.345436
C82   C     C_3   0.311176 0.219042 0.003718 -0.369038
C83   C     C_3   0.800472 0.284423 0.001198 -0.339161
C84   C     C_3   0.817316 0.721671 0.001831 -0.373850
H25   H     H_    0.190911 0.788539 0.821162 0.271308
H26   H     H_    0.184697 0.170687 0.872509 0.255667
H27   H     H_    0.684537 0.290991 0.821103 0.267588
H28   H     H_    0.689835 0.675395 0.866545 0.254835
H29   H     H_    0.189369 0.840663 0.900367 0.244661
H30   H     H_    0.225846 0.156680 0.009202 0.264466
H31   H     H_    0.683702 0.342797 0.901412 0.251662
H32   H     H_    0.729811 0.658728 0.001775 0.255457
C85   C     C_3   0.680852 0.222116 0.000200 -0.543782
C86   C     C_3   0.702682 0.785864 0.004697 -0.500012
C87   C     C_3   0.187005 0.720810 0.001466 -0.532015
C88   C     C_3   0.196340 0.283385 0.005252 -0.503147
C89   C     C_3   0.745850 0.187321 0.983087 1.057547
C90   C     C_3   0.748976 0.816295 0.955439 1.067857
C91   C     C_3   0.252911 0.685576 0.986610 1.045755
C92   C     C_3   0.241530 0.313096 0.954064 1.079621
C93   C     C_3   0.627324 0.265026 0.904986 0.202529
C94   C     C_3   0.649627 0.734322 0.935537 0.232407
C95   C     C_3   0.133486 0.763015 0.904844 0.204205
C96   C     C_3   0.143932 0.231335 0.938220 0.228676
H33   H     H_    0.586179 0.244469 0.824958 0.207391
H34   H     H_    0.604255 0.746094 0.847659 0.202149
H35   H     H_    0.092971 0.741936 0.825183 0.208990
H36   H     H_    0.098776 0.242149 0.849968 0.201381
C97   C     C_3   0.567926 0.008749 0.623926 -0.203360
C98   C     C_3   0.439911 0.940502 0.500397 -0.006886
C99   C     C_3   0.940919 0.559407 0.501775 -0.010544
C100  C     C_3   0.066754 0.489294 0.623198 -0.205000
H37   H     H_    0.603542 0.970839 0.672047 0.187447
H38   H     H_    0.478161 0.909380 0.567006 0.205625
H39   H     H_    0.979708 0.589697 0.569646 0.197270
H40   H     H_    0.103702 0.526347 0.673495 0.183635
C101  C     C_3   0.594634 0.017257 0.544748 1.359533
C102  C     C_3   0.484456 0.938832 0.438931 1.159285
C103  C     C_3   0.985885 0.561304 0.440761 1.157714
C104  C     C_3   0.093727 0.481589 0.544234 1.352375
H41   H     H_    0.425901 0.081872 0.504958 0.281589
H42   H     H_    0.328647 0.041253 0.429278 0.288546
H43   H     H_    0.826477 0.460312 0.426753 0.286637
H44   H     H_    0.921372 0.418168 0.501199 0.284016
C105  C     C_3   0.403571 0.041699 0.464611 -0.334193
C106  C     C_3   0.901475 0.458823 0.462718 -0.336012
C107  C     C_3   0.458752 0.997911 0.555474 -0.378164
C108  C     C_3   0.957880 0.501472 0.554975 -0.368351
C109  C     C_3   0.511964 0.998362 0.426359 -0.681461
C110  C     C_3   0.011862 0.501774 0.426527 -0.667838
C111  C     C_3   0.420267 0.036170 0.374526 0.378760
C112  C     C_3   0.919392 0.464710 0.373754 0.361098
F1    F     F_    0.063887 0.895153 0.508503 -0.588445
F2    F     F_    0.031820 0.055409 0.616613 -0.592870
F3    F     F_    0.530401 0.444117 0.615581 -0.597462
F4    F     F_    0.562307 0.605532 0.509970 -0.575303
N33   N     N_R   0.117320 0.049062 0.391273 0.297203
O1    O     O_R   0.077011 0.066534 0.290941 -0.211588
O2    O     O_R   0.206329 0.057090 0.465723 -0.310276
N34   N     N_R   0.619303 0.453144 0.393803 0.295492
O3    O     O_R   0.580367 0.436536 0.293422 -0.212859
O4    O     O_R   0.708054 0.444716 0.469512 -0.326248
F5    F     F_    0.398193 0.791950 0.206202 -0.537074
F6    F     F_    0.434129 0.263195 0.178715 -0.544102
F7    F     F_    0.892138 0.291123 0.205989 -0.535958
F8    F     F_    0.940299 0.762964 0.180303 -0.533825
F9    F     F_    0.198135 0.775334 0.143724 -0.500700
F10   F     F_    0.250572 0.239452 0.179938 -0.530144
F11   F     F_    0.693087 0.275392 0.144140 -0.507791
F12   F     F_    0.755121 0.740700 0.177842 -0.522335
N35   N     N_R   0.919371 0.210269 0.100223 0.292775
O5    O     O_R   0.931240 0.189722 0.187358 -0.236109
O6    O     O_R   0.993556 0.221587 0.106134 -0.177801
N36   N     N_R   0.900520 0.801066 0.985303 0.310199
O7    O     O_R   0.903027 0.849720 0.952792 -0.149168
O8    O     O_R   0.976688 0.772074 0.035540 -0.197285
N37   N     N_R   0.425994 0.708920 0.102742 0.289044
O9    O     O_R   0.438115 0.691015 0.191698 -0.223848
O10   O     O_R   0.499999 0.717572 0.106779 -0.170192
N38   N     N_R   0.393212 0.297865 0.984047 0.313339
O11   O     O_R   0.395407 0.346685 0.951913 -0.134052
O12   O     O_R   0.468956 0.268626 0.031707 -0.212915
F13   F     F_    0.782693 0.142694 0.053573 -0.660645
F14   F     F_    0.805360 0.857538 0.028610 -0.656055
F15   F     F_    0.290548 0.642022 0.059865 -0.673345
F16   F     F_    0.296733 0.355399 0.024580 -0.642878
F17   F     F_    0.515512 0.822111 0.178207 -0.533843
F18   F     F_    0.505310 0.171155 0.191662 -0.559419
F19   F     F_    0.006961 0.324983 0.184868 -0.531215
F20   F     F_    0.018465 0.676289 0.180879 -0.539739
N39   N     N_R   0.068006 0.797736 0.908013 0.299274
O13   O     O_R   0.979289 0.795343 0.826737 -0.207827
O14   O     O_R   0.097802 0.838181 0.976752 -0.226796
N40   N     N_R   0.082629 0.207567 0.962945 0.299056
O15   O     O_R   0.992481 0.210453 0.888578 -0.244900
O16   O     O_R   0.115476 0.176868 0.049253 -0.171631
N41   N     N_R   0.562529 0.299467 0.909927 0.303151
O17   O     O_R   0.473368 0.296495 0.830497 -0.208746
O18   O     O_R   0.592848 0.339859 0.978862 -0.221769
N42   N     N_R   0.588463 0.709725 0.959801 0.296937
O19   O     O_R   0.498290 0.711924 0.885116 -0.239667
O20   O     O_R   0.621641 0.678366 0.045319 -0.177862
N43   N     N_R   0.829065 0.210210 0.904029 0.302519
O21   O     O_R   0.853449 0.161361 0.897292 -0.140458
O22   O     O_R   0.803169 0.244252 0.824561 -0.288425
N44   N     N_R   0.761124 0.765483 0.820012 0.258170
O23   O     O_R   0.806659 0.771540 0.778285 -0.181720
O24   O     O_R   0.672902 0.752840 0.752792 -0.283720
N45   N     N_R   0.335573 0.707796 0.906383 0.300957
O25   O     O_R   0.361332 0.659068 0.901256 -0.156712
O26   O     O_R   0.309774 0.741476 0.826401 -0.281145
N46   N     N_R   0.253822 0.261443 0.819807 0.259417
O27   O     O_R   0.296840 0.270796 0.775830 -0.175988
O28   O     O_R   0.166903 0.245976 0.754401 -0.301036
F21   F     F_    0.690770 0.165920 0.876958 -0.594451
F22   F     F_    0.684189 0.842194 0.856100 -0.610105
F23   F     F_    0.198868 0.662565 0.881877 -0.618307
F24   F     F_    0.175645 0.337200 0.853550 -0.581098
N47   N     N_R   0.604784 0.053130 0.705009 0.287364
O29   O     O_R   0.665638 0.042377 0.809784 -0.261760
O30   O     O_R   0.582043 0.103534 0.673851 -0.169845
N48   N     N_R   0.340799 0.923248 0.430098 0.325113
O31   O     O_R   0.320577 0.873982 0.390999 -0.122809
O32   O     O_R   0.276412 0.950889 0.425570 -0.268555
N49   N     N_R   0.842357 0.577858 0.431364 0.326675
O33   O     O_R   0.824086 0.627764 0.395153 -0.127746
O34   O     O_R   0.776256 0.550176 0.423129 -0.263556
N50   N     N_R   0.101581 0.443507 0.701311 0.292039
O35   O     O_R   0.164108 0.452150 0.806526 -0.258695
O36   O     O_R   0.074602 0.393910 0.666810 -0.149337
F25   F     F_    0.674957 0.987350 0.583577 -0.552830
F26   F     F_    0.564294 0.906928 0.502552 -0.585301
F27   F     F_    0.066525 0.592340 0.505521 -0.591590
F28   F     F_    0.174825 0.510932 0.584434 -0.552754
F29   F     F_    0.616892 0.070872 0.543506 -0.566119
F30   F     F_    0.424287 0.913285 0.337636 -0.601688
F31   F     F_    0.926455 0.587823 0.340159 -0.618679
F32   F     F_    0.114798 0.427911 0.541306 -0.567110
N51   N     N_R   0.621842 0.083879 0.367307 0.287853
O37   O     O_R   0.708400 0.069862 0.414832 -0.263709
O38   O     O_R   0.604059 0.132172 0.384893 -0.113979
N52   N     N_R   0.602510 0.907044 0.354823 0.294648
O39   O     O_R   0.569010 0.860931 0.358831 -0.076002
O40   O     O_R   0.690129 0.909978 0.394151 -0.241123
N53   N     N_R   0.102327 0.593061 0.354098 0.298938
O41   O     O_R   0.188566 0.591132 0.387882 -0.242614
O42   O     O_R   0.069282 0.638651 0.360900 -0.120634
N54   N     N_R   0.119680 0.415066 0.367113 0.284560
O43   O     O_R   0.098149 0.366094 0.376829 -0.099188
O44   O     O_R   0.207384 0.428043 0.420208 -0.252590
N55   N     N_R   0.429352 0.091493 0.342727 0.260454
O45   O     O_R   0.472135 0.130362 0.415066 -0.209377
O46   O     O_R   0.379553 0.104831 0.238652 -0.376291
N56   N     N_R   0.338021 0.010031 0.273630 0.284946
O47   O     O_R   0.343676 0.994826 0.195309 -0.327894
O48   O     O_R   0.254448 0.015465 0.247778 -0.231076
N57   N     N_R   0.837593 0.491365 0.272829 0.284921
O49   O     O_R   0.753406 0.483861 0.244017 -0.232025
O50   O     O_R   0.844588 0.508283 0.196300 -0.329075
N58   N     N_R   0.928475 0.409692 0.341769 0.268925
O51   O     O_R   0.884867 0.398476 0.237779 -0.356538
O52   O     O_R   0.967589 0.369683 0.412398 -0.170994
F33   F     F_    0.393282 0.089616 0.642641 -0.598722
F34   F     F_    0.401497 0.906734 0.652559 -0.601068
F35   F     F_    0.889524 0.589742 0.646346 -0.595998
F36   F     F_    0.906776 0.406405 0.649730 -0.594383
F37   F     F_    0.685209 0.170708 0.194346 -0.594278
F38   F     F_    0.700778 0.832493 0.197345 -0.573408
F39   F     F_    0.192096 0.669746 0.195682 -0.579116
F40   F     F_    0.193881 0.331298 0.196682 -0.584817
N59   N     N_R   0.496277 0.826384 0.805030 0.276729
O53   O     O_R   0.412711 0.818631 0.777422 -0.274496
O54   O     O_R   0.510176 0.820182 0.730409 -0.202858
N60   N     N_R   0.482886 0.171984 0.799870 0.264423
O55   O     O_R   0.494683 0.172593 0.722915 -0.206612
O56   O     O_R   0.400467 0.182288 0.773525 -0.305762
N61   N     N_R   0.988506 0.325085 0.806170 0.278603
O57   O     O_R   0.903798 0.324085 0.777352 -0.303939
O58   O     O_R   0.001512 0.312932 0.732602 -0.173680
N62   N     N_R   0.992924 0.669867 0.797804 0.266204
O59   O     O_R   0.010652 0.664645 0.726281 -0.254430
O60   O     O_R   0.909343 0.683820 0.763852 -0.268792
N63   N     N_R   0.906260 0.953416 0.507832 0.284967
O61   O     O_R   0.917721 0.902544 0.537147 -0.204777
O62   O     O_R   0.849944 0.983587 0.514365 -0.202181
N64   N     N_R   0.403902 0.546020 0.506164 0.284152
O63   O     O_R   0.414495 0.596756 0.535510 -0.198209
O64   O     O_R   0.346984 0.515425 0.511027 -0.207938

loop_
_geom_bond_atom_site_label_1
_geom_bond_atom_site_label_2
_geom_bond_distance
_ccdc_geom_bond_type
C110  C112  1.616611 S    
N33   O2    1.298820 A    
C78   C82   1.568069 S    
C58   H14   1.109980 S    
C80   C84   1.569117 S    
N57   O49   1.302221 A    
C95   N39   1.471166 S    
N8    Ni8   1.898720 S    
C99   C103  1.542774 S    
C7    C20   1.378778 A    
N44   O24   1.300549 A    
C13   H5    1.079885 S    
C53   N63   1.457474 S    
N42   O19   1.299820 A    
C14   N14   1.327725 A    
C92   F16   1.390883 S    
C10   N52   1.430998 S    
C52   C64   1.536918 S    
N50   O35   1.301508 A    
C92   F24   1.377318 S    
C34   N26   1.315816 A    
C103  F27   1.387632 S    
C61   N33   1.454482 S    
C4    N4    1.316194 A    
C99   N49   1.478957 S    
C6    F18   1.348718 S    
N29   Ni2   1.911752 S    
C77   C81   1.566082 S    
C98   C107  1.571218 S    
C89   F21   1.389271 S    
C79   H27   1.108954 S    
N31   Ni4   1.911752 S    
C44   C56   1.439591 S    
C90   F22   1.382739 S    
C11   C22   1.379292 A    
C73   N35   1.483917 S    
C70   H22   1.112727 S    
N28   N31   1.379101 A    
C5    C18   1.374245 A    
C93   H33   1.093575 S    
C37   N59   1.432025 S    
N40   O16   1.301265 A    
N3    N8    1.393502 A    
N64   O63   1.300338 A    
N5    Ni5   1.900073 S    
C60   H16   1.110013 S    
N4    Ni4   1.908743 S    
C66   C82   1.573114 S    
C95   H35   1.095659 S    
C35   C47   1.388441 A    
C97   C107  1.587982 S    
C23   C63   1.439443 S    
N35   O5    1.302042 A    
N13   N14   1.416749 A    
C38   N30   1.321478 A    
C8    N8    1.312061 A    
C91   F23   1.389320 S    
C68   C70   1.524428 S    
C74   C90   1.571692 S    
C35   F39   1.355626 S    
C69   H21   1.110898 S    
C1    C17   1.386392 A    
C15   C24   1.376833 A    
N49   O34   1.300908 A    
C49   C63   1.537183 S    
C55   C58   1.546696 S    
C93   N41   1.471054 S    
N56   O47   1.302050 A    
N26   N29   1.379101 A    
N15   N16   1.416749 A    
C52   C60   1.552722 S    
C100  C104  1.542446 S    
C76   N38   1.486613 S    
C90   F14   1.391018 S    
C29   H9    1.077894 S    
N30   Ni1   1.913129 S    
C31   H11   1.078001 S    
C56   C59   1.547169 S    
C32   H12   1.079565 S    
C12   C22   1.394046 A    
N54   O44   1.300177 A    
C51   C64   1.532911 S    
C9    N51   1.432396 S    
N52   O40   1.299580 A    
C28   F36   1.350452 S    
C25   N17   1.329627 A    
N24   Ni8   1.898078 S    
C87   C95   1.563014 S    
C70   F12   1.384390 S    
C27   N19   1.320957 A    
C88   C96   1.552032 S    
C3    N3    1.321663 A    
C78   C96   1.522074 S    
C10   C21   1.381132 A    
N61   O57   1.298261 A    
N17   Ni1   1.912115 S    
C25   C41   1.376835 A    
C18   C81   1.482342 S    
C61   C63   1.530536 S    
C73   C89   1.572102 S    
C47   C87   1.479105 S    
C39   N61   1.434011 S    
C98   C102  1.542409 S    
C60   C62   1.551231 S    
C112  N58   1.479050 S    
N55   O46   1.301349 A    
N17   N18   1.396091 A    
C53   C55   1.530914 S    
N9    Ni6   1.913652 S    
C13   C23   1.371356 A    
C16   H8    1.080070 S    
N25   Ni6   1.902324 S    
N26   Ni5   1.906105 S    
N45   O25   1.302600 A    
C49   F1    1.382561 S    
N27   N32   1.379039 A    
N20   Ni4   1.908357 S    
C104  F28   1.389430 S    
C103  C110  1.589256 S    
C59   H15   1.109957 S    
N41   O17   1.299774 A    
C105  C107  1.545146 S    
N60   O56   1.297436 A    
N1    Ni1   1.912541 S    
N36   O8    1.301477 A    
C17   C82   1.461778 S    
N3    Ni3   1.912541 S    
N46   O28   1.300464 A    
C50   C63   1.533558 S    
C24   C64   1.438941 S    
C75   N37   1.484314 S    
N58   O52   1.302527 A    
C52   F4    1.382584 S    
C22   C110  1.504915 S    
C9    C21   1.391827 A    
C14   H6    1.081798 S    
N13   Ni2   1.891045 S    
C37   C46   1.387607 A    
C85   C93   1.562702 S    
C99   C108  1.571485 S    
N18   Ni2   1.908357 S    
N62   O59   1.301506 A    
C96   N40   1.470877 S    
N9    N10   1.396091 A    
C80   H32   1.112994 S    
C30   C43   1.374972 A    
C65   H17   1.112990 S    
N37   O9    1.302001 A    
C67   H19   1.109156 S    
C72   H24   1.112827 S    
C38   C45   1.383784 A    
N53   O41   1.299566 A    
C78   H30   1.113089 S    
C71   C87   1.551040 S    
N48   O32   1.301045 A    
C6    C17   1.368193 A    
C94   H34   1.101192 S    
C40   C47   1.386654 A    
C71   F9    1.385736 S    
C62   N34   1.454978 S    
C31   C44   1.376601 A    
C101  F25   1.389445 S    
C102  F26   1.387693 S    
C111  N55   1.482027 S    
C103  F31   1.387337 S    
C9    N9    1.331840 A    
N2    Ni2   1.908743 S    
C12   N12   1.331627 A    
N34   O4    1.299265 A    
C74   N44   1.486184 S    
C62   C64   1.530160 S    
H41   C105  1.103540 S    
C76   C92   1.570015 S    
N21   Ni5   1.899471 S    
C5    N5    1.317974 A    
C75   C91   1.571586 S    
C80   H28   1.110639 S    
C36   F40   1.355846 S    
C54   C56   1.531422 S    
C2    C18   1.386656 A    
C104  C110  1.557917 S    
N42   O20   1.301216 A    
N12   Ni7   1.917439 S    
C65   C81   1.584447 S    
N19   Ni3   1.912115 S    
N28   Ni7   1.906105 S    
N1    N6    1.393502 A    
C100  H40   1.115738 S    
N34   O3    1.300142 A    
N50   O36   1.300970 A    
N51   O37   1.300062 A    
C33   C45   1.388487 A    
C30   H10   1.079482 S    
N19   N20   1.396091 A    
C94   N42   1.472043 S    
C40   N32   1.319464 A    
N38   O11   1.302858 A    
C52   C54   1.521863 S    
C57   H13   1.109982 S    
N47   O29   1.301501 A    
N22   Ni6   1.898077 S    
C7    N7    1.316067 A    
C68   C84   1.574932 S    
C26   N18   1.315480 A    
N64   O64   1.299880 A    
C1    H1    1.079610 S    
C88   C92   1.588556 S    
C3    H3    1.080154 S    
C73   N43   1.481691 S    
C49   C57   1.552621 S    
C20   C83   1.484489 S    
C50   C53   1.516958 S    
C51   C59   1.542790 S    
C79   C93   1.523595 S    
H43   C106  1.102601 S    
C19   C84   1.467684 S    
C46   C86   1.472155 S    
C41   C107  1.477891 S    
N39   O13   1.299467 A    
C33   N25   1.323049 A    
C101  C109  1.560135 S    
C98   H38   1.112616 S    
C36   N28   1.313413 A    
C68   H20   1.113748 S    
N43   O22   1.298454 A    
C97   C101  1.543442 S    
N59   O53   1.299104 A    
N49   O33   1.301740 A    
C16   C24   1.371099 A    
N56   O48   1.302111 A    
N15   Ni4   1.891045 S    
C33   F37   1.355923 S    
C34   F38   1.355518 S    
N57   O50   1.301933 A    
C21   C109  1.502760 S    
C77   C95   1.520924 S    
N23   N24   1.417239 A    
N6    Ni6   1.898720 S    
C39   C48   1.386814 A    
C1    N1    1.322379 A    
C76   C82   1.583572 S    
N55   O45   1.302275 A    
C4    C20   1.390832 A    
C11   N53   1.431806 S    
N44   O23   1.300630 A    
C56   C60   1.544403 S    
C80   C94   1.523625 S    
C105  C111  1.563836 S    
C26   F34   1.351282 S    
C37   N29   1.322850 A    
N23   Ni7   1.899470 S    
C102  C109  1.589979 S    
C8    C19   1.368513 A    
C12   N54   1.431198 S    
C43   C55   1.438591 S    
C32   C44   1.381323 A    
C15   H7    1.081653 S    
C50   C58   1.542696 S    
C65   F5    1.383724 S    
C85   C89   1.582709 S    
N25   N30   1.379039 A    
C86   C94   1.553870 S    
C101  F29   1.379724 S    
N40   O15   1.299680 A    
C106  C108  1.543206 S    
C73   C83   1.585360 S    
C29   N21   1.330642 A    
C25   F33   1.349713 S    
C102  F30   1.387617 S    
C112  N57   1.488235 S    
C54   N64   1.457539 S    
C79   H31   1.114026 S    
C70   C86   1.563537 S    
C78   H26   1.110971 S    
H42   C105  1.103124 S    
N35   O6    1.301724 A    
N63   O61   1.300508 A    
C39   N31   1.323081 A    
C55   C57   1.543886 S    
N4    N7    1.393442 A    
C59   C62   1.541880 S    
N7    Ni7   1.900073 S    
C96   H36   1.099618 S    
C32   N24   1.329649 A    
C10   N10   1.318857 A    
C13   N13   1.323002 A    
C27   F35   1.351898 S    
N51   O38   1.297908 A    
N33   O1    1.300176 A    
C6    N6    1.305611 A    
C72   F10   1.384920 S    
N32   Ni3   1.913129 S    
C4    H4    1.079160 S    
C77   H29   1.114084 S    
C69   C85   1.545096 S    
C77   H25   1.108972 S    
N10   Ni5   1.917439 S    
C79   C83   1.566633 S    
C3    C19   1.379990 A    
C72   C88   1.563066 S    
C68   F8    1.386413 S    
N16   Ni3   1.892424 S    
H44   C106  1.101521 S    
N54   O43   1.297922 A    
C75   N45   1.482843 S    
C71   H23   1.110283 S    
C50   F2    1.383669 S    
N52   O39   1.299233 A    
C100  C108  1.589245 S    
N2    N5    1.393442 A    
C30   N22   1.324979 A    
N61   O58   1.299610 A    
C28   C42   1.371824 A    
C76   N46   1.486644 S    
C8    F20   1.348987 S    
C106  C112  1.562816 S    
C98   N48   1.478548 S    
C31   N23   1.326414 A    
C67   C69   1.522993 S    
C69   F11   1.386369 S    
N39   O14   1.301428 A    
C2    H2    1.079374 S    
C65   C71   1.529726 S    
C66   C72   1.521535 S    
C111  N56   1.488127 S    
C49   C53   1.521732 S    
N59   O54   1.300448 A    
N14   Ni1   1.892424 S    
C66   F6    1.386968 S    
C14   C23   1.376344 A    
C74   C84   1.583521 S    
N45   O26   1.298632 A    
C99   H39   1.112886 S    
C109  C111  1.617850 S    
N41   O18   1.301445 A    
C45   C85   1.477014 S    
C66   H18   1.105437 S    
N60   O55   1.299538 A    
C5    F17   1.350059 S    
C48   C88   1.470910 S    
C97   H37   1.115786 S    
N46   O27   1.300908 A    
C7    F19   1.349677 S    
N11   Ni8   1.913652 S    
C51   F3    1.383644 S    
C58   C61   1.541768 S    
N27   Ni8   1.902324 S    
N62   O60   1.299105 A    
N58   O51   1.299082 A    
C67   C83   1.580602 S    
C11   N11   1.319801 A    
C40   N62   1.426353 S    
C87   C91   1.581718 S    
C2    N2    1.313919 A    
C100  N50   1.470212 S    
C36   C48   1.379050 A    
C75   C81   1.585675 S    
C91   F15   1.388139 S    
N38   O12   1.301710 A    
N43   O21   1.302606 A    
C26   C41   1.367288 A    
C57   C61   1.550888 S    
C38   N60   1.429261 S    
N37   O10   1.301821 A    
N47   O30   1.300346 A    
C35   N27   1.325500 A    
N36   O7    1.302761 A    
N63   O62   1.299872 A    
C67   F7    1.382251 S    
N53   O42   1.299599 A    
C15   N15   1.327678 A    
C51   C54   1.517038 S    
C16   N16   1.322606 A    
C42   C108  1.479111 S    
C97   N47   1.471502 S    
N48   O31   1.301735 A    
C86   C90   1.589643 S    
C27   C42   1.371087 A    
C34   C46   1.381123 A    
C74   N36   1.486144 S    
C104  F32   1.380678 S    
N21   N22   1.417239 A    
C29   C43   1.381829 A    
N11   N12   1.396091 A    
C28   N20   1.324765 A    
C89   F13   1.387908 S    
