data_mof_unit_67500.cif
_audit_creation_date              2013-03-05T15:41:11-0500
_audit_creation_method            fapswitch 2.2
_symmetry_space_group_name_H-M    P1
_symmetry_Int_Tables_number       1
_space_group_crystal_system       triclinic
_cell_length_a                    15.993576
_cell_length_b                    9.063851
_cell_length_c                    7.939668
_cell_angle_alpha                 103.796704
_cell_angle_beta                  96.452368
_cell_angle_gamma                 95.665035
_cell_volume                      1101.23878063

loop_
_atom_site_label
_atom_site_type_symbol
_atom_site_description
_atom_site_fract_x
_atom_site_fract_y
_atom_site_fract_z
_atom_type_partial_charge
O1    O     O_R   0.506050 0.286130 0.619770 -0.606081
O2    O     O_R   0.490330 0.256780 0.308370 -0.595244
C1    C     C_R   0.491794 0.200852 0.454333 0.809677
O3    O     O_R   0.387300 0.514690 0.655770 -0.599612
O4    O     O_R   0.371580 0.485340 0.344370 -0.583135
C2    C     C_R   0.341041 0.495739 0.496944 0.761901
Cu1   Cu    Cu3+1 0.509300 0.517380 0.684380 0.938371
Cu2   Cu    Cu3+1 0.490700 0.482620 0.315620 0.920173
O5    O     O_R   0.509670 0.743220 0.691630 -0.580048
O6    O     O_R   0.493950 0.713870 0.380230 -0.606474
O7    O     O_R   0.628420 0.514660 0.655630 -0.561204
O8    O     O_R   0.612700 0.485310 0.344230 -0.576219
C3    C     C_R   0.498967 0.796921 0.546087 0.803347
C4    C     C_R   0.658299 0.503825 0.502035 0.795301
C5    C     C_3   0.052124 0.454267 0.649343 0.467033
C6    C     C_3   0.025360 0.378036 0.298892 0.160658
C7    C     C_3   0.926208 0.380625 0.314138 0.371028
C8    C     C_1   0.747911 0.512361 0.505338 -0.123436
C9    C     C_3   0.080521 0.487386 0.473519 -0.119999
C10   C     C_3   0.950794 0.445799 0.648177 0.292853
C11   C     C_3   0.914869 0.506855 0.489244 -0.108474
C12   C     C_3   0.966335 0.675687 0.493344 0.293069
C13   C     C_3   0.062252 0.655955 0.474832 0.083791
C14   C     C_1   0.823042 0.516578 0.500920 0.152172
C15   C     C_1   0.173505 0.481838 0.475226 0.154642
C16   C     C_1   0.249937 0.486585 0.486243 -0.128589
H1    H     H_    0.074719 0.680106 0.351645 0.179075
C17   C     C_2   0.474535 0.030779 0.435146 -0.102553
C18   C     C_2   0.495511 0.964215 0.573433 -0.107170
N1    N     N_2   0.476670 0.456430 0.038530 -0.137506
N2    N     N_2   0.523330 0.543570 0.961470 -0.218716
H2    H     H_    0.572946 0.614589 0.044778 0.213453
C19   C     C_3   0.901971 0.277120 0.628353 -0.418084
C20   C     C_3   0.864673 0.236308 0.780616 -0.159976
C21   C     C_3   0.806965 0.084275 0.734760 -0.891864
H3    H     H_    0.753301 0.081862 0.631960 0.229751
H4    H     H_    0.840920 0.988426 0.688851 0.302519
H5    H     H_    0.782601 0.067081 0.854667 0.296185
H6    H     H_    0.916221 0.236433 0.885628 0.330509
H7    H     H_    0.819282 0.318736 0.815032 0.289178
H8    H     H_    0.841784 0.264090 0.541880 0.230184
H9    H     H_    0.937546 0.184559 0.569874 0.252175
Br1   Br    Br    0.119004 0.615979 0.842186 -0.402091
Br2   Br    Br    0.917336 0.580805 0.856712 -0.436682
C22   C     C_3   0.930971 0.751160 0.345727 -0.325195
C23   C     C_3   0.844280 0.813649 0.354186 -0.307440
C24   C     C_3   0.791588 0.791740 0.174794 -0.668586
H10   H     H_    0.831365 0.825732 0.080938 0.309804
H11   H     H_    0.761698 0.671743 0.121676 0.282692
H12   H     H_    0.739550 0.864541 0.188134 0.223705
H13   H     H_    0.805068 0.768712 0.440313 0.220385
H14   H     H_    0.857285 0.938275 0.412613 0.250232
H15   H     H_    0.976780 0.851928 0.356184 0.202690
H16   H     H_    0.936872 0.684683 0.214642 0.286096
C25   C     C_3   0.425715 0.928740 0.261879 -0.376056
C26   C     C_3   0.367036 0.005011 0.153155 -0.433159
C27   C     C_3   0.303344 0.886946 0.018207 -0.762795
H17   H     H_    0.336755 0.805696 0.929855 0.269463
H18   H     H_    0.261196 0.822232 0.085126 0.284605
H19   H     H_    0.264076 0.946643 0.938391 0.287046
H20   H     H_    0.332183 0.085444 0.239020 0.230062
H21   H     H_    0.406377 0.065244 0.079325 0.240154
H22   H     H_    0.471453 0.875005 0.178350 0.217189
H23   H     H_    0.382721 0.838378 0.294101 0.238961
C28   C     C_3   0.513714 0.049169 0.767197 -0.359488
C29   C     C_3   0.608492 0.091986 0.830687 -0.373711
C30   C     C_3   0.625349 0.161776 0.027796 -0.722185
H24   H     H_    0.596491 0.269249 0.060227 0.292869
H25   H     H_    0.598789 0.080427 0.098978 0.236827
H26   H     H_    0.694506 0.188633 0.071436 0.295542
H27   H     H_    0.639824 0.986654 0.800266 0.224501
H28   H     H_    0.635441 0.175609 0.762826 0.251767
H29   H     H_    0.478763 0.145333 0.801019 0.204444
H30   H     H_    0.486416 0.977996 0.848560 0.203595
C31   C     C_3   0.400071 0.364898 0.939042 -0.082669
C32   C     C_3   0.321054 0.443324 0.973631 -0.292515
C33   C     C_3   0.254109 0.335302 0.021646 -0.765034
H31   H     H_    0.235011 0.231365 0.912146 0.286966
H32   H     H_    0.276913 0.295059 0.137365 0.233792
H33   H     H_    0.200044 0.397924 0.050169 0.318626
H34   H     H_    0.336186 0.552845 0.076366 0.244335
H35   H     H_    0.292411 0.473309 0.854681 0.246604
H36   H     H_    0.402378 0.329750 0.798644 0.185193
H37   H     H_    0.394879 0.257435 0.979706 0.131727
Br3   Br    Br    0.094967 0.276443 0.708123 -0.550319
Br4   Br    Br    0.043264 0.458469 0.103928 -0.522744
C34   C     C_3   0.058776 0.221416 0.215301 -0.274821
C35   C     C_3   0.079517 0.103611 0.314802 -0.414171
C36   C     C_3   0.093649 0.956438 0.184360 -0.691167
H38   H     H_    0.032425 0.895854 0.107598 0.316030
H39   H     H_    0.136407 0.982979 0.091639 0.278097
H40   H     H_    0.124309 0.879689 0.253422 0.269881
H41   H     H_    0.140442 0.145536 0.402844 0.269213
H42   H     H_    0.027797 0.081501 0.389034 0.282989
H43   H     H_    0.015140 0.160879 0.093545 0.291446
H44   H     H_    0.120773 0.246288 0.170834 0.217360
Br5   Br    Br    0.869353 0.167911 0.238020 -0.671686
Br6   Br    Br    0.845857 0.424781 0.139468 -0.556002
Br7   Br    Br    0.152812 0.829086 0.590043 -0.492256
Br8   Br    Br    0.970090 0.845101 0.704063 -0.446781

loop_
_geom_bond_atom_site_label_1
_geom_bond_atom_site_label_2
_geom_bond_distance
_ccdc_geom_bond_type
C13   Br7   1.991460 S    
C25   C26   1.527898 S    
C4    C8    1.424602 S    
C21   H3    1.110687 S    
C34   C35   1.512492 S    
Cu1   Cu2   2.847057 S    
C24   H11   1.105715 S    
C2    C16   1.442955 S    
C33   H31   1.108834 S    
C5    C9    1.600190 S    
C20   H7    1.101902 S    
C19   H9    1.100453 S    
C3    C18   1.487167 S    
C1    C17   1.506726 S    
C21   H4    1.081256 S    
O4    C2    1.342576 A    
O7    C4    1.344727 A    
C31   H37   1.095400 S    
C27   H18   1.109881 S    
C23   H14   1.102919 S    
C28   H29   1.078224 S    
C26   C27   1.524287 S    
C20   C21   1.522295 S    
O5    C3    1.357130 A    
C35   H41   1.108880 S    
C29   H28   1.110423 S    
C24   H10   1.110097 S    
C6    C7    1.605961 S    
C25   H22   1.112406 S    
C6    C34   1.587909 S    
C8    C14   1.203163 T    
C13   H1    1.087022 S    
C36   H39   1.110232 S    
C7    Br6   1.923706 S    
C5    Br3   1.946797 S    
C29   C30   1.523589 S    
C22   H15   1.093588 S    
C11   C12   1.655850 S    
C25   H23   1.112381 S    
C6    Br4   1.899026 S    
O3    Cu1   1.935920 S    
C10   Br2   1.971583 S    
C17   C25   1.538404 S    
Cu1   O7    1.945934 S    
C24   H12   1.110941 S    
C33   H32   1.104980 S    
C5    C10   1.613743 S    
C35   H42   1.097699 S    
C12   Br8   1.973443 S    
C30   H24   1.106377 S    
C21   H5    1.106626 S    
Cu1   N2    2.139196 S    
C32   C33   1.520895 S    
O3    C2    1.352396 A    
C32   H35   1.106995 S    
C27   H19   1.109033 S    
C15   C16   1.211455 T    
C22   C23   1.550968 S    
C23   H13   1.098000 S    
C7    C11   1.616713 S    
C28   H30   1.109332 S    
C20   H6    1.104408 S    
C34   H43   1.114642 S    
C30   H25   1.111034 S    
C9    C13   1.581505 S    
C31   C32   1.529724 S    
C29   H27   1.110226 S    
Cu2   O8    1.935922 S    
C34   H44   1.109571 S    
C19   C20   1.511941 S    
C26   H20   1.111561 S    
C10   C11   1.568947 S    
C36   H40   1.101754 S    
C18   C28   1.527905 S    
C10   C19   1.610556 S    
O8    C4    1.341650 A    
C22   H16   1.090586 S    
C26   H21   1.097853 S    
C33   H33   1.095788 S    
Cu1   O5    2.033423 S    
C23   C24   1.529899 S    
C17   C18   1.398276 D    
O1    Cu1   2.029482 S    
N2    H2    1.029404 S    
O2    Cu2   2.033423 S    
O6    C3    1.341160 A    
C32   H34   1.109652 S    
O4    Cu2   1.945934 S    
C30   H26   1.105970 S    
C19   H8    1.096474 S    
O2    C1    1.370040 A    
Cu2   N1    2.139197 S    
N1    C31   1.443042 S    
C31   H36   1.089781 S    
C27   H17   1.111532 S    
N1    N2    1.331090 D    
C6    C9    1.606238 S    
C9    C15   1.491599 S    
C5    Br1   1.972011 S    
C12   C22   1.572042 S    
C35   C36   1.535035 S    
Cu2   O6    2.029482 S    
C28   C29   1.523588 S    
C11   C14   1.491816 S    
C12   C13   1.580892 S    
O1    C1    1.337310 A    
C36   H38   1.109911 S    
C7    Br5   1.970768 S    
