data_mof_unit_10845.cif
_audit_creation_date              2012-12-11T15:08:53-0500
_audit_creation_method            fapswitch 2.2
_symmetry_space_group_name_H-M    P1
_symmetry_Int_Tables_number       1
_space_group_crystal_system       triclinic
_cell_length_a                    19.674492
_cell_length_b                    11.208694
_cell_length_c                    18.716286
_cell_angle_alpha                 89.994272
_cell_angle_beta                  90.353964
_cell_angle_gamma                 90.001598
_cell_volume                      4127.33693142

loop_
_atom_site_label
_atom_site_type_symbol
_atom_type_description
_atom_site_fract_x
_atom_site_fract_y
_atom_site_fract_z
_atom_type_partial_charge
C1    C     C_R   0.275491 0.039322 0.855840 0.531597
C2    C     C_3   0.696432 0.529569 0.956461 -0.239462
C3    C     C_R   0.226177 0.542432 0.354597 0.538728
C4    C     C_R   0.470170 0.823010 0.646231 0.543590
C5    C     C_R   0.531978 0.823036 0.355126 0.546332
C6    C     C_R   0.970170 0.323010 0.646231 0.543590
C7    C     C_R   0.031978 0.323036 0.355126 0.546332
C8    C     C_R   0.260374 0.638494 0.644427 0.537739
C9    C     C_R   0.738669 0.641328 0.356737 0.540606
C10   C     C_R   0.760374 0.138494 0.644427 0.537739
C11   C     C_R   0.238669 0.141328 0.356737 0.540606
C12   C     C_3   0.481273 0.901355 0.036244 -0.132875
C13   C     C_3   0.803568 0.029576 0.043545 -0.239521
C14   C     C_3   0.518721 0.901358 0.963744 -0.132995
C15   C     C_3   0.981272 0.401355 0.036244 -0.132875
C16   C     C_3   0.018721 0.401358 0.963744 -0.132995
C17   C     C_3   0.432428 0.801983 0.009800 -0.170995
C18   C     C_3   0.567570 0.801998 0.990199 -0.171173
C19   C     C_3   0.932427 0.301982 0.009800 -0.170995
C20   C     C_3   0.067570 0.301998 0.990199 -0.171174
C21   C     C_3   0.469132 0.806572 0.936845 0.048793
C22   C     C_3   0.530866 0.806581 0.063154 0.048611
C23   C     C_3   0.969131 0.306572 0.936845 0.048793
C24   C     C_3   0.196432 0.029569 0.956461 -0.239462
C25   C     C_3   0.030866 0.306581 0.063154 0.048611
C26   C     C_3   0.535668 0.588472 0.923833 -0.243171
C27   C     C_3   0.479633 0.498685 0.903475 -0.410004
C28   C     C_3   0.464333 0.588461 0.076185 -0.243190
C29   C     C_3   0.520371 0.498682 0.096552 -0.409876
C30   C     C_3   0.035668 0.088473 0.923833 -0.243170
C31   C     C_3   0.979633 0.998684 0.903475 -0.410003
C32   C     C_3   0.964333 0.088461 0.076186 -0.243190
C33   C     C_3   0.020371 0.998681 0.096551 -0.409876
C34   C     C_3   0.314441 0.552727 0.963987 -0.246808
C35   C     C_3   0.685559 0.552729 0.036017 -0.246869
C36   C     C_3   0.814441 0.052727 0.963987 -0.246809
C37   C     C_3   0.185559 0.052728 0.036017 -0.246868
C38   C     C_3   0.175170 0.513832 0.022968 -0.208503
C39   C     C_3   0.824828 0.513839 0.977043 -0.208476
C40   C     C_3   0.675170 0.013832 0.022968 -0.208503
C41   C     C_R   0.724510 0.039330 0.144162 0.532432
C42   C     C_3   0.324828 0.013839 0.977043 -0.208476
C43   C     C_3   0.229739 0.704506 0.054128 -0.251898
C44   C     C_3   0.770261 0.704503 0.945854 -0.251863
C45   C     C_3   0.729739 0.204506 0.054128 -0.251897
C46   C     C_3   0.270261 0.204503 0.945854 -0.251863
C47   C     C_3   0.233691 0.570086 0.068040 0.064983
C48   C     C_3   0.766308 0.570081 0.931961 0.065277
C49   C     C_3   0.733691 0.070086 0.068040 0.064983
C50   C     C_3   0.266308 0.070081 0.931961 0.065277
C51   C     C_3   0.250234 0.607022 0.930681 0.059102
C52   C     C_R   0.775491 0.539322 0.855840 0.531597
C53   C     C_3   0.749766 0.607033 0.069318 0.058808
C54   C     C_3   0.750234 0.107022 0.930681 0.059103
C55   C     C_3   0.249766 0.107033 0.069318 0.058808
C56   C     C_3   0.190637 0.520158 0.941858 -0.245161
C57   C     C_3   0.809363 0.520173 0.058153 -0.245103
C58   C     C_3   0.690637 0.020158 0.941858 -0.245161
C59   C     C_3   0.309363 0.020173 0.058153 -0.245103
C60   C     C_3   0.231404 0.723019 0.972556 -0.219776
C61   C     C_3   0.768596 0.723028 0.027424 -0.219858
C62   C     C_3   0.731404 0.223019 0.972556 -0.219776
C63   C     C_R   0.224510 0.539329 0.144162 0.532432
C64   C     C_3   0.268596 0.223027 0.027424 -0.219858
C65   C     C_3   0.508371 0.699167 0.462124 -0.227227
C66   C     C_3   0.505906 0.699356 0.542209 -0.234209
C67   C     C_3   0.008371 0.199167 0.462124 -0.227227
C68   C     C_3   0.005906 0.199356 0.542209 -0.234209
C69   C     C_R   0.441797 0.814966 0.862556 0.537852
C70   C     C_R   0.558202 0.814976 0.137443 0.538053
C71   C     C_R   0.941797 0.314966 0.862556 0.537852
C72   C     C_R   0.058202 0.314976 0.137443 0.538052
C73   C     C_3   0.562615 0.910547 0.473873 -0.214657
C74   C     C_3   0.516784 0.705715 0.963385 0.058760
C75   C     C_3   0.432811 0.883397 0.526461 -0.224581
C76   C     C_3   0.062615 0.410547 0.473873 -0.214657
C77   C     C_3   0.932811 0.383397 0.526461 -0.224581
C78   C     C_3   0.442442 0.882262 0.444477 -0.262655
C79   C     C_3   0.554324 0.902225 0.555843 -0.256117
C80   C     C_3   0.942442 0.382262 0.444477 -0.262656
C81   C     C_3   0.054325 0.402225 0.555843 -0.256117
C82   C     C_3   0.512054 0.828547 0.431615 0.064077
C83   C     C_3   0.491686 0.827588 0.570047 0.059610
C84   C     C_3   0.012054 0.328547 0.431615 0.064077
C85   C     C_3   0.483218 0.705711 0.036625 0.058764
C86   C     C_3   0.991686 0.327588 0.570047 0.059610
C87   C     C_3   0.177925 0.642448 0.460922 -0.228682
C88   C     C_3   0.815192 0.662822 0.543171 -0.236518
C89   C     C_3   0.677925 0.142448 0.460922 -0.228682
C90   C     C_3   0.315192 0.162822 0.543171 -0.236518
C91   C     C_3   0.180053 0.645873 0.540889 -0.233467
C92   C     C_3   0.813552 0.665845 0.463153 -0.226275
C93   C     C_3   0.680053 0.145873 0.540889 -0.233467
C94   C     C_3   0.313552 0.165845 0.463153 -0.226275
C95   C     C_3   0.254635 0.453953 0.472819 -0.212698
C96   C     C_3   0.016783 0.205715 0.963385 0.058760
C97   C     C_3   0.761247 0.460063 0.527294 -0.224133
C98   C     C_3   0.754635 0.953953 0.472819 -0.212698
C99   C     C_3   0.261247 0.960063 0.527294 -0.224133
C100  C     C_3   0.301168 0.649651 0.442886 -0.263363
C101  C     C_3   0.690952 0.634491 0.557148 -0.256002
C102  C     C_3   0.801168 0.149651 0.442886 -0.263363
C103  C     C_3   0.190952 0.134491 0.557148 -0.256002
C104  C     C_3   0.239334 0.571430 0.430551 0.066241
C105  C     C_3   0.759448 0.576949 0.570904 0.061621
C106  C     C_3   0.739334 0.071430 0.430551 0.066241
C107  C     C_3   0.983218 0.205711 0.036625 0.058764
C108  C     C_3   0.259448 0.076949 0.570904 0.061621
C109  C     C_3   0.250898 0.603711 0.568479 0.061368
C110  C     C_3   0.746970 0.608156 0.432922 0.067090
C111  C     C_3   0.750898 0.103711 0.568479 0.061368
C112  C     C_3   0.246970 0.108156 0.432922 0.067090
C113  C     C_3   0.255957 0.471386 0.554629 -0.258052
C114  C     C_3   0.755204 0.475588 0.445475 -0.264189
C115  C     C_3   0.755957 0.971386 0.554629 -0.258053
C116  C     C_3   0.255204 0.975588 0.445475 -0.264189
C117  C     C_R   0.261125 0.639758 0.854009 0.531548
C118  C     C_3   0.303567 0.529576 0.043545 -0.239521
C119  C     C_R   0.738873 0.639769 0.145988 0.532399
C120  C     C_R   0.761125 0.139758 0.854009 0.531548
C121  C     C_R   0.238873 0.139769 0.145988 0.532399
C122  C     C_3   0.307826 0.663845 0.524729 -0.225537
C123  C     C_3   0.681635 0.643452 0.475388 -0.214236
C124  C     C_3   0.807826 0.163845 0.524729 -0.225537
C125  C     C_3   0.181635 0.143452 0.475388 -0.214236
C126  C     C_R   0.272872 0.045407 0.646629 0.535815
C127  C     C_R   0.726177 0.042432 0.354597 0.538728
C128  C     C_R   0.772872 0.545407 0.646629 0.535815
Cr1   Cr    Cr6+3 0.229620 0.836040 0.749110 0.985810
Cr2   Cr    Cr6+3 0.613980 0.676590 0.250790 0.978281
Cr3   Cr    Cr6+3 0.886020 0.176590 0.749210 0.977457
Cr4   Cr    Cr6+3 0.113980 0.176590 0.250790 0.978281
Cr5   Cr    Cr6+3 0.770380 0.836040 0.250890 0.986615
Cr6   Cr    Cr6+3 0.729620 0.336040 0.749110 0.985810
Cr7   Cr    Cr6+3 0.270380 0.336040 0.250890 0.986615
Cr8   Cr    Cr6+3 0.387630 0.990680 0.750730 0.993330
Cr9   Cr    Cr6+3 0.612370 0.990680 0.249270 0.994210
Cr10  Cr    Cr6+3 0.887630 0.490680 0.750730 0.993330
Cr11  Cr    Cr6+3 0.112370 0.490680 0.249270 0.994210
Cr12  Cr    Cr6+3 0.386020 0.676590 0.749210 0.977457
H1    H     H_    0.378374 0.791607 0.023755 0.088229
H2    H     H_    0.726963 0.748808 0.919068 0.099457
H3    H     H_    0.221765 0.898131 0.546157 0.132758
H4    H     H_    0.304791 0.439539 0.577745 0.115295
H5    H     H_    0.710923 0.425571 0.423917 0.110714
H6    H     H_    0.804791 0.939539 0.577745 0.115295
H7    H     H_    0.210923 0.925571 0.423917 0.110714
H8    H     H_    0.315187 0.436789 0.056839 0.131185
H9    H     H_    0.684812 0.436782 0.943182 0.131201
H10   H     H_    0.815187 0.936790 0.056840 0.131185
H11   H     H_    0.184812 0.936782 0.943182 0.131201
H12   H     H_    0.337818 0.584816 0.075798 0.103889
H13   H     H_    0.773037 0.248817 0.080905 0.099729
H14   H     H_    0.662183 0.584801 0.924198 0.103763
H15   H     H_    0.837818 0.084817 0.075798 0.103889
H16   H     H_    0.162183 0.084801 0.924198 0.103763
H17   H     H_    0.356613 0.616934 0.957789 0.125965
H18   H     H_    0.643388 0.616934 0.042206 0.125881
H19   H     H_    0.856614 0.116933 0.957789 0.125965
H20   H     H_    0.143388 0.116934 0.042206 0.125880
H21   H     H_    0.327832 0.467955 0.936616 0.111144
H22   H     H_    0.672167 0.467958 0.063401 0.111241
H23   H     H_    0.827832 0.967954 0.936616 0.111144
H24   H     H_    0.226963 0.248807 0.919068 0.099457
H25   H     H_    0.172167 0.967958 0.063401 0.111241
H26   H     H_    0.663658 0.925051 0.042611 0.092584
H27   H     H_    0.336339 0.925056 0.957417 0.092688
H28   H     H_    0.163658 0.425051 0.042611 0.092584
H29   H     H_    0.836339 0.425056 0.957417 0.092689
H30   H     H_    0.703537 0.931986 0.920315 0.108032
H31   H     H_    0.296465 0.932002 0.079712 0.108270
H32   H     H_    0.203537 0.431986 0.920315 0.108032
H33   H     H_    0.796465 0.432002 0.079712 0.108270
H34   H     H_    0.468319 0.436094 0.947547 0.108919
H35   H     H_    0.266921 0.793294 0.959072 0.113508
H36   H     H_    0.431914 0.539784 0.885917 0.196435
H37   H     H_    0.498065 0.442783 0.858599 0.128310
H38   H     H_    0.563728 0.612599 0.874602 0.163744
H39   H     H_    0.567887 0.536974 0.960045 0.127863
H40   H     H_    0.531681 0.436091 0.052488 0.108876
H41   H     H_    0.568091 0.539789 0.114098 0.196385
H42   H     H_    0.501943 0.442780 0.141437 0.128643
H43   H     H_    0.436272 0.612578 0.125413 0.164134
H44   H     H_    0.432115 0.536963 0.039977 0.127800
H45   H     H_    0.968320 0.936094 0.947546 0.108920
H46   H     H_    0.733078 0.793300 0.040892 0.113427
H47   H     H_    0.931913 0.039783 0.885916 0.196433
H48   H     H_    0.998066 0.942782 0.858600 0.128310
H49   H     H_    0.063727 0.112600 0.874602 0.163744
H50   H     H_    0.067887 0.036975 0.960045 0.127862
H51   H     H_    0.031681 0.936091 0.052488 0.108876
H52   H     H_    0.068091 0.039789 0.114099 0.196385
H53   H     H_    0.001943 0.942778 0.141436 0.128642
H54   H     H_    0.936272 0.112577 0.125414 0.164134
H55   H     H_    0.932114 0.036962 0.039978 0.127800
H56   H     H_    0.766921 0.293294 0.959072 0.113508
H57   H     H_    0.233078 0.293300 0.040892 0.113427
H58   H     H_    0.179467 0.750380 0.955630 0.131558
H59   H     H_    0.820532 0.750399 0.044346 0.131525
H60   H     H_    0.679467 0.250381 0.955630 0.131558
H61   H     H_    0.621624 0.791637 0.976246 0.088234
H62   H     H_    0.320532 0.250398 0.044346 0.131524
H63   H     H_    0.627160 0.063894 0.032611 0.133869
H64   H     H_    0.372839 0.063901 0.967390 0.133894
H65   H     H_    0.127160 0.563894 0.032611 0.133869
H66   H     H_    0.872839 0.563901 0.967390 0.133894
H67   H     H_    0.144822 0.551628 0.912374 0.123506
H68   H     H_    0.855178 0.551654 0.087629 0.123727
H69   H     H_    0.644822 0.051629 0.912374 0.123506
H70   H     H_    0.355178 0.051653 0.087629 0.123727
H71   H     H_    0.549626 0.641740 0.445127 0.136670
H72   H     H_    0.878374 0.291606 0.023755 0.088229
H73   H     H_    0.467248 0.632601 0.557745 0.136058
H74   H     H_    0.049626 0.141740 0.445127 0.136670
H75   H     H_    0.967248 0.132601 0.557745 0.136058
H76   H     H_    0.462326 0.653596 0.440683 0.113672
H77   H     H_    0.554185 0.666797 0.565094 0.116489
H78   H     H_    0.962325 0.153596 0.440683 0.113672
H79   H     H_    0.054185 0.166797 0.565094 0.116489
H80   H     H_    0.615263 0.898393 0.457678 0.111297
H81   H     H_    0.392360 0.824808 0.538814 0.111923
H82   H     H_    0.115263 0.398393 0.457678 0.111297
H83   H     H_    0.121624 0.291637 0.976246 0.088234
H84   H     H_    0.892360 0.324808 0.538814 0.111923
H85   H     H_    0.599847 0.861880 0.581233 0.103210
H86   H     H_    0.402357 0.828799 0.417554 0.106112
H87   H     H_    0.099847 0.361880 0.581233 0.103210
H88   H     H_    0.902357 0.328799 0.417554 0.106113
H89   H     H_    0.466961 0.983337 0.065681 0.119244
H90   H     H_    0.533030 0.983343 0.934297 0.119143
H91   H     H_    0.966961 0.483336 0.065681 0.119244
H92   H     H_    0.033029 0.483343 0.934297 0.119143
H93   H     H_    0.439323 0.974054 0.422341 0.111136
H94   H     H_    0.182412 0.744026 0.076213 0.129077
H95   H     H_    0.546427 0.992207 0.579261 0.115212
H96   H     H_    0.939323 0.474054 0.422341 0.111136
H97   H     H_    0.046427 0.492207 0.579261 0.115212
H98   H     H_    0.422902 0.975269 0.544818 0.128359
H99   H     H_    0.548163 0.002645 0.459377 0.119589
H100  H     H_    0.922902 0.475269 0.544818 0.128359
H101  H     H_    0.048163 0.502645 0.459377 0.119589
H102  H     H_    0.128691 0.609204 0.443801 0.136740
H103  H     H_    0.867638 0.638617 0.559169 0.135615
H104  H     H_    0.628691 0.109204 0.443801 0.136740
H105  H     H_    0.817588 0.744025 0.923763 0.128984
H106  H     H_    0.367638 0.138617 0.559169 0.135615
H107  H     H_    0.178593 0.734937 0.439709 0.113121
H108  H     H_    0.806772 0.751915 0.565664 0.117052
H109  H     H_    0.678593 0.234937 0.439709 0.113121
H110  H     H_    0.306772 0.251915 0.565664 0.117052
H111  H     H_    0.165640 0.737302 0.556945 0.135606
H112  H     H_    0.823009 0.756159 0.445379 0.136700
H113  H     H_    0.665640 0.237302 0.556945 0.135606
H114  H     H_    0.323009 0.256159 0.445379 0.136700
H115  H     H_    0.140418 0.588013 0.563473 0.117539
H116  H     H_    0.682412 0.244026 0.076212 0.129077
H117  H     H_    0.858366 0.616816 0.442337 0.113276
H118  H     H_    0.640418 0.088013 0.563473 0.117539
H119  H     H_    0.358366 0.116816 0.442337 0.113276
H120  H     H_    0.721983 0.880302 0.456673 0.113502
H121  H     H_    0.311088 0.929552 0.538788 0.112250
H122  H     H_    0.221983 0.380302 0.456673 0.113502
H123  H     H_    0.811088 0.429551 0.538788 0.112250
H124  H     H_    0.713691 0.922893 0.580504 0.102565
H125  H     H_    0.301020 0.941565 0.417877 0.105022
H126  H     H_    0.213691 0.422893 0.580504 0.102565
H127  H     H_    0.317588 0.244025 0.923763 0.128984
H128  H     H_    0.801020 0.441565 0.417877 0.105022
H129  H     H_    0.347671 0.608087 0.420440 0.111451
H130  H     H_    0.650840 0.577201 0.580744 0.116120
H131  H     H_    0.847671 0.108087 0.420440 0.111451
H132  H     H_    0.150840 0.077201 0.580744 0.116120
H133  H     H_    0.294681 0.737007 0.415987 0.105244
H134  H     H_    0.688216 0.723488 0.582595 0.101978
H135  H     H_    0.794682 0.237007 0.415987 0.105244
H136  H     H_    0.188216 0.223488 0.582595 0.101978
H137  H     H_    0.300092 0.754428 0.537042 0.112328
H138  H     H_    0.273037 0.748817 0.080905 0.099729
H139  H     H_    0.660557 0.729066 0.459192 0.110864
H140  H     H_    0.800092 0.254428 0.537042 0.112328
H141  H     H_    0.160557 0.229066 0.459192 0.110864
H142  H     H_    0.358257 0.632204 0.542721 0.128374
H143  H     H_    0.643288 0.575400 0.461247 0.119534
H144  H     H_    0.858257 0.132204 0.542721 0.128374
H145  H     H_    0.143288 0.075400 0.461247 0.119534
H146  H     H_    0.307047 0.430037 0.458098 0.122361
H147  H     H_    0.721765 0.398130 0.546157 0.132758
H148  H     H_    0.807047 0.930037 0.458098 0.122360
O1    O     O_R   0.214130 0.708570 0.829890 -0.528389
O2    O     O_R   0.542830 0.717300 0.331620 -0.531769
O3    O     O_R   0.957170 0.217300 0.668380 -0.531743
O4    O     O_R   0.042830 0.217300 0.331620 -0.531769
O5    O     O_R   0.320870 0.624890 0.673130 -0.511649
O6    O     O_R   0.679130 0.624890 0.326870 -0.511954
O7    O     O_R   0.820870 0.124890 0.673130 -0.511649
O8    O     O_R   0.179130 0.124890 0.326870 -0.511954
O9    O     O_3   0.334430 0.834430 0.749680 -0.282060
O10   O     O_3   0.665570 0.834430 0.250320 -0.285321
O11   O     O_3   0.834430 0.334430 0.749680 -0.282060
O12   O     O_R   0.785870 0.708570 0.170110 -0.527860
O13   O     O_3   0.165570 0.334430 0.250320 -0.285321
O14   O     O_R   0.236050 0.959150 0.825270 -0.516251
O15   O     O_R   0.763950 0.959150 0.174730 -0.515748
O16   O     O_R   0.736050 0.459150 0.825270 -0.516251
O17   O     O_R   0.263950 0.459150 0.174730 -0.515748
O18   O     O_R   0.332100 0.076650 0.832310 -0.535684
O19   O     O_R   0.667900 0.076650 0.167690 -0.535150
O20   O     O_R   0.832100 0.576650 0.832310 -0.535684
O21   O     O_R   0.167900 0.576650 0.167690 -0.535150
O22   O     O_R   0.446500 0.918620 0.826240 -0.503714
O23   O     O_R   0.714130 0.208570 0.829890 -0.528389
O24   O     O_R   0.553500 0.918620 0.173760 -0.502943
O25   O     O_R   0.946500 0.418620 0.826240 -0.503714
O26   O     O_R   0.053500 0.418620 0.173760 -0.502942
O27   O     O_R   0.457310 0.715830 0.831280 -0.529648
O28   O     O_R   0.542690 0.715830 0.168720 -0.528934
O29   O     O_R   0.957310 0.215830 0.831280 -0.529647
O30   O     O_R   0.042690 0.215830 0.168720 -0.528934
O31   O     O_R   0.321000 0.623520 0.824130 -0.533672
O32   O     O_R   0.679000 0.623520 0.175870 -0.533192
O33   O     O_R   0.821000 0.123520 0.824130 -0.533672
O34   O     O_R   0.285870 0.208570 0.170110 -0.527859
O35   O     O_R   0.179000 0.123520 0.175870 -0.533192
O36   O     O_R   0.213990 0.710040 0.667000 -0.532331
O37   O     O_R   0.786010 0.710040 0.333000 -0.532400
O38   O     O_R   0.713990 0.210040 0.667000 -0.532331
O39   O     O_R   0.286010 0.210040 0.333000 -0.532400
O40   O     O_R   0.235920 0.960520 0.674260 -0.510767
O41   O     O_R   0.764080 0.960520 0.325740 -0.510960
O42   O     O_R   0.735920 0.460520 0.674260 -0.510767
O43   O     O_R   0.264080 0.460520 0.325740 -0.510960
O44   O     O_R   0.331960 0.078120 0.669410 -0.534338
O45   O     O_R   0.446360 0.919990 0.675230 -0.507015
O46   O     O_R   0.668040 0.078120 0.330590 -0.534536
O47   O     O_R   0.831960 0.578120 0.669410 -0.534338
O48   O     O_R   0.168040 0.578120 0.330590 -0.534536
O49   O     O_R   0.553640 0.919990 0.324770 -0.507101
O50   O     O_R   0.946360 0.419990 0.675230 -0.507015
O51   O     O_R   0.053640 0.419990 0.324770 -0.507101
O52   O     O_R   0.457170 0.717300 0.668380 -0.531743

loop_
_geom_bond_atom_site_label_1
_geom_bond_atom_site_label_2
_ccdc_geom_bond_type
C78   H86   S    
C128  O47   A    
C55   C59   S    
C35   C53   S    
C62   H56   S    
C69   O22   A    
C34   H21   S    
C41   O15   A    
C90   H110  S    
C17   C85   S    
C10   O38   A    
C37   H20   S    
C99   H3    S    
C28   H43   S    
C103  H136  S    
C73   H99   S    
C87   C91   S    
C94   H114  S    
C123  H139  S    
C8    O5    A    
C97   H147  S    
C100  C104  S    
C30   H49   S    
C30   C96   S    
Cr9   O49   S    
C46   H127  S    
C89   C106  S    
C52   O20   A    
C63   O21   A    
C119  O12   A    
C81   C86   S    
C59   H70   S    
C60   H58   S    
C97   C105  S    
C124  H144  S    
C111  C124  S    
Cr7   O39   S    
C127  O41   A    
C59   H31   S    
C41   C49   S    
C100  H129  S    
C125  H145  S    
Cr1   O14   S    
C40   C58   S    
C102  H131  S    
C19   H72   S    
Cr1   O36   S    
C117  O1    A    
C99   C116  S    
C117  O31   A    
C106  C127  S    
C17   C21   S    
Cr4   O8    S    
C15   C19   S    
C24   H11   S    
C114  H128  S    
C110  C123  S    
Cr11  O26   S    
C7    O4    A    
C78   C82   S    
C16   C20   S    
C10   C111  S    
C112  C125  S    
C44   H105  S    
C71   O25   A    
C57   H33   S    
C72   O30   A    
Cr4   O13   S    
C120  O23   A    
C42   H27   S    
C25   C107  S    
C9    C110  S    
C11   C112  S    
C67   H78   S    
C43   H94   S    
C27   H36   S    
C116  H7    S    
C37   H25   S    
C87   H107  S    
C95   H146  S    
Cr2   O6    S    
C98   C106  S    
C113  H4    S    
Cr3   O3    S    
C33   H51   S    
C66   H73   S    
C76   H101  S    
C39   H29   S    
C5    C82   S    
C65   C82   S    
C56   H67   S    
C91   H115  S    
Cr1   O9    S    
C16   H92   S    
C18   H61   S    
C14   H90   S    
C97   H123  S    
C14   C21   S    
Cr8   O18   S    
C48   C52   S    
C99   H121  S    
C20   C25   S    
C31   H47   S    
C28   C85   S    
C75   H98   S    
C108  C126  S    
C43   C47   S    
C24   H16   S    
C34   C118  S    
C55   C121  S    
C5    O49   A    
C80   H96   S    
C42   H64   S    
C61   H59   S    
C88   H103  S    
C92   H117  S    
C124  H140  S    
C12   H89   S    
C26   H39   S    
Cr7   O34   S    
C99   C108  S    
C115  H6    S    
C34   C51   S    
Cr2   O10   S    
C8    O36   A    
C66   H77   S    
Cr5   O41   S    
C15   C25   S    
C40   C49   S    
C12   C22   S    
C45   C62   S    
C22   C85   S    
C68   H75   S    
C53   C61   S    
C36   H23   S    
Cr5   O10   S    
C110  C114  S    
Cr10  O20   S    
C20   C96   S    
C4    O45   A    
C2    H14   S    
C27   H34   S    
C92   H112  S    
C24   C50   S    
Cr2   O28   S    
C29   H42   S    
Cr4   O30   S    
Cr8   O44   S    
Cr12  O5    S    
Cr5   O37   S    
Cr12  O27   S    
C87   C104  S    
C21   C69   S    
C6    O50   A    
C88   H108  S    
C31   H45   S    
C24   C37   S    
C73   C79   S    
C118  H12   S    
C42   C50   S    
C125  H141  S    
C16   C23   S    
C101  H134  S    
Cr1   O40   S    
C112  C116  S    
Cr8   O9    S    
C58   H69   S    
Cr11  O51   S    
C18   C22   S    
C114  H5    S    
C12   C14   S    
C42   C59   S    
Cr12  O9    S    
C44   C61   S    
C6    C86   S    
C28   H44   S    
C79   H95   S    
Cr9   O24   S    
C71   O29   A    
C88   C105  S    
C72   O26   A    
C98   C115  S    
C94   C112  S    
C51   C117  S    
Cr5   O12   S    
C81   H97   S    
C30   H50   S    
C74   C85   S    
C89   C93   S    
Cr8   O45   S    
C103  C125  S    
Cr11  O13   S    
C36   C54   S    
C115  H124  S    
C37   C55   S    
C34   H17   S    
C44   C48   S    
C38   C56   S    
C67   H74   S    
C51   C60   S    
C97   C114  S    
C22   C70   S    
C19   C107  S    
C2    C35   S    
Cr10  O47   S    
C38   H65   S    
C69   O27   A    
C70   O28   A    
C80   C84   S    
C5    O2    A    
C76   C84   S    
C91   H111  S    
C38   H28   S    
C57   H68   S    
C26   C27   S    
C89   H109  S    
C28   C29   S    
C13   H10   S    
C47   C63   S    
C30   C31   S    
C93   H113  S    
Cr11  O48   S    
Cr8   O22   S    
C39   H66   S    
C119  O32   A    
C17   H1    S    
C14   C18   S    
C113  H126  S    
C36   H19   S    
C66   C83   S    
C121  O35   A    
C47   C118  S    
C32   C107  S    
C4    O52   A    
C12   C17   S    
C102  H135  S    
C1    C50   S    
Cr9   O19   S    
Cr6   O23   S    
C126  O44   A    
C33   H53   S    
C128  O42   A    
C64   H57   S    
C56   H32   S    
Cr5   O15   S    
Cr3   O11   S    
C32   H55   S    
C102  C124  S    
C70   O24   A    
C90   C94   S    
C67   C68   S    
C23   C71   S    
C68   H79   S    
C53   C57   S    
C87   H102  S    
C54   C62   S    
C2    C48   S    
C73   H80   S    
C77   H84   S    
C120  O33   A    
Cr11  O21   S    
C45   C49   S    
C89   H104  S    
C80   H88   S    
C122  H142  S    
C93   C111  S    
C96   C107  S    
Cr2   O32   S    
Cr6   O42   S    
Cr3   O29   S    
C45   H13   S    
C73   C82   S    
Cr10  O25   S    
C6    O3    A    
C1    O18   A    
C77   C80   S    
Cr12  O31   S    
C27   H37   S    
C3    O43   A    
C32   C33   S    
C118  H8    S    
C35   H18   S    
C62   H60   S    
C79   C83   S    
C75   C83   S    
C4    C83   S    
C90   H106  S    
C20   H83   S    
Cr6   O11   S    
C45   H116  S    
C90   C108  S    
C93   H118  S    
C44   H2    S    
C126  O40   A    
Cr6   O38   S    
C60   H35   S    
Cr10  O11   S    
C39   C48   S    
C3    C104  S    
Cr4   O35   S    
C54   C120  S    
C68   C86   S    
C52   O16   A    
C19   C23   S    
C63   O17   A    
C92   C110  S    
C101  C123  S    
C29   H41   S    
C33   H52   S    
C58   H30   S    
Cr9   O46   S    
C109  C122  S    
C65   H76   S    
C15   C16   S    
C39   C57   S    
C23   C96   S    
C51   C56   S    
C15   H91   S    
C13   H15   S    
C95   H122  S    
C88   C92   S    
C29   H40   S    
C31   H48   S    
Cr4   O4    S    
C103  C108  S    
C40   H26   S    
C109  C113  S    
C2    H9    S    
C7    C84   S    
Cr1   O1    S    
C67   C84   S    
C18   C74   S    
C46   H24   S    
Cr9   O10   S    
Cr6   O16   S    
Cr7   O13   S    
C9    O6    A    
C98   H148  S    
C26   H38   S    
C101  C105  S    
C11   O8    A    
C35   H22   S    
Cr12  O52   S    
C13   C36   S    
C32   H54   S    
C116  H125  S    
C76   H82   S    
C21   C74   S    
C41   O19   A    
C46   C64   S    
C7    O51   A    
C77   H100  S    
C94   H119  S    
C40   H63   S    
C55   C64   S    
Cr2   O2    S    
Cr3   O7    S    
C25   C72   S    
C38   C47   S    
Cr3   O33   S    
C43   C60   S    
C13   C49   S    
C9    O37   A    
C77   C86   S    
C1    O14   A    
C11   O39   A    
C122  H137  S    
C95   C104  S    
Cr7   O17   S    
C54   C58   S    
C98   H120  S    
C64   H62   S    
Cr7   O43   S    
C81   H87   S    
C105  C128  S    
Cr10  O50   S    
C76   C81   S    
C53   C119  S    
C101  H130  S    
C46   C50   S    
C100  H133  S    
C103  H132  S    
C91   C109  S    
C123  H143  S    
C8    C109  S    
C43   H138  S    
C95   C113  S    
C78   H93   S    
C3    O48   A    
C61   H46   S    
C26   C74   S    
C127  O46   A    
C102  C106  S    
C100  C122  S    
C75   C78   S    
C65   H71   S    
C121  O34   A    
C75   H81   S    
C65   C66   S    
C111  C115  S    
C79   H85   S    
C10   O7    A    
