data_mof_unit_23476.cif
_audit_creation_date              2012-12-10T17:35:51-0500
_audit_creation_method            fapswitch 2.2
_symmetry_space_group_name_H-M    P1
_symmetry_Int_Tables_number       1
_space_group_crystal_system       triclinic
_cell_length_a                    10.490402
_cell_length_b                    11.98174
_cell_length_c                    12.903851
_cell_angle_alpha                 94.093447
_cell_angle_beta                  90.51612
_cell_angle_gamma                 86.192839
_cell_volume                      1614.20458829

loop_
_atom_site_label
_atom_site_type_symbol
_atom_type_description
_atom_site_fract_x
_atom_site_fract_y
_atom_site_fract_z
_atom_type_partial_charge
C1    C     C_R   0.498772 0.522893 0.700626 0.924702
C2    C     C_R   0.607651 0.162527 0.588334 0.028868
C3    C     C_R   0.551536 0.858702 0.542178 -0.050011
C4    C     C_R   0.448442 0.141139 0.458089 -0.026174
C5    C     C_R   0.543355 0.976004 0.535590 0.086776
C6    C     C_R   0.456855 0.023876 0.464567 0.092000
C7    C     C_R   0.742720 0.500120 0.500705 0.859707
C8    C     C_R   0.257267 0.500126 0.500414 0.846903
C9    C     C_3   0.967391 0.394566 0.507659 -0.129023
C10   C     C_3   0.032606 0.606404 0.495121 -0.140850
C11   C     C_3   0.046318 0.460236 0.589843 -0.182265
C12   C     C_R   0.499898 0.477089 0.299224 0.930132
C13   C     C_3   0.953698 0.540764 0.412947 -0.174241
C14   C     C_3   0.122242 0.500966 0.501189 0.039799
C15   C     C_3   0.877711 0.499902 0.501458 0.038486
C16   C     C_3   0.045936 0.435600 0.419091 -0.191970
C17   C     C_3   0.953864 0.565438 0.583713 -0.196437
C18   C     C_R   0.501849 0.462339 0.187151 -0.237519
C19   C     C_R   0.500605 0.537952 0.812408 -0.259515
C20   C     C_R   0.480582 0.652303 0.973807 0.388298
C21   C     C_R   0.538256 0.349338 0.026011 0.397139
C22   C     C_R   0.474108 0.643508 0.865736 0.365149
C23   C     C_R   0.526957 0.442212 0.866313 -0.295785
C24   C     C_R   0.516933 0.355743 0.133515 0.375674
C25   C     C_3   0.406798 0.200159 0.162273 0.104812
C26   C     C_3   0.281722 0.265693 0.197558 -0.407973
C27   C     C_3   0.168741 0.191816 0.184800 -0.977507
C28   C     C_3   0.310962 0.754924 0.804656 0.130294
C29   C     C_3   0.277978 0.846941 0.730905 -0.296052
C30   C     C_3   0.133731 0.869387 0.720088 -1.003053
C31   C     C_3   0.578542 0.800241 0.050545 0.090839
C32   C     C_3   0.556197 0.912342 0.113937 -0.329854
C33   C     C_3   0.681275 0.955706 0.156487 -0.969562
C34   C     C_R   0.489443 0.559451 0.133559 -0.315993
C35   C     C_3   0.689609 0.204174 0.990004 0.096322
C36   C     C_3   0.782706 0.248052 0.914049 -0.392640
C37   C     C_3   0.918002 0.196302 0.928414 -0.959692
C38   C     C_R   0.522035 0.448043 0.973044 -0.041374
C39   C     C_R   0.497662 0.553749 0.027118 -0.070775
C40   C     C_R   0.381174 0.953634 0.402187 -0.341502
C41   C     C_R   0.619048 0.046364 0.597911 -0.323177
C42   C     C_R   0.392597 0.837507 0.411549 0.012225
H1    H     H_    0.088986 0.427614 0.661658 0.134156
H2    H     H_    0.617204 0.820215 0.596426 0.141755
H3    H     H_    0.666177 0.216802 0.636208 0.122307
H4    H     H_    0.334236 0.783288 0.363466 0.135507
H5    H     H_    0.314013 0.988010 0.346732 0.138694
H6    H     H_    0.686372 0.012034 0.653331 0.148967
H7    H     H_    0.416142 0.121797 0.203519 0.158367
H8    H     H_    0.401533 0.173818 0.078157 0.177281
H9    H     H_    0.289820 0.296968 0.280207 0.232423
H10   H     H_    0.262993 0.339001 0.150222 0.212471
H11   H     H_    0.161586 0.156812 0.103051 0.272836
H12   H     H_    0.911153 0.573385 0.341086 0.133076
H13   H     H_    0.078694 0.242213 0.205133 0.263474
H14   H     H_    0.180219 0.121869 0.236818 0.260867
H15   H     H_    0.268965 0.781185 0.882268 0.162946
H16   H     H_    0.267659 0.676899 0.772809 0.112174
H17   H     H_    0.320898 0.925506 0.760436 0.228505
H18   H     H_    0.318452 0.820698 0.653100 0.242017
H19   H     H_    0.089293 0.792144 0.689112 0.263482
H20   H     H_    0.113227 0.935849 0.665397 0.271752
H21   H     H_    0.090880 0.898076 0.796617 0.265237
H22   H     H_    0.630239 0.814378 0.978011 0.152266
H23   H     H_    0.936898 0.308138 0.512747 0.144772
H24   H     H_    0.639070 0.742185 0.097187 0.135404
H25   H     H_    0.509200 0.974629 0.063719 0.220602
H26   H     H_    0.491863 0.902257 0.180149 0.229807
H27   H     H_    0.725039 0.898002 0.212467 0.268977
H28   H     H_    0.662306 0.039740 0.197497 0.288598
H29   H     H_    0.749499 0.962721 0.092360 0.251728
H30   H     H_    0.691730 0.111527 0.976604 0.173787
H31   H     H_    0.721963 0.222072 0.071717 0.159738
H32   H     H_    0.750800 0.227308 0.832990 0.224251
H33   H     H_    0.783841 0.340659 0.926969 0.220068
H34   H     H_    0.063293 0.692780 0.490059 0.146127
H35   H     H_    0.952575 0.217774 0.008497 0.268480
H36   H     H_    0.983073 0.229644 0.872464 0.268849
H37   H     H_    0.920248 0.103652 0.914114 0.262284
H38   H     H_    0.087881 0.383214 0.352152 0.138260
H39   H     H_    0.911458 0.618207 0.650537 0.130579
H40   H     H_    0.471250 0.640684 0.175053 0.228319
H41   H     H_    0.547438 0.361419 0.824614 0.232191
H42   H     H_    0.381967 0.179428 0.404616 0.128675
N1    N     N_R   0.523490 0.207800 0.519350 -0.099589
N2    N     N_R   0.476510 0.792200 0.480650 -0.109579
O1    O     O_R   0.506270 0.421700 0.658830 -0.637758
O2    O     O_3   0.445290 0.738588 0.812947 -0.620190
O3    O     O_3   0.459184 0.756461 0.026527 -0.648597
O4    O     O_3   0.562959 0.246475 0.971032 -0.668987
O5    O     O_R   0.493730 0.578300 0.341170 -0.640032
O6    O     O_R   0.491200 0.609310 0.646410 -0.581213
O7    O     O_R   0.508800 0.390690 0.353590 -0.569809
O8    O     O_R   0.693580 0.406210 0.506230 -0.631779
O9    O     O_R   0.306420 0.593790 0.493770 -0.637486
O10   O     O_R   0.678510 0.593830 0.493810 -0.624076
O11   O     O_R   0.321490 0.406170 0.506190 -0.629901
O12   O     O_3   0.516855 0.259567 0.187378 -0.637164
Zn1   Zn    Zn3+2 0.510060 0.374730 0.508290 0.951071
Zn2   Zn    Zn3+2 0.489940 0.625270 0.491710 0.937851

loop_
_geom_bond_atom_site_label_1
_geom_bond_atom_site_label_2
_ccdc_geom_bond_type
C1    O1    A    
C31   H24   S    
C40   H5    S    
C12   O5    A    
C35   C36   S    
C28   H15   S    
C7    O10   A    
C37   H37   S    
C26   C27   S    
C23   H41   S    
C24   O12   S    
C36   C37   S    
C9    C16   S    
C38   C39   A    
C11   C14   S    
C27   H13   S    
C10   C17   S    
C2    N1    A    
C42   H4    S    
C25   H8    S    
C10   H34   S    
C35   H31   S    
C21   C38   A    
C29   H17   S    
C31   O3    S    
C28   O2    S    
C11   H1    S    
C42   N2    A    
C22   O2    S    
O5    Zn2   S    
N2    Zn2   S    
O7    Zn1   S    
C17   H39   S    
C33   H27   S    
C32   H26   S    
C40   C42   A    
C30   H21   S    
C3    N2    A    
C8    O9    A    
O11   Zn1   S    
O1    Zn1   S    
C21   O4    S    
C2    H3    S    
C3    H2    S    
C1    C19   S    
C30   H19   S    
C34   C39   A    
C19   C22   A    
C18   C24   A    
C4    C6    A    
C10   C14   S    
C20   C39   A    
O9    Zn2   S    
C4    N1    A    
C25   C26   S    
C37   H35   S    
C16   H38   S    
C19   C23   A    
C8    O11   A    
C29   C30   S    
N1    Zn1   S    
C36   H33   S    
C26   H10   S    
C9    C11   S    
C31   C32   S    
C4    H42   S    
C29   H18   S    
C9    H23   S    
C18   C34   A    
C36   H32   S    
C33   H28   S    
C32   H25   S    
C20   C22   A    
C35   H30   S    
C1    O6    A    
C13   C15   S    
C14   C16   S    
C12   O7    A    
C13   C16   S    
O6    Zn2   S    
C13   H12   S    
C37   H36   S    
C15   C17   S    
C7    O8    A    
C5    C41   A    
C28   C29   S    
C8    C14   S    
C27   H14   S    
C31   H22   S    
C3    C5    A    
C10   C13   S    
C11   C17   S    
C27   H11   S    
C28   H16   S    
C23   C38   A    
C20   O3    S    
C32   C33   S    
C30   H20   S    
C9    C15   S    
C2    C41   A    
C26   H9    S    
C5    C6    A    
O8    Zn1   S    
O10   Zn2   S    
C7    C15   S    
C41   H6    S    
C6    C40   A    
C25   H7    S    
C33   H29   S    
C35   O4    S    
C25   O12   S    
C21   C24   A    
C12   C18   S    
C34   H40   S    
