data_mof_unit_11234.cif
_audit_creation_date              2013-03-05T16:09:49-0500
_audit_creation_method            fapswitch 2.2
_symmetry_space_group_name_H-M    P1
_symmetry_Int_Tables_number       1
_space_group_crystal_system       triclinic
_cell_length_a                    8.335711
_cell_length_b                    15.156212
_cell_length_c                    26.852987
_cell_angle_alpha                 97.999152
_cell_angle_beta                  94.027137
_cell_angle_gamma                 80.612405
_cell_volume                      3310.62107964

loop_
_atom_site_label
_atom_site_type_symbol
_atom_site_description
_atom_site_fract_x
_atom_site_fract_y
_atom_site_fract_z
_atom_type_partial_charge
P1    P     P_3+3 0.071950 0.575820 0.612140 0.484751
O1    O     O_2   0.906480 0.548660 0.619050 -0.379696
O2    O     O_3   0.138490 0.548590 0.558870 -0.342316
O3    O     O_3   0.686300 0.382310 0.585700 -0.362339
O4    O     O_2   0.821788 0.449463 0.671165 -0.386523
O5    O     O_3   0.045070 0.694502 0.616374 -0.561837
O6    O     O_3   0.739842 0.299136 0.677070 -0.550088
C1    C     C_3   0.596794 0.192471 0.702701 -0.322604
H1    H     H_    0.705515 0.175440 0.728024 0.202196
H2    H     H_    0.509519 0.244110 0.724256 0.212183
P2    P     P_3+3 0.664370 0.290050 0.457240 0.490480
P3    P     P_3+3 0.159679 0.221516 0.564683 0.431125
O7    O     O_2   0.844040 0.276390 0.471470 -0.418305
O8    O     O_3   0.101510 0.335500 0.560330 -0.401875
O9    O     O_2   0.028164 0.174640 0.532823 -0.380948
O10   O     O_3   0.630393 0.257560 0.391727 -0.557045
O11   O     O_3   0.135737 0.201250 0.626285 -0.520268
C2    C     C_3   0.149170 0.280209 0.659474 0.454161
H3    H     H_    0.055573 0.336153 0.649349 0.167465
H4    H     H_    0.271428 0.299723 0.658723 0.014179
C3    C     C_3   0.121316 0.265009 0.712876 -0.808030
H5    H     H_    0.012515 0.231831 0.713476 0.274857
H6    H     H_    0.227502 0.221409 0.728259 0.268263
C4    C     C_3   0.200984 0.261495 0.415455 0.269038
H7    H     H_    0.319216 0.276439 0.432599 0.104456
H8    H     H_    0.106548 0.282111 0.443411 0.113458
C5    C     C_3   0.211658 0.160328 0.396398 -0.146198
H9    H     H_    0.114497 0.149751 0.368147 0.145420
Ba1   Ba    Ba6+2 0.860050 0.456430 0.522530 1.584314
C6    C     C_3   0.932822 0.738623 0.651877 0.620590
H10   H     H_    0.826043 0.704118 0.652102 0.120736
C7    C     C_3   0.014386 0.753734 0.704175 -0.892525
H11   H     H_    0.064963 0.688739 0.717059 0.264605
H12   H     H_    0.924310 0.790612 0.731252 0.277478
H13   H     H_    0.113353 0.794351 0.703817 0.251536
C8    C     C_3   0.731697 0.283628 0.358564 0.539517
H14   H     H_    0.823344 0.322537 0.378973 0.017774
C9    C     C_3   0.816731 0.198790 0.325564 -0.490021
H15   H     H_    0.867460 0.147741 0.350358 0.141554
P4    P     P_3+3 0.117760 0.424110 0.387850 0.501785
O12   O     O_2   0.283210 0.451310 0.380920 -0.308656
O13   O     O_3   0.051220 0.451340 0.441120 -0.407540
O14   O     O_3   0.503410 0.617620 0.414290 -0.352705
O15   O     O_3   0.162525 0.306797 0.373108 -0.553616
P5    P     P_3+3 0.041746 0.782859 0.440220 0.471236
O16   O     O_3   0.617150 0.609960 0.527100 -0.386611
O17   O     O_3   0.088210 0.664420 0.439670 -0.403630
O18   O     O_2   0.184008 0.824784 0.469213 -0.353797
O19   O     O_3   0.050642 0.807478 0.378768 -0.538425
Ba2   Ba    Ba6+2 0.329780 0.543490 0.477460 1.613895
P6    P     P_3+3 0.678076 0.400106 0.651641 0.453777
C10   C     C_3   0.645785 0.232121 0.657592 0.320148
H16   H     H_    0.534791 0.257208 0.635151 0.021842
O20   O     O_3   0.572560 0.389960 0.472890 -0.358432
C11   C     C_3   0.483361 0.673795 0.631931 0.285128
H17   H     H_    0.371203 0.654860 0.611436 0.113055
H18   H     H_    0.580369 0.613982 0.628853 0.112459
C12   C     C_3   0.443635 0.703769 0.687097 -0.323041
H19   H     H_    0.396304 0.777087 0.693119 0.221244
H20   H     H_    0.349064 0.666929 0.697220 0.142196
P7    P     P_3+3 0.530154 0.722522 0.546305 0.477014
O21   O     O_2   0.345660 0.723580 0.528500 -0.334364
O22   O     O_3   0.533969 0.745115 0.612139 -0.568417
H21   H     H_    0.102698 0.330656 0.737475 0.218665
C13   C     C_3   0.044241 0.728017 0.345412 0.438871
H22   H     H_    0.149815 0.676325 0.353066 0.178854
H23   H     H_    0.930008 0.701131 0.348814 -0.024750
C14   C     C_3   0.052532 0.747264 0.291772 -0.795367
H24   H     H_    0.149925 0.788032 0.289581 0.291732
H25   H     H_    0.081034 0.682722 0.266697 0.233858
H26   H     H_    0.934777 0.784682 0.278896 0.254098
P8    P     P_3+3 0.513686 0.614515 0.349241 0.485857
C15   C     C_3   0.578982 0.768974 0.337147 0.226351
H27   H     H_    0.661532 0.735539 0.307055 0.083818
O23   O     O_2   0.383314 0.559123 0.323462 -0.381236
O24   O     O_3   0.442530 0.724815 0.336464 -0.501349
H28   H     H_    0.645282 0.769515 0.374682 0.008130
C16   C     C_3   0.527532 0.865726 0.326531 -0.052718
H29   H     H_    0.440044 0.901914 0.354601 0.165067
C17   C     C_R   0.002268 0.428960 0.175339 0.549482
O25   O     O_2   0.022429 0.359904 0.195142 -0.582988
N1    N     N_R   0.934281 0.509790 0.202005 -0.166260
C18   C     C_R   0.907690 0.587649 0.178842 0.535508
C19   C     C_2   0.746540 0.553881 0.270761 -0.154095
C20   C     C_3   0.724803 0.573713 0.326743 0.102889
C21   C     C_1   0.978401 0.474867 0.340075 0.240103
C22   C     C_2   0.019536 0.476280 0.293045 -0.214375
C23   C     C_2   0.894814 0.513653 0.254591 0.119517
C24   C     C_R   0.021318 0.504253 0.101556 -0.070255
C25   C     C_R   0.046792 0.425216 0.125032 -0.057780
C26   C     C_R   0.116664 0.344015 0.097778 -0.065906
C27   C     C_R   0.953097 0.586021 0.128954 -0.083921
C28   C     C_2   0.831174 0.507258 0.355673 -0.381096
H30   H     H_    0.142143 0.448646 0.281903 0.192907
H31   H     H_    0.136472 0.281837 0.114515 0.176064
C29   C     C_2   0.348562 0.474196 0.640948 -0.471610
C30   C     C_R   0.190990 0.418039 0.974209 0.042568
C31   C     C_R   0.056944 0.575119 0.974608 0.054708
C32   C     C_R   0.143611 0.495230 0.949054 0.093399
C33   C     C_R   0.285672 0.341899 0.948066 -0.202680
C34   C     C_R   0.326527 0.340825 0.898438 -0.069346
C35   C     C_R   0.273572 0.415200 0.872405 -0.040561
C36   C     C_R   0.180628 0.492234 0.897588 -0.078390
C37   C     C_R   0.123494 0.566207 0.871301 -0.070812
C38   C     C_R   0.165898 0.563888 0.821047 0.568468
N2    N     N_R   0.258296 0.488063 0.796352 -0.164793
C39   C     C_R   0.311187 0.413910 0.821669 0.509882
C40   C     C_2   0.455056 0.463934 0.729738 -0.170167
C41   C     C_3   0.494623 0.475070 0.676884 0.205608
C42   C     C_1   0.208151 0.516298 0.657512 0.247443
C43   C     C_2   0.169583 0.514349 0.704645 -0.307628
C44   C     C_2   0.299053 0.486942 0.744054 0.143576
O26   O     O_2   0.389807 0.346233 0.799947 -0.621621
C45   C     C_R   0.140762 0.419382 0.024165 0.059227
C46   C     C_R   0.064877 0.501692 0.050756 0.070972
C47   C     C_R   0.034585 0.581762 0.027258 -0.046249
C48   C     C_R   0.162962 0.341059 0.048594 -0.198648
H32   H     H_    0.553634 0.447460 0.757138 0.175161
H33   H     H_    0.399658 0.280749 0.880349 0.174407
H34   H     H_    0.333409 0.282413 0.965385 0.137048
H35   H     H_    0.212654 0.275510 0.030174 0.137218
O27   O     O_2   0.845695 0.658954 0.201808 -0.604456
C49   C     C_R   0.940193 0.665752 0.107106 -0.098686
H36   H     H_    0.651570 0.581037 0.244803 0.174308
H37   H     H_    0.901685 0.730230 0.129236 0.201045
C50   C     C_R   0.985581 0.643271 0.945621 -0.160398
C51   C     C_R   0.021570 0.640256 0.895468 -0.049727
O28   O     O_2   0.122829 0.630391 0.799648 -0.588548
C52   C     C_R   0.987071 0.665093 0.058156 0.160757
H38   H     H_    0.895394 0.697940 0.960704 0.167774
H39   H     H_    0.966884 0.695833 0.875409 0.184586
H40   H     H_    0.043798 0.531213 0.714870 0.206074
H41   H     H_    0.778613 0.477736 0.384000 0.152953
H42   H     H_    0.353378 0.428847 0.605827 0.158506
C53   C     C_R   0.842242 0.833184 0.468963 0.135528
C54   C     C_R   0.780123 0.926843 0.475087 -0.004879
C55   C     C_R   0.650644 0.114800 0.486359 -0.020255
C56   C     C_R   0.784723 0.079133 0.456681 -0.065029
C57   C     C_R   0.849489 0.987681 0.451976 -0.167384
C58   C     C_R   0.586207 0.208564 0.492474 0.295208
H43   H     H_    0.841715 0.120786 0.436198 0.145248
H44   H     H_    0.950962 0.964512 0.428195 0.181915
C59   C     C_R   0.447544 0.238782 0.520645 -0.531324
C60   C     C_R   0.617200 0.805643 0.515662 0.203781
C61   C     C_R   0.559961 0.899171 0.524400 -0.022906
C62   C     C_R   0.639254 0.960002 0.503116 0.050016
C63   C     C_R   0.423611 0.933365 0.553015 -0.055094
C64   C     C_R   0.362551 0.024822 0.559240 -0.111117
C65   C     C_R   0.435960 0.086470 0.537641 -0.016613
C66   C     C_R   0.576755 0.054118 0.509680 0.018465
C67   C     C_R   0.366511 0.178507 0.540725 0.165579
C68   C     C_R   0.751188 0.774177 0.485742 -0.352486
H45   H     H_    0.255156 0.046057 0.580743 0.197644
H46   H     H_    0.359687 0.890007 0.570325 0.177341
H47   H     H_    0.394559 0.309277 0.523593 0.175219
C69   C     C_1   0.748244 0.161985 0.625494 0.226110
N3    N     N_1   0.829251 0.106197 0.600586 -0.015319
I1    I     I_    0.420903 0.108044 0.357070 -0.378839
C70   C     C_1   0.198468 0.100913 0.433491 0.071835
N4    N     N_1   0.187384 0.049827 0.460710 -0.034122
I2    I     I_    0.847260 0.869291 0.630574 -0.325846
I3    I     I_    0.574370 0.362665 0.308886 -0.286655
C71   C     C_1   0.945310 0.221809 0.297251 0.176035
N5    N     N_1   0.046309 0.239132 0.274520 0.035864
C72   C     C_1   0.708688 0.154373 0.287951 0.327044
N6    N     N_1   0.626087 0.119428 0.257560 -0.019898
I4    I     I_    0.487319 0.072877 0.684211 -0.351607
I5    I     I_    0.646239 0.675862 0.738976 -0.372076
C73   C     C_1   0.671839 0.910790 0.329704 0.111097
N7    N     N_1   0.785317 0.946389 0.331896 -0.048634
I6    I     I_    0.418471 0.869568 0.252117 -0.270925
I7    I     I_    0.028052 0.794334 0.043157 -0.336937
C74   C     C_1   0.790952 0.679672 0.469591 0.269709
N8    N     N_1   0.822819 0.603445 0.456462 -0.000800

loop_
_geom_bond_atom_site_label_1
_geom_bond_atom_site_label_2
_geom_bond_distance
_ccdc_geom_bond_type
C9    C72   1.471480 S    
C32   C36   1.430062 A    
C22   C23   1.512589 S    
C24   C46   1.429845 A    
C9    C71   1.469288 S    
C72   N6    1.157729 T    
Ba1   O13   2.779678 S    
C2    C3    1.522991 S    
C73   N7    1.157229 T    
C52   I7    2.138464 S    
C63   C64   1.387683 A    
C58   C59   1.404173 A    
P8    O24   1.752643 S    
P8    C20   1.880075 S    
C53   C54   1.420354 A    
N2    C44   1.465072 S    
C74   N8    1.152946 T    
C5    I1    2.088157 S    
C18   C27   1.413316 A    
Ba2   O20   2.818582 S    
O19   C13   1.403408 S    
O1    Ba1   2.801558 S    
O7    Ba1   2.897499 S    
C8    H14   1.109017 S    
C1    I4    2.142498 S    
C4    H8    1.103791 S    
O6    C10   1.405080 S    
C2    H3    1.104586 S    
C28   H41   1.084540 S    
C65   C67   1.413852 A    
C6    H10   1.104200 S    
C57   H44   1.078479 S    
N1    C23   1.463431 S    
C49   H37   1.083510 S    
N2    C39   1.388735 Am   
C50   H38   1.077918 S    
C5    C70   1.453420 S    
C53   C68   1.400180 A    
C22   H30   1.085302 S    
C40   C41   1.517308 S    
O2    Ba1   2.941165 S    
P1    O1    1.532581 D    
C15   H27   1.110688 S    
P4    C21   1.833275 S    
P7    O22   1.752357 S    
C63   H46   1.079761 S    
C48   H35   1.077495 S    
C42   C43   1.332966 D    
C39   O26   1.220541 D    
C3    H21   1.109731 S    
C30   C32   1.418697 A    
C62   C66   1.427486 A    
C20   C28   1.494611 S    
C19   C20   1.509219 S    
C47   C52   1.425380 A    
C43   C44   1.507592 S    
C14   H24   1.106700 S    
C13   H23   1.109175 S    
C11   O22   1.403204 S    
P3    O11   1.754528 S    
Ba1   O16   2.819167 S    
C15   C16   1.519696 S    
C4    C5    1.537631 S    
C33   H34   1.077569 S    
C12   I5    2.138295 S    
C1    C10   1.532100 S    
P4    O15   1.750923 S    
O3    Ba1   2.764649 S    
P4    O13   1.548112 S    
C55   C56   1.408759 A    
P6    C41   1.858306 S    
C3    H5    1.108487 S    
C49   C52   1.395656 A    
C8    I3    2.149622 S    
P3    C67   1.866476 S    
P7    O21   1.576311 D    
P8    O23   1.547656 D    
C37   C38   1.413163 A    
C61   C63   1.403742 A    
O2    Ba2   2.780277 S    
C61   C62   1.418474 A    
O17   Ba2   2.733225 S    
Ba1   Ba2   4.618738 S    
P5    O17   1.771780 S    
C45   C48   1.414835 A    
C55   C58   1.425989 A    
P5    C53   1.883012 S    
O16   P7    1.762502 S    
P1    O5    1.764621 S    
C34   H33   1.083518 S    
C34   C35   1.402800 A    
C40   H32   1.085450 S    
C4    H7    1.102103 S    
C17   N1    1.386026 Am   
C27   C49   1.400740 A    
C21   C22   1.335534 D    
C1    H1    1.111902 S    
C29   H42   1.085974 S    
O3    P6    1.758120 S    
C12   H19   1.110204 S    
C29   C42   1.313548 D    
C16   C73   1.469064 S    
C40   C44   1.358450 D    
P1    O2    1.548109 S    
C7    H12   1.109733 S    
P2    C58   1.875968 S    
C7    H13   1.108178 S    
C54   C62   1.422771 A    
C21   C28   1.319467 D    
P1    C42   1.834316 S    
P2    O10   1.775375 S    
P7    C60   1.860423 S    
C31   C47   1.426541 A    
C70   N4    1.154388 T    
P3    O9    1.546504 D    
P5    O19   1.750812 S    
C13   C14   1.517260 S    
C11   H17   1.109333 S    
P1    Ba1   3.379105 S    
O11   C2    1.404209 S    
C35   C39   1.416143 A    
C14   H26   1.109034 S    
C64   C65   1.403943 A    
C24   C27   1.405569 A    
P2    O20   1.595393 S    
O13   Ba2   2.941922 S    
C68   C74   1.428986 S    
C1    H2    1.106400 S    
P4    O12   1.532805 D    
O5    C6    1.405455 S    
C4    O15   1.400562 S    
P3    O8    1.734420 S    
C26   C48   1.394528 A    
N1    C18   1.388561 Am   
C3    H6    1.106610 S    
Ba2   O21   2.897806 S    
C15   O24   1.408554 S    
C55   C66   1.420082 A    
C19   H36   1.085381 S    
C64   H45   1.079501 S    
O8    Ba1   2.732785 S    
O12   Ba2   2.801898 S    
C5    H9    1.085996 S    
C30   C33   1.415157 A    
C10   H16   1.111048 S    
C38   N2    1.387275 Am   
P5    O18   1.547448 D    
O14   P8    1.748578 S    
C69   N3    1.156744 T    
C59   C67   1.403974 A    
C38   O28   1.220336 D    
C16   H29   1.110179 S    
C19   C23   1.357851 D    
C17   O25   1.221242 D    
C56   H43   1.076091 S    
O14   Ba2   2.764106 S    
C45   C46   1.422797 A    
C10   C69   1.467831 S    
C29   C41   1.500147 S    
O16   Ba2   2.914599 S    
C59   H47   1.081806 S    
C60   C61   1.412316 A    
C7    H11   1.098497 S    
C11   H18   1.109926 S    
C24   C25   1.409205 A    
O6    P6    1.748616 S    
C60   C68   1.402154 A    
C65   C66   1.419558 A    
C54   C57   1.397608 A    
C6    C7    1.521209 S    
P2    O7    1.507447 D    
C25   C26   1.401723 A    
C9    H15   1.103549 S    
C37   C51   1.402219 A    
C50   C51   1.393191 A    
P4    Ba2   3.379586 S    
C8    C9    1.553956 S    
C16   I6    2.140725 S    
C2    H4    1.108746 S    
C13   H22   1.106806 S    
C18   O27   1.221649 D    
C17   C25   1.417068 A    
C35   C36   1.406936 A    
C51   H39   1.083511 S    
C71   N5    1.157232 T    
C56   C57   1.394744 A    
C26   H31   1.083537 S    
C43   H40   1.083311 S    
C31   C50   1.408892 A    
P2    Ba1   3.435551 S    
C14   H25   1.109089 S    
C31   C32   1.418401 A    
Ba1   O20   2.915444 S    
C11   C12   1.530713 S    
C36   C37   1.407445 A    
C15   H28   1.114628 S    
O4    P6    1.537700 D    
C33   C34   1.395756 A    
C6    I2    2.134300 S    
C30   C45   1.429612 A    
C12   H20   1.105904 S    
O10   C8    1.405216 S    
C46   C47   1.423153 A    
