data_mof_unit_29617.cif
_audit_creation_date              2012-12-11T16:48:24-0500
_audit_creation_method            fapswitch 2.2
_symmetry_space_group_name_H-M    P1
_symmetry_Int_Tables_number       1
_space_group_crystal_system       triclinic
_cell_length_a                    17.244577
_cell_length_b                    24.64379
_cell_length_c                    14.950415
_cell_angle_alpha                 90.280551
_cell_angle_beta                  125.470008
_cell_angle_gamma                 90.239344
_cell_volume                      5174.16243574

loop_
_atom_site_label
_atom_site_type_symbol
_atom_type_description
_atom_site_fract_x
_atom_site_fract_y
_atom_site_fract_z
_atom_type_partial_charge
C1    C     C_R   0.308852 0.379470 0.911078 0.701469
C2    C     C_R   0.549976 0.498204 0.721639 -0.098973
C3    C     C_R   0.049808 0.846171 0.908522 0.612074
C4    C     C_R   0.310833 0.363134 0.999833 -0.096619
C5    C     C_R   0.605416 0.314442 0.998771 -0.175689
C6    C     C_R   0.810606 0.863282 0.999563 -0.099843
C7    C     C_R   0.107331 0.814728 0.998507 -0.170155
C8    C     C_R   0.074665 0.998298 0.372485 -0.139458
C9    C     C_R   0.049124 0.998458 0.720653 -0.095449
C10   C     C_R   0.192460 0.497741 0.637031 -0.339252
C11   C     C_R   0.824438 0.499637 0.261758 -0.347811
C12   C     C_R   0.695347 0.997816 0.634503 -0.349467
C13   C     C_R   0.324516 0.999618 0.261992 -0.342931
C14   C     C_2   0.986155 0.461299 0.344835 0.180077
C15   C     C_2   0.086025 0.469336 0.443277 0.224917
C16   C     C_2   0.486153 0.961180 0.343899 0.177873
C17   C     C_R   0.640695 0.346752 0.088876 0.803354
C18   C     C_2   0.586685 0.969142 0.441171 0.227984
C19   C     C_2   0.926933 0.503826 0.308776 0.828704
C20   C     C_2   0.100874 0.496224 0.530979 0.845178
C21   C     C_2   0.426970 0.003746 0.308611 0.819741
C22   C     C_2   0.603140 0.996494 0.529192 0.839805
C23   C     C_R   0.196883 0.675814 0.024059 -0.193197
C24   C     C_R   0.645484 0.747208 0.902065 -0.172897
C25   C     C_R   0.699840 0.177443 0.028197 -0.159180
C26   C     C_R   0.145164 0.247609 0.900987 -0.184167
C27   C     C_R   0.264242 0.684884 0.002968 0.104350
C28   C     C_R   0.808906 0.879150 0.910689 0.701544
C29   C     C_R   0.637359 0.738988 0.988264 0.058378
C30   C     C_R   0.762631 0.184299 0.000417 -0.000698
C31   C     C_R   0.139316 0.238208 0.988414 0.057562
C32   C     C_R   0.292198 0.737891 0.998643 0.397597
C33   C     C_R   0.663976 0.781450 0.065441 0.398990
C34   C     C_R   0.778675 0.236697 0.976268 0.386490
C35   C     C_R   0.164070 0.280534 0.064870 0.403685
C36   C     C_R   0.722842 0.280263 0.971174 0.369389
C37   C     C_R   0.219221 0.325153 0.068636 0.375643
C38   C     C_R   0.236829 0.781462 0.992767 0.375095
C39   C     C_R   0.141114 0.846846 0.088673 0.799532
C40   C     C_R   0.715345 0.827084 0.064856 0.382740
C41   C     C_R   0.657893 0.270552 0.998304 0.024193
C42   C     C_R   0.238662 0.327667 0.989078 0.023306
C43   C     C_R   0.160525 0.770377 0.000215 0.033300
C44   C     C_R   0.739601 0.827181 0.989622 0.028525
C45   C     C_R   0.399433 0.624077 0.088943 0.656693
C46   C     C_R   0.552867 0.651464 0.909472 0.730945
C47   C     C_R   0.900489 0.124987 0.089648 0.713990
C48   C     C_R   0.054023 0.151080 0.909166 0.751402
C49   C     C_R   0.649822 0.219116 0.028238 0.001432
C50   C     C_R   0.313372 0.640231 0.997923 -0.077533
C51   C     C_R   0.192305 0.291804 0.899709 0.016206
C52   C     C_R   0.144990 0.718443 0.022869 0.035840
C53   C     C_R   0.695598 0.790263 0.902436 0.007272
C54   C     C_3   0.599662 0.185143 0.062639 0.712299
C55   C     C_3   0.228331 0.260799 0.843415 0.680177
C56   C     C_3   0.055186 0.685132 0.967082 0.680020
C57   C     C_3   0.735334 0.757912 0.852173 0.675428
C58   C     C_3   0.113612 0.637400 0.970085 0.711026
C59   C     C_3   0.679159 0.709794 0.851355 0.711552
C60   C     C_3   0.657864 0.136933 0.063121 0.720497
C61   C     C_R   0.612666 0.683939 0.998164 -0.069796
C62   C     C_3   0.176149 0.211457 0.846008 0.718468
C63   C     C_R   0.589954 0.445649 0.612551 -0.242068
C64   C     C_R   0.598501 0.445325 0.524977 -0.321378
C65   C     C_R   0.091392 0.945975 0.613561 -0.241821
C66   C     C_R   0.100398 0.945533 0.526276 -0.307504
C67   C     C_R   0.595440 0.494908 0.663145 0.058473
C68   C     C_R   0.614313 0.494064 0.490162 0.075543
C69   C     C_R   0.094886 0.995402 0.662475 0.053158
C70   C     C_R   0.114935 0.994367 0.490460 0.072407
C71   C     C_R   0.637229 0.540227 0.648465 0.384161
C72   C     C_R   0.813370 0.139728 0.998813 -0.165541
C73   C     C_R   0.651092 0.538649 0.563409 0.409197
C74   C     C_R   0.135879 0.040952 0.647270 0.385822
C75   C     C_R   0.150544 0.039258 0.562899 0.409572
C76   C     C_3   0.669234 0.400035 0.575150 1.245081
C77   C     C_3   0.660387 0.400451 0.668731 1.137398
C78   C     C_3   0.172773 0.901096 0.578317 1.235532
C79   C     C_3   0.163513 0.901709 0.671636 1.143640
C80   C     C_R   0.555246 0.454167 0.305434 0.725629
C81   C     C_R   0.520214 0.453922 0.751442 0.679363
C82   C     C_R   0.055282 0.954252 0.305577 0.730155
C83   C     C_R   0.114774 0.183237 0.997868 -0.079229
C84   C     C_R   0.019697 0.954064 0.750653 0.674988
C85   C     C_R   0.242275 0.543308 0.696715 0.515076
C86   C     C_R   0.768373 0.544187 0.242783 0.457287
C87   C     C_R   0.744706 0.043253 0.694862 0.525290
C88   C     C_R   0.268453 0.044185 0.243091 0.453723
C89   C     C_R   0.555442 0.543486 0.307929 0.504084
C90   C     C_R   0.515609 0.543780 0.744052 0.458468
C91   C     C_R   0.055252 0.043576 0.307776 0.501019
C92   C     C_R   0.014795 0.043927 0.743307 0.455324
C93   C     C_R   0.245191 0.453904 0.697011 0.825182
C94   C     C_R   0.574743 0.498152 0.372460 -0.142920
C95   C     C_R   0.767434 0.454477 0.242133 0.761621
C96   C     C_R   0.746173 0.953890 0.696175 0.821501
C97   C     C_R   0.267461 0.954470 0.242271 0.765487
C98   C     C_R   0.312305 0.627898 0.907458 0.478457
C99   C     C_R   0.643948 0.653104 0.089551 0.527973
C100  C     C_R   0.810829 0.125597 0.907839 0.502113
C101  C     C_R   0.144910 0.152889 0.089398 0.515529
C102  C     C_R   0.402531 0.372521 0.091192 0.455451
C103  C     C_R   0.548012 0.345904 0.908877 0.606799
C104  C     C_R   0.902061 0.872932 0.091027 0.457813
F1    F     F_    0.230152 0.378495 0.807180 -0.619529
F2    F     F_    0.743257 0.415846 0.768209 -0.675579
F3    F     F_    0.140647 0.853107 0.518294 -0.543285
F4    F     F_    0.245597 0.918289 0.770761 -0.675290
F5    F     F_    0.758921 0.414783 0.604548 -0.629471
F6    F     F_    0.621030 0.352787 0.674962 -0.571825
F7    F     F_    0.262057 0.916792 0.607660 -0.629684
F8    F     F_    0.125947 0.853713 0.679573 -0.556620
F9    F     F_    0.432325 0.637113 0.193272 -0.651839
F10   F     F_    0.481596 0.671494 0.811063 -0.684399
F11   F     F_    0.934985 0.139774 0.193680 -0.654414
F12   F     F_    0.676487 0.327269 0.190417 -0.560469
F13   F     F_    0.982524 0.171458 0.811279 -0.661598
F14   F     F_    0.598119 0.405799 0.344376 -0.601713
F15   F     F_    0.531833 0.401451 0.736936 -0.616434
F16   F     F_    0.098140 0.905888 0.344815 -0.602601
F17   F     F_    0.030561 0.901672 0.734776 -0.616877
F18   F     F_    0.237826 0.403886 0.654151 -0.588946
F19   F     F_    0.796347 0.402562 0.266411 -0.572693
F20   F     F_    0.739269 0.903725 0.654132 -0.585769
F21   F     F_    0.296392 0.902570 0.266806 -0.570204
F22   F     F_    0.730891 0.877065 0.806242 -0.615976
F23   F     F_    0.177006 0.827132 0.190084 -0.573397
F24   F     F_    0.966027 0.554690 0.333760 -0.595688
F25   F     F_    0.027341 0.518083 0.528731 -0.635562
F26   F     F_    0.465996 0.054617 0.332954 -0.606351
F27   F     F_    0.530634 0.018833 0.528425 -0.638966
F28   F     F_    0.635235 0.352507 0.513698 -0.546355
H1    H     H_    0.400220 0.781175 0.031013 0.357983
H2    H     H_    0.204435 0.252168 0.700239 0.334733
H3    H     H_    0.973622 0.650115 0.999454 0.324773
H4    H     H_    0.721073 0.747874 0.714632 0.333854
H5    H     H_    0.475782 0.153906 0.004436 0.322054
H6    H     H_    0.344396 0.234884 0.866301 0.355318
H7    H     H_    0.934578 0.675676 0.825149 0.298607
H8    H     H_    0.852836 0.727007 0.888274 0.335964
H9    H     H_    0.155676 0.607722 0.113446 0.352401
H10   H     H_    0.559389 0.720549 0.705542 0.374890
H11   H     H_    0.768343 0.143213 0.217250 0.363820
H12   H     H_    0.690722 0.796588 0.208397 0.360351
H13   H     H_    0.052630 0.221238 0.703652 0.375951
H14   H     H_    0.029090 0.597082 0.835263 0.348587
H15   H     H_    0.763819 0.649583 0.886834 0.345543
H16   H     H_    0.572045 0.075465 0.007872 0.341418
H17   H     H_    0.264063 0.153614 0.878261 0.353431
H18   H     H_    0.665077 0.617083 0.679154 0.354571
H19   H     H_    0.752205 0.592730 0.628081 0.323004
H20   H     H_    0.160943 0.118087 0.675743 0.356996
H21   H     H_    0.250332 0.094173 0.627345 0.336911
H22   H     H_    0.300735 0.606231 0.685629 0.320604
H23   H     H_    0.876263 0.281148 0.985037 0.353980
H24   H     H_    0.784699 0.605048 0.329375 0.350439
H25   H     H_    0.801856 0.110352 0.695830 0.365336
H26   H     H_    0.282868 0.105395 0.328026 0.349293
H27   H     H_    0.592216 0.614570 0.295375 0.338570
H28   H     H_    0.439425 0.606480 0.678730 0.364385
H29   H     H_    0.093601 0.114225 0.295649 0.336682
H30   H     H_    0.937484 0.106276 0.678048 0.368063
H31   H     H_    0.300544 0.666909 0.790992 0.366687
H32   H     H_    0.655953 0.651686 0.223985 0.304973
H33   H     H_    0.688280 0.155715 0.797447 0.358568
H34   H     H_    0.129654 0.314652 0.154280 0.334704
H35   H     H_    0.154990 0.152850 0.222750 0.305075
H36   H     H_    0.508459 0.338493 0.216652 0.406937
H37   H     H_    0.427918 0.352816 0.768436 0.372338
H38   H     H_    0.007199 0.838937 0.217185 0.405258
H39   H     H_    0.929138 0.852326 0.768524 0.370592
H40   H     H_    0.005054 0.384075 0.342591 0.376444
H41   H     H_    0.137596 0.431660 0.375162 0.354307
H42   H     H_    0.504515 0.883888 0.341398 0.376633
H43   H     H_    0.636341 0.930614 0.371796 0.351968
H44   H     H_    0.751213 0.329268 0.892088 0.396861
H45   H     H_    0.266753 0.348635 0.216517 0.360985
H46   H     H_    0.281236 0.833723 0.934358 0.386268
H47   H     H_    0.698748 0.874895 0.155783 0.335099
H48   H     H_    0.601089 0.170958 0.190578 0.344152
N1    N     N_R   0.395410 0.396350 0.944340 -0.167038
N2    N     N_R   0.474920 0.471030 0.794350 -0.167151
N3    N     N_R   0.025080 0.971030 0.205650 -0.164052
N4    N     N_R   0.974920 0.971030 0.794350 -0.168788
N5    N     N_R   0.320260 0.527820 0.794570 -0.175664
N6    N     N_R   0.679740 0.527820 0.205430 -0.178184
N7    N     N_R   0.820260 0.027820 0.794570 -0.172684
N8    N     N_R   0.179740 0.027820 0.205430 -0.178967
N9    N     N_R   0.524590 0.527840 0.205200 -0.175885
N10   N     N_R   0.475410 0.527840 0.794800 -0.177130
N11   N     N_R   0.024590 0.027840 0.205200 -0.179063
N12   N     N_R   0.604590 0.396350 0.055660 -0.175092
N13   N     N_R   0.975410 0.027840 0.794800 -0.178130
N14   N     N_R   0.320750 0.471000 0.795020 -0.164133
N15   N     N_R   0.679250 0.471000 0.204980 -0.140301
N16   N     N_R   0.820750 0.971000 0.795020 -0.167724
N17   N     N_R   0.179250 0.971000 0.204980 -0.141189
N18   N     N_R   0.393620 0.602490 0.942710 -0.165040
N19   N     N_R   0.606380 0.602490 0.057290 -0.170729
N20   N     N_R   0.893620 0.102490 0.942710 -0.126207
N21   N     N_R   0.106380 0.102490 0.057290 -0.175305
N22   N     N_R   0.451720 0.396350 0.057510 -0.170470
N23   N     N_R   0.895410 0.896350 0.944340 -0.167272
N24   N     N_R   0.548280 0.396350 0.942490 -0.176493
N25   N     N_R   0.951720 0.896350 0.057510 -0.170806
N26   N     N_R   0.048280 0.896350 0.942490 -0.183322
N27   N     N_R   0.104590 0.896350 0.055660 -0.172943
N28   N     N_R   0.449930 0.602500 0.055880 -0.166045
N29   N     N_R   0.550070 0.602500 0.944120 -0.156340
N30   N     N_R   0.949930 0.102500 0.055880 -0.175034
N31   N     N_R   0.050070 0.102500 0.944120 -0.160697
N32   N     N_R   0.525080 0.471030 0.205650 -0.163503
Ni1   Ni    Ni4+2 0.435420 0.434270 0.870230 0.269809
Ni2   Ni    Ni4+2 0.564580 0.434270 0.129770 0.312443
Ni3   Ni    Ni4+2 0.935420 0.934270 0.870230 0.269124
Ni4   Ni    Ni4+2 0.064580 0.934270 0.129770 0.309437
Ni5   Ni    Ni4+2 0.563430 0.564580 0.128740 0.190761
Ni6   Ni    Ni4+2 0.436570 0.564580 0.871260 0.202131
Ni7   Ni    Ni4+2 0.063430 0.064580 0.128740 0.186851
Ni8   Ni    Ni4+2 0.936570 0.064580 0.871260 0.235710
O1    O     O_3   0.371378 0.745286 0.997968 -0.712624
O2    O     O_3   0.190422 0.279952 0.737174 -0.624049
O3    O     O_3   0.022636 0.679349 0.033550 -0.689880
O4    O     O_3   0.703488 0.776148 0.747212 -0.623827
O5    O     O_3   0.501362 0.182194 0.980925 -0.714957
O6    O     O_3   0.328086 0.256602 0.909113 -0.730696
O7    O     O_3   0.984978 0.704101 0.861322 -0.677700
O8    O     O_3   0.834750 0.752987 0.923735 -0.717694
O9    O     O_3   0.125196 0.593767 0.037458 -0.715992
O10   O     O_3   0.605317 0.690713 0.745945 -0.658326
O11   O     O_3   0.724681 0.113991 0.166685 -0.707719
O12   O     O_3   0.642186 0.776675 0.140403 -0.663062
O13   O     O_3   0.100349 0.191993 0.742015 -0.659507
O14   O     O_3   0.086998 0.619924 0.866271 -0.662106
O15   O     O_3   0.736374 0.667689 0.921790 -0.712139
O16   O     O_3   0.603108 0.097582 0.981502 -0.685522
O17   O     O_3   0.236569 0.169822 0.914799 -0.713431
O18   O     O_3   0.662851 0.584724 0.716551 -0.681067
O19   O     O_3   0.703706 0.577555 0.554196 -0.648109
O20   O     O_3   0.160050 0.085778 0.714194 -0.673986
O21   O     O_3   0.202960 0.078330 0.553742 -0.644722
O22   O     O_3   0.235306 0.591182 0.646177 -0.625730
O23   O     O_3   0.849942 0.243924 0.961232 -0.690228
O24   O     O_3   0.804437 0.595231 0.281036 -0.586283
O25   O     O_3   0.740268 0.091167 0.645409 -0.617716
O26   O     O_3   0.304563 0.095188 0.281770 -0.589987
O27   O     O_3   0.589948 0.594353 0.350465 -0.596974
O28   O     O_3   0.499902 0.592916 0.694042 -0.604238
O29   O     O_3   0.089887 0.094435 0.350124 -0.597728
O30   O     O_3   0.997735 0.092916 0.692381 -0.605373
O31   O     O_3   0.256773 0.654459 0.809431 -0.613811
O32   O     O_3   0.677602 0.675590 0.189877 -0.629143
O33   O     O_3   0.743721 0.141103 0.801586 -0.654263
O34   O     O_3   0.134268 0.277426 0.132654 -0.654725
O35   O     O_3   0.177949 0.176027 0.189072 -0.618701
O36   O     O_3   0.442372 0.347239 0.190070 -0.613828
O37   O     O_3   0.476483 0.324261 0.808669 -0.618652
O38   O     O_3   0.941238 0.848226 0.190308 -0.606592
O39   O     O_3   0.978914 0.824325 0.808235 -0.580378
O40   O     O_3   0.953405 0.410515 0.297929 -0.660821
O41   O     O_3   0.161881 0.446826 0.448642 -0.692592
O42   O     O_3   0.452910 0.910408 0.297164 -0.659088
O43   O     O_3   0.661571 0.945913 0.445451 -0.690375
O44   O     O_3   0.729905 0.331928 0.940764 -0.684642
O45   O     O_3   0.259348 0.364046 0.150972 -0.681592
O46   O     O_3   0.252094 0.834272 0.975145 -0.697531
O47   O     O_3   0.744606 0.870390 0.136796 -0.680365
O48   O     O_3   0.622772 0.200952 0.165831 -0.660718

loop_
_geom_bond_atom_site_label_1
_geom_bond_atom_site_label_2
_ccdc_geom_bond_type
N26   Ni3   S    
C23   C58   S    
H39   O39   S    
C5    C103  A    
C10   C85   A    
C16   C21   D    
C65   C79   S    
C72   C100  A    
H13   O13   S    
C22   F27   S    
N13   Ni8   S    
C60   O11   S    
C93   N14   A    
N19   Ni5   S    
C82   F16   S    
C20   F25   S    
N14   Ni1   S    
H14   O14   S    
C32   O1    S    
C54   C60   S    
H34   O34   S    
C47   F11   S    
N31   Ni8   S    
N23   N25   A    
C11   C19   S    
C62   O17   S    
C79   F8    S    
C75   O21   S    
N29   Ni6   S    
C64   C68   A    
C55   O6    S    
N23   Ni3   S    
C77   F2    S    
C35   C37   A    
H20   O20   S    
C9    C69   S    
C73   O19   S    
C3    C7    A    
C90   N10   A    
C98   O31   S    
N7    N16   A    
C3    O39   S    
C43   C52   A    
C57   C59   S    
C67   C71   A    
C5    C17   A    
C81   F15   S    
C11   C86   A    
H9    O9    S    
N4    N13   A    
H36   O36   S    
C55   C62   S    
C29   C33   A    
C19   F24   S    
N28   Ni5   S    
C31   C83   S    
H7    O7    S    
C28   N23   A    
N12   Ni2   S    
C37   C42   A    
C2    C90   A    
C103  N24   A    
C85   O22   S    
N15   Ni2   S    
H5    O5    S    
H24   O24   S    
H43   O43   S    
C24   C29   A    
C57   O8    S    
C44   C53   A    
H44   O44   S    
C6    C28   A    
C23   C27   A    
N1    N22   A    
N25   Ni4   S    
C10   C20   S    
C76   F5    S    
H18   O18   S    
C102  O36   S    
C90   O28   S    
C35   O34   S    
H1    O1    S    
C78   F7    S    
N18   Ni6   S    
C25   C60   S    
C7    C43   S    
H40   O40   S    
C33   O12   S    
N5    N14   A    
C51   C55   S    
C56   O7    S    
C27   C50   S    
C89   N9    A    
C42   C51   A    
C80   N32   A    
C16   O42   S    
C64   C76   S    
C63   C77   S    
C27   C32   A    
C26   C31   A    
C62   O13   S    
C6    C44   S    
H37   O37   S    
C103  O37   S    
C36   C41   A    
C61   C99   A    
C81   N2    A    
H28   O28   S    
N10   Ni6   S    
C9    C92   A    
C41   C49   A    
H48   O48   S    
N9    Ni5   S    
C87   O25   S    
C29   C61   S    
N7    Ni8   S    
C56   C58   S    
C17   N12   A    
C85   N5    A    
C15   C20   D    
C66   C78   S    
N6    Ni5   S    
C80   F14   S    
H8    O8    S    
C33   C40   A    
C39   F23   S    
C74   C75   A    
C30   C34   A    
C46   C61   A    
N18   N28   A    
C71   O18   S    
C97   N17   A    
N6    N15   A    
C84   N4    A    
C39   N27   A    
C93   F18   S    
N21   Ni7   S    
C97   F21   S    
C2    C67   S    
N5    Ni6   S    
C50   C98   A    
N11   Ni7   S    
C71   C73   A    
N16   Ni3   S    
C98   N18   A    
N26   N27   A    
C25   C30   A    
N4    Ni3   S    
C87   N7    A    
C10   C93   A    
H2    O2    S    
C68   C73   A    
C91   N11   A    
C82   N3    A    
N20   N30   A    
N30   Ni7   S    
C89   O27   S    
C24   C53   A    
C4    C102  A    
C78   F3    S    
N19   N29   A    
C2    C81   A    
C96   N16   A    
C54   O5    S    
C15   O41   S    
H45   O45   S    
H42   O42   S    
C102  N22   A    
H17   O17   S    
C63   C67   A    
H4    O4    S    
C48   N31   A    
C88   N8    A    
N21   N31   A    
C38   C43   A    
H6    O6    S    
N12   N24   A    
C13   C21   S    
C69   C74   A    
H38   O38   S    
C8    C91   A    
C104  O38   S    
C104  N25   A    
N22   Ni2   S    
C60   O16   S    
H27   O27   S    
C84   F17   S    
N17   Ni4   S    
C55   O2    S    
H26   O26   S    
C100  N20   A    
C96   F20   S    
C16   C18   S    
N32   Ni2   S    
C92   N13   A    
C45   N28   A    
C32   C38   A    
H23   O23   S    
N20   Ni8   S    
C12   C22   S    
C31   C35   A    
H22   O22   S    
C38   O46   S    
C80   C94   A    
C100  O33   S    
C36   O44   S    
H19   O19   S    
C52   C56   S    
H21   O21   S    
C91   O29   S    
N8    Ni7   S    
C95   F19   S    
N3    Ni4   S    
C5    C41   S    
C95   N15   A    
C83   C101  A    
C12   C87   A    
C101  O35   S    
C34   O23   S    
C78   C79   S    
C3    N26   A    
H41   O41   S    
C14   C19   D    
H12   O12   S    
C59   O15   S    
C8    C82   A    
C46   F10   S    
C99   O32   S    
C58   O14   S    
N9    N32   A    
N3    N11   A    
C89   C94   A    
C56   O3    S    
C30   C72   S    
H46   O46   S    
C86   N6    A    
C48   F13   S    
C92   O30   S    
C28   F22   S    
C46   N29   A    
C68   C94   S    
H3    O3    S    
C8    C70   S    
C6    C104  A    
C48   C83   A    
H15   O15   S    
C1    C4    A    
H11   O11   S    
C18   C22   D    
C26   C62   S    
C18   O43   S    
H30   O30   S    
C58   O9    S    
C101  N21   A    
C26   C51   A    
C13   C97   A    
H29   O29   S    
C76   C77   S    
C76   F28   S    
C23   C52   A    
C66   C70   A    
C4    C42   S    
N8    N17   A    
C24   C59   S    
C65   C69   A    
N24   Ni1   S    
C13   C88   A    
H31   O31   S    
N27   Ni4   S    
C1    N1    A    
N2    Ni1   S    
C53   C57   S    
C79   F4    S    
C37   O45   S    
H33   O33   S    
C74   O20   S    
C77   F6    S    
C25   C49   A    
C21   F26   S    
H35   O35   S    
H10   O10   S    
C9    C84   A    
C88   O26   S    
C63   C64   A    
C40   O47   S    
C45   F9    S    
C40   C44   A    
C11   C95   A    
C47   C72   A    
C34   C36   A    
C86   O24   S    
C65   C66   A    
C47   N30   A    
C99   N19   A    
C70   C75   A    
C7    C39   A    
C14   C15   S    
C12   C96   A    
C54   O48   S    
N1    Ni1   S    
C45   C50   A    
N2    N10   A    
H16   O16   S    
C59   O10   S    
H25   O25   S    
C14   O40   S    
C49   C54   S    
C17   F12   S    
C1    F1    S    
H32   O32   S    
C57   O4    S    
H47   O47   S    
