data_mof_unit_61253.cif
_audit_creation_date              2012-12-10T18:45:25-0500
_audit_creation_method            fapswitch 2.2
_symmetry_space_group_name_H-M    P1
_symmetry_Int_Tables_number       1
_space_group_crystal_system       triclinic
_cell_length_a                    18.041432
_cell_length_b                    18.041281
_cell_length_c                    43.224716
_cell_angle_alpha                 90.000265
_cell_angle_beta                  89.999935
_cell_angle_gamma                 89.999818
_cell_volume                      14069.2363402

loop_
_atom_site_label
_atom_site_type_symbol
_atom_type_description
_atom_site_fract_x
_atom_site_fract_y
_atom_site_fract_z
_atom_type_partial_charge
C1    C     C_R   0.500000 0.999999 0.334344 0.546202
C2    C     C_R   0.500000 1.000000 0.868789 0.051276
C3    C     C_3   0.734883 0.298119 0.227681 0.242815
C4    C     C_3   0.298170 0.265166 0.772296 0.242767
C5    C     C_3   0.701800 0.734802 0.227719 0.242765
C6    C     C_3   0.734814 0.298188 0.772287 0.242779
C7    C     C_3   0.265091 0.701904 0.227668 0.242765
C8    C     C_R   0.517193 0.065554 0.114263 0.082372
C9    C     C_R   0.482926 0.934411 0.885739 0.082387
C10   C     C_R   0.934397 0.517011 0.114261 0.082364
C11   C     C_R   0.065599 0.482969 0.885738 0.082387
C12   C     C_R   0.482790 0.934448 0.114263 0.082360
C13   C     C_R   0.000001 0.499999 0.131211 0.051270
C14   C     C_R   0.517073 0.065587 0.885740 0.082377
C15   C     C_R   0.065605 0.482986 0.114261 0.082367
C16   C     C_R   0.934398 0.517012 0.885739 0.082391
C17   C     C_R   0.017073 0.565588 0.614261 0.082390
C18   C     C_R   0.982812 0.434445 0.385737 0.082365
C19   C     C_R   0.434417 0.017086 0.614261 0.082387
C20   C     C_R   0.565588 0.982929 0.385739 0.082373
C21   C     C_R   0.982926 0.434414 0.614260 0.082376
C22   C     C_R   0.017203 0.565553 0.385737 0.082363
C23   C     C_R   0.565588 0.982930 0.614261 0.082387
C24   C     C_R   0.999999 0.499994 0.868788 0.051277
C25   C     C_R   0.434409 0.017060 0.385739 0.082363
C26   C     C_R   0.516888 0.064586 0.081982 -0.091868
C27   C     C_R   0.483230 0.935380 0.918019 -0.091870
C28   C     C_R   0.935365 0.516700 0.081981 -0.091889
C29   C     C_R   0.064632 0.483283 0.918019 -0.091874
C30   C     C_R   0.483097 0.935413 0.081983 -0.091868
C31   C     C_R   0.516768 0.064618 0.918020 -0.091874
C32   C     C_R   0.064637 0.483297 0.081980 -0.091890
C33   C     C_R   0.935366 0.516700 0.918019 -0.091874
C34   C     C_R   0.016772 0.564618 0.581981 -0.091867
C35   C     C_R   1.000000 0.500000 0.631211 0.051277
C36   C     C_R   0.983115 0.435414 0.418017 -0.091867
C37   C     C_R   0.435387 0.016782 0.581981 -0.091870
C38   C     C_R   0.564619 0.983229 0.418019 -0.091880
C39   C     C_R   0.983228 0.435384 0.581980 -0.091873
C40   C     C_R   0.016896 0.564586 0.418017 -0.091867
C41   C     C_R   0.564617 0.983229 0.581981 -0.091872
C42   C     C_R   0.435380 0.016760 0.418019 -0.091886
C43   C     C_R   0.499994 0.999999 0.065588 -0.012457
C44   C     C_R   0.499999 0.999999 0.934414 -0.012461
C45   C     C_R   0.000001 0.499998 0.065587 -0.012457
C46   C     C_R   0.000005 0.499999 0.368788 0.051314
C47   C     C_R   1.000000 0.499993 0.934413 -0.012459
C48   C     C_R   1.000000 0.500001 0.565586 -0.012464
C49   C     C_R   0.000003 0.500001 0.434411 -0.012462
C50   C     C_R   0.500001 0.000003 0.565587 -0.012464
C51   C     C_R   0.500000 0.999996 0.434413 -0.012462
C52   C     C_3   0.155726 0.155563 0.310026 0.017982
C53   C     C_3   0.129125 0.160410 0.343343 -0.332605
C54   C     C_3   0.844258 0.844445 0.689975 0.017916
C55   C     C_3   0.870733 0.839569 0.656642 -0.332612
C56   C     C_3   0.844220 0.155942 0.310144 0.017908
C57   C     C_R   0.500002 0.000005 0.631211 0.051283
C58   C     C_3   0.839251 0.129538 0.343485 -0.332595
C59   C     C_3   0.155596 0.844214 0.689949 0.017926
C60   C     C_3   0.160492 0.870648 0.656611 -0.332619
C61   C     C_3   0.844255 0.844425 0.310034 0.017970
C62   C     C_3   0.870787 0.839559 0.343360 -0.332609
C63   C     C_3   0.155845 0.155659 0.689921 0.017854
C64   C     C_3   0.129607 0.160641 0.656560 -0.332646
C65   C     C_3   0.155854 0.843968 0.310188 0.017896
C66   C     C_3   0.160900 0.870245 0.343544 -0.332588
C67   C     C_3   0.844398 0.155787 0.689947 0.017930
C68   C     C_R   0.499999 0.999996 0.368789 0.051272
C69   C     C_3   0.839501 0.129341 0.656611 -0.332612
C70   C     C_3   0.655739 0.655557 0.810027 0.017916
C71   C     C_3   0.629202 0.660425 0.843351 -0.332607
C72   C     C_3   0.344266 0.344438 0.189972 0.017976
C73   C     C_3   0.370836 0.339577 0.156652 -0.332603
C74   C     C_3   0.344406 0.655789 0.810050 0.017919
C75   C     C_3   0.339514 0.629350 0.843388 -0.332605
C76   C     C_3   0.655786 0.343986 0.189838 0.017871
C77   C     C_3   0.660875 0.370086 0.156461 -0.332594
C78   C     C_3   0.344170 0.344343 0.810076 0.017890
C79   C     C_R   0.000002 0.500001 0.468587 0.356923
C80   C     C_3   0.370606 0.339417 0.843412 -0.332609
C81   C     C_3   0.655743 0.655572 0.189967 0.017990
C82   C     C_3   0.629180 0.660427 0.156646 -0.332595
C83   C     C_3   0.655598 0.344211 0.810052 0.017919
C84   C     C_3   0.660485 0.370679 0.843385 -0.332598
C85   C     C_3   0.344141 0.656053 0.189806 0.017881
C86   C     C_3   0.339075 0.629814 0.156444 -0.332594
C87   C     C_R   1.000000 0.500001 0.531411 0.356926
C88   C     C_R   0.500000 0.999997 0.468589 0.356922
C89   C     C_R   0.500000 0.000002 0.665656 0.546214
C90   C     C_R   0.500001 0.000001 0.531411 0.356926
C91   C     C_R   0.499998 0.999999 0.968588 0.356924
C92   C     C_R   0.499996 0.999999 0.031414 0.356920
C93   C     C_R   0.000000 0.499995 0.968588 0.356950
C94   C     C_R   0.000001 0.499998 0.031412 0.356944
C95   C     C_R   0.641545 0.141549 0.250064 0.562627
C96   C     C_R   0.358452 0.858454 0.749937 0.562612
C97   C     C_R   0.858454 0.641548 0.250063 0.562615
C98   C     C_R   0.141548 0.358454 0.749936 0.562623
C99   C     C_R   0.358456 0.858449 0.250065 0.562632
C100  C     C_R   0.000002 0.500000 0.334344 0.546236
C101  C     C_R   0.641548 0.141546 0.749937 0.562618
C102  C     C_R   0.141546 0.358451 0.250062 0.562617
C103  C     C_R   0.858455 0.641549 0.749938 0.562613
C104  C     C_R   0.141548 0.641546 0.750063 0.562613
C105  C     C_R   0.858455 0.358451 0.249936 0.562621
C106  C     C_R   0.358452 0.141546 0.750064 0.562625
C107  C     C_R   0.641546 0.858452 0.249937 0.562620
C108  C     C_R   0.858452 0.358454 0.750063 0.562617
C109  C     C_R   0.141543 0.641551 0.249935 0.562633
C110  C     C_R   0.641545 0.858450 0.750062 0.562615
C111  C     C_R   1.000000 0.500000 0.665656 0.546211
C112  C     C_R   0.358454 0.141549 0.249938 0.562616
C113  C     C_3   0.218094 0.183138 0.244671 0.029639
C114  C     C_3   0.781902 0.816861 0.755329 0.029638
C115  C     C_3   0.816881 0.218067 0.244736 0.029679
C116  C     C_3   0.183134 0.781910 0.755315 0.029646
C117  C     C_3   0.781908 0.816862 0.244676 0.029643
C118  C     C_3   0.218083 0.183134 0.755301 0.029680
C119  C     C_3   0.183116 0.781941 0.244754 0.029729
C120  C     C_3   0.816866 0.218089 0.755314 0.029644
C121  C     C_3   0.718097 0.683136 0.744672 0.029639
C122  C     C_R   1.000000 0.499998 0.834344 0.546204
C123  C     C_3   0.281905 0.316862 0.255328 0.029644
C124  C     C_3   0.316866 0.718090 0.744685 0.029643
C125  C     C_3   0.683124 0.281929 0.255264 0.029753
C126  C     C_3   0.281919 0.316870 0.744699 0.029657
C127  C     C_3   0.718093 0.683137 0.255324 0.029631
C128  C     C_3   0.683134 0.281910 0.744686 0.029639
C129  C     C_3   0.316881 0.718061 0.255245 0.029742
C130  C     C_3   0.215191 0.250278 0.222353 0.048677
C131  C     C_3   0.784807 0.749722 0.777647 0.048684
C132  C     C_3   0.749822 0.215081 0.222377 0.048655
C133  C     C_R   0.000000 0.500000 0.165656 0.546196
C134  C     C_3   0.250257 0.784833 0.777641 0.048698
C135  C     C_3   0.784817 0.749728 0.222355 0.048689
C136  C     C_3   0.215144 0.250239 0.777637 0.048688
C137  C     C_3   0.250150 0.784949 0.222384 0.048640
C138  C     C_3   0.749744 0.215167 0.777641 0.048696
C139  C     C_3   0.715191 0.750276 0.722353 0.048700
C140  C     C_3   0.284808 0.249722 0.277647 0.048673
C141  C     C_3   0.249742 0.715167 0.722358 0.048699
C142  C     C_3   0.750182 0.284915 0.277623 0.048675
C143  C     C_3   0.284858 0.249764 0.722364 0.048707
C144  C     C_R   0.500000 1.000000 0.834344 0.546211
C145  C     C_3   0.715184 0.750272 0.277645 0.048682
C146  C     C_3   0.750256 0.284833 0.722359 0.048697
C147  C     C_3   0.249847 0.715053 0.277616 0.048655
C148  C     C_3   0.198637 0.301336 0.250198 -0.002489
C149  C     C_3   0.801363 0.698664 0.749802 -0.002489
C150  C     C_3   0.698660 0.198640 0.250200 -0.002509
C151  C     C_3   0.301337 0.801362 0.749801 -0.002498
C152  C     C_3   0.801361 0.698663 0.250198 -0.002490
C153  C     C_3   0.198642 0.301342 0.749801 -0.002488
C154  C     C_3   0.301342 0.801357 0.250200 -0.002499
C155  C     C_R   0.499998 1.000000 0.165656 0.546248
C156  C     C_3   0.698663 0.198638 0.749801 -0.002496
C157  C     C_3   0.698636 0.801334 0.750198 -0.002490
C158  C     C_3   0.301362 0.198664 0.249802 -0.002487
C159  C     C_3   0.198663 0.698638 0.750199 -0.002499
C160  C     C_3   0.801343 0.301357 0.249800 -0.002501
C161  C     C_3   0.301360 0.198661 0.750199 -0.002495
C162  C     C_3   0.698639 0.801337 0.249801 -0.002489
C163  C     C_3   0.801337 0.301362 0.750198 -0.002498
C164  C     C_3   0.198656 0.698645 0.249800 -0.002497
C165  C     C_3   0.201792 0.234796 0.272278 0.242758
C166  C     C_R   0.499994 0.000001 0.131212 0.051324
C167  C     C_3   0.798206 0.765203 0.727723 0.242787
C168  C     C_3   0.765120 0.201875 0.272320 0.242746
C169  C     C_3   0.234813 0.798188 0.727713 0.242789
C170  C     C_3   0.798201 0.765198 0.272281 0.242769
C171  C     C_3   0.201833 0.234838 0.727705 0.242799
C172  C     C_3   0.234906 0.798099 0.272332 0.242758
C173  C     C_3   0.765186 0.201812 0.727713 0.242780
C174  C     C_3   0.701793 0.734794 0.772278 0.242780
C175  C     C_3   0.298207 0.265204 0.227722 0.242771
C176  C     C_3   0.265187 0.701812 0.772287 0.242791
H1    H     H_    0.530297 0.115073 0.069647 0.172319
H2    H     H_    0.969717 0.384927 0.430354 0.172317
H3    H     H_    0.384877 0.030089 0.569644 0.172312
H4    H     H_    0.615133 0.969932 0.430356 0.172312
H5    H     H_    0.969927 0.384871 0.569643 0.172312
H6    H     H_    0.030297 0.615073 0.430354 0.172314
H7    H     H_    0.615128 0.969924 0.569644 0.172316
H8    H     H_    0.384865 0.030054 0.430357 0.172310
H9    H     H_    0.213727 0.134235 0.310221 0.172821
H10   H     H_    0.119850 0.115284 0.297684 0.170926
H11   H     H_    0.070471 0.179087 0.344015 0.178452
H12   H     H_    0.469924 0.884865 0.930355 0.172318
H13   H     H_    0.133210 0.105091 0.354487 0.116891
H14   H     H_    0.163960 0.200340 0.356423 0.203234
H15   H     H_    0.880205 0.884703 0.702294 0.170853
H16   H     H_    0.786271 0.865817 0.689815 0.172801
H17   H     H_    0.835815 0.799664 0.643587 0.203301
H18   H     H_    0.866655 0.894887 0.645498 0.116879
H19   H     H_    0.929367 0.820839 0.655934 0.178538
H20   H     H_    0.865585 0.213931 0.310294 0.172861
H21   H     H_    0.884517 0.119970 0.297860 0.170783
H22   H     H_    0.820536 0.070900 0.344206 0.178615
H23   H     H_    0.884840 0.529962 0.069644 0.172312
H24   H     H_    0.894536 0.133653 0.354655 0.116985
H25   H     H_    0.799300 0.164474 0.356507 0.203284
H26   H     H_    0.115336 0.880181 0.702257 0.170842
H27   H     H_    0.134216 0.786230 0.689799 0.172806
H28   H     H_    0.200392 0.835703 0.643565 0.203288
H29   H     H_    0.105175 0.866571 0.645465 0.116903
H30   H     H_    0.179236 0.929276 0.655892 0.178569
H31   H     H_    0.786262 0.865777 0.310211 0.172803
H32   H     H_    0.880171 0.884692 0.297706 0.170924
H33   H     H_    0.929428 0.820848 0.344052 0.178496
H34   H     H_    0.115153 0.470013 0.930355 0.172315
H35   H     H_    0.866710 0.894878 0.354504 0.116888
H36   H     H_    0.835902 0.799647 0.356427 0.203239
H37   H     H_    0.119769 0.115418 0.702186 0.170826
H38   H     H_    0.213807 0.134213 0.689822 0.172789
H39   H     H_    0.164683 0.200513 0.643562 0.203321
H40   H     H_    0.133667 0.105334 0.645405 0.117016
H41   H     H_    0.071012 0.179476 0.655792 0.178702
H42   H     H_    0.134469 0.785985 0.310307 0.172864
H43   H     H_    0.115542 0.879995 0.297940 0.170753
H44   H     H_    0.179637 0.928873 0.344296 0.178681
H45   H     H_    0.469686 0.884927 0.069647 0.172318
H46   H     H_    0.105637 0.866108 0.354731 0.117097
H47   H     H_    0.200866 0.835246 0.356528 0.203292
H48   H     H_    0.884664 0.119829 0.702256 0.170832
H49   H     H_    0.865771 0.213774 0.689793 0.172822
H50   H     H_    0.799591 0.164273 0.643564 0.203289
H51   H     H_    0.894814 0.133424 0.645462 0.116950
H52   H     H_    0.820769 0.070709 0.655895 0.178548
H53   H     H_    0.713736 0.634211 0.810204 0.172812
H54   H     H_    0.619830 0.615284 0.797697 0.170854
H55   H     H_    0.570555 0.679116 0.844040 0.178505
H56   H     H_    0.530074 0.115132 0.930356 0.172317
H57   H     H_    0.633297 0.605112 0.854498 0.116873
H58   H     H_    0.664072 0.700355 0.856415 0.203292
H59   H     H_    0.380160 0.384714 0.202307 0.170939
H60   H     H_    0.286268 0.365776 0.189785 0.172815
H61   H     H_    0.335977 0.299654 0.143578 0.203229
H62   H     H_    0.366758 0.394894 0.145507 0.116923
H63   H     H_    0.429482 0.320880 0.155972 0.178475
H64   H     H_    0.365782 0.713774 0.810202 0.172805
H65   H     H_    0.384667 0.619826 0.797741 0.170836
H66   H     H_    0.320776 0.570720 0.844106 0.178587
H67   H     H_    0.115162 0.470035 0.069644 0.172311
H68   H     H_    0.394831 0.633430 0.854534 0.116894
H69   H     H_    0.299611 0.664289 0.856435 0.203303
H70   H     H_    0.615494 0.380105 0.202052 0.170763
H71   H     H_    0.634345 0.286023 0.189768 0.172808
H72   H     H_    0.700814 0.334979 0.143512 0.203348
H73   H     H_    0.605613 0.365949 0.145271 0.117153
H74   H     H_    0.679676 0.428688 0.155659 0.178756
H75   H     H_    0.286184 0.365720 0.810229 0.172825
H76   H     H_    0.380136 0.384614 0.797773 0.170830
H77   H     H_    0.429235 0.320676 0.844126 0.178598
H78   H     H_    0.884844 0.529968 0.930356 0.172318
H79   H     H_    0.366525 0.394722 0.854567 0.116950
H80   H     H_    0.335666 0.299499 0.856450 0.203284
H81   H     H_    0.619841 0.615305 0.202303 0.170952
H82   H     H_    0.713738 0.634226 0.189783 0.172821
H83   H     H_    0.664053 0.700333 0.143571 0.203212
H84   H     H_    0.633242 0.605104 0.145505 0.116931
H85   H     H_    0.570539 0.679141 0.155963 0.178493
H86   H     H_    0.634234 0.286222 0.810212 0.172818
H87   H     H_    0.615330 0.380157 0.797738 0.170824
H88   H     H_    0.679204 0.429316 0.844095 0.178560
H89   H     H_    0.030072 0.615131 0.569644 0.172314
H90   H     H_    0.605170 0.366592 0.854533 0.116912
H91   H     H_    0.700399 0.335764 0.856437 0.203304
H92   H     H_    0.384462 0.620014 0.202043 0.170749
H93   H     H_    0.365525 0.714036 0.189696 0.172855
H94   H     H_    0.299112 0.664837 0.143471 0.203307
H95   H     H_    0.394336 0.633953 0.145255 0.117131
H96   H     H_    0.320322 0.571191 0.155684 0.178738
I1    I     I_    0.157407 0.251973 0.179084 -0.198013
I2    I     I_    0.342594 0.248037 0.320914 -0.197950
I3    I     I_    0.248084 0.657350 0.679098 -0.197995
I4    I     I_    0.751712 0.342867 0.320853 -0.197869
I5    I     I_    0.342716 0.248125 0.679113 -0.198066
I6    I     I_    0.657387 0.751952 0.320910 -0.197982
I7    I     I_    0.751913 0.342651 0.679098 -0.197964
I8    I     I_    0.248350 0.657048 0.320834 -0.197941
I9    I     I_    0.173392 0.075730 0.234151 -0.202375
I10   I     I_    0.826616 0.924267 0.765842 -0.202554
I11   I     I_    0.924320 0.173302 0.234315 -0.202636
I12   I     I_    0.842591 0.748032 0.820916 -0.198011
I13   I     I_    0.075720 0.826638 0.765807 -0.202579
I14   I     I_    0.826622 0.924271 0.234165 -0.202410
I15   I     I_    0.173315 0.075722 0.765761 -0.202606
I16   I     I_    0.075670 0.826738 0.234372 -0.202643
I17   I     I_    0.924280 0.173361 0.765806 -0.202559
I18   I     I_    0.673390 0.575728 0.734155 -0.202544
I19   I     I_    0.326610 0.424270 0.265846 -0.202344
I20   I     I_    0.424279 0.673363 0.734192 -0.202580
I21   I     I_    0.575691 0.326737 0.265659 -0.202587
I22   I     I_    0.326661 0.424286 0.734225 -0.202598
I23   I     I_    0.748288 0.157123 0.179148 -0.198082
I24   I     I_    0.673385 0.575728 0.265838 -0.202357
I25   I     I_    0.575720 0.326635 0.734192 -0.202568
I26   I     I_    0.424324 0.673253 0.265625 -0.202623
I27   I     I_    0.546902 0.170496 0.133496 -0.316877
I28   I     I_    0.453429 0.829402 0.866511 -0.316540
I29   I     I_    0.829362 0.546434 0.133486 -0.316576
I30   I     I_    0.170618 0.453503 0.866512 -0.316606
I31   I     I_    0.453055 0.829515 0.133497 -0.316888
I32   I     I_    0.546575 0.170596 0.866512 -0.316579
I33   I     I_    0.170640 0.453568 0.133486 -0.316608
I34   I     I_    0.251914 0.842650 0.820902 -0.197995
I35   I     I_    0.829368 0.546450 0.866514 -0.316464
I36   I     I_    0.046570 0.670596 0.633488 -0.316538
I37   I     I_    0.953111 0.329501 0.366505 -0.316707
I38   I     I_    0.329419 0.046613 0.633489 -0.316667
I39   I     I_    0.670600 0.953440 0.366512 -0.316572
I40   I     I_    0.953426 0.329406 0.633487 -0.316585
I41   I     I_    0.046927 0.670487 0.366504 -0.316856
I42   I     I_    0.670596 0.953431 0.633488 -0.316471
I43   I     I_    0.329392 0.046533 0.366513 -0.316568
I44   I     I_    0.842611 0.748038 0.179089 -0.198004
I45   I     I_    0.157288 0.251879 0.820888 -0.198020
I46   I     I_    0.251641 0.842965 0.179168 -0.197973
I47   I     I_    0.748090 0.157349 0.820902 -0.197956
I48   I     I_    0.657409 0.751957 0.679085 -0.197976
N1    N     N_R   0.483446 0.937441 0.015388 -0.208451
N2    N     N_R   0.016796 0.562492 0.484612 -0.208452
N3    N     N_R   0.562490 0.983205 0.515387 -0.208446
N4    N     N_R   0.437510 0.016792 0.484613 -0.208454
N5    N     N_R   0.016795 0.562492 0.515386 -0.208446
N6    N     N_R   0.983206 0.437511 0.484612 -0.208451
N7    N     N_R   0.437511 0.016795 0.515387 -0.208452
N8    N     N_R   0.562490 0.983203 0.484613 -0.208450
N9    N     N_R   0.516547 0.062556 0.984614 -0.208447
N10   N     N_R   0.062656 0.483825 0.015387 -0.208468
N11   N     N_R   0.937345 0.516168 0.984613 -0.208461
N12   N     N_R   0.516547 0.062556 0.015388 -0.208453
N13   N     N_R   0.483447 0.937441 0.984614 -0.208445
N14   N     N_R   0.937345 0.516169 0.015387 -0.208466
N15   N     N_R   0.062656 0.483824 0.984612 -0.208465
N16   N     N_R   0.983206 0.437511 0.515386 -0.208447
O1    O     O_3   0.500000 1.000000 0.250000 -0.493196
O2    O     O_R   0.438450 0.000020 0.680680 -0.505078
O3    O     O_R   0.000020 0.561550 0.319320 -0.505097
O4    O     O_R   0.999980 0.438450 0.680680 -0.505087
O5    O     O_R   0.938450 0.500020 0.819320 -0.505082
O6    O     O_R   0.061550 0.499980 0.180680 -0.505076
O7    O     O_R   0.499980 0.938450 0.819320 -0.505085
O8    O     O_R   0.500020 0.061550 0.180680 -0.505090
O9    O     O_R   0.061550 0.499980 0.819320 -0.505081
O10   O     O_R   0.938450 0.500020 0.180680 -0.505081
O11   O     O_R   0.500020 0.061550 0.819320 -0.505086
O12   O     O_3   0.500000 0.000000 0.750000 -0.493198
O13   O     O_R   0.499980 0.938450 0.180680 -0.505098
O14   O     O_R   0.648010 0.086580 0.268180 -0.478230
O15   O     O_R   0.351990 0.913420 0.731820 -0.478216
O16   O     O_R   0.913420 0.648010 0.268180 -0.478199
O17   O     O_R   0.086580 0.351990 0.731820 -0.478220
O18   O     O_R   0.351990 0.913420 0.268180 -0.478239
O19   O     O_R   0.648010 0.086580 0.731820 -0.478221
O20   O     O_R   0.086580 0.351990 0.268180 -0.478200
O21   O     O_R   0.913420 0.648010 0.731820 -0.478211
O22   O     O_R   0.148010 0.586580 0.768180 -0.478210
O23   O     O_3   1.000000 0.500000 0.250000 -0.493199
O24   O     O_R   0.851990 0.413420 0.231820 -0.478238
O25   O     O_R   0.413420 0.148010 0.768180 -0.478217
O26   O     O_R   0.586580 0.851990 0.231820 -0.478202
O27   O     O_R   0.851990 0.413420 0.768180 -0.478215
O28   O     O_R   0.148010 0.586580 0.231820 -0.478235
O29   O     O_R   0.586580 0.851990 0.768180 -0.478209
O30   O     O_R   0.413420 0.148010 0.231820 -0.478204
O31   O     O_R   0.413460 0.851950 0.231830 -0.530551
O32   O     O_R   0.586540 0.148050 0.768170 -0.530574
O33   O     O_R   0.148050 0.413460 0.231830 -0.530584
O34   O     O_3   1.000000 0.500000 0.750000 -0.493200
O35   O     O_R   0.851950 0.586540 0.768170 -0.530578
O36   O     O_R   0.586540 0.148050 0.231830 -0.530563
O37   O     O_R   0.413460 0.851950 0.768170 -0.530574
O38   O     O_R   0.851950 0.586540 0.231830 -0.530579
O39   O     O_R   0.148050 0.413460 0.768170 -0.530570
O40   O     O_R   0.913460 0.351950 0.731830 -0.530572
O41   O     O_R   0.086540 0.648050 0.268170 -0.530547
O42   O     O_R   0.648050 0.913460 0.731830 -0.530578
O43   O     O_R   0.351950 0.086540 0.268170 -0.530581
O44   O     O_R   0.086540 0.648050 0.731830 -0.530573
O45   O     O_R   0.438450 0.000020 0.319320 -0.505082
O46   O     O_R   0.913460 0.351950 0.268170 -0.530548
O47   O     O_R   0.351950 0.086540 0.731830 -0.530572
O48   O     O_R   0.648050 0.913460 0.268170 -0.530582
O49   O     O_3   0.148700 0.225867 0.296005 -0.504568
O50   O     O_3   0.851294 0.774141 0.703995 -0.504568
O51   O     O_3   0.773958 0.148878 0.296090 -0.504583
O52   O     O_3   0.225894 0.851254 0.703975 -0.504559
O53   O     O_3   0.851284 0.774122 0.296012 -0.504560
O54   O     O_3   0.148788 0.225943 0.703960 -0.504594
O55   O     O_3   0.226089 0.851069 0.296114 -0.504601
O56   O     O_R   0.561550 0.999980 0.680680 -0.505087
O57   O     O_3   0.774103 0.148745 0.703975 -0.504578
O58   O     O_3   0.648702 0.725858 0.796004 -0.504568
O59   O     O_3   0.351297 0.274136 0.203995 -0.504577
O60   O     O_3   0.274107 0.648747 0.796025 -0.504550
O61   O     O_3   0.726020 0.351115 0.203913 -0.504597
O62   O     O_3   0.351216 0.274057 0.796041 -0.504589
O63   O     O_3   0.648719 0.725878 0.203987 -0.504575
O64   O     O_3   0.725895 0.351254 0.796026 -0.504562
O65   O     O_3   0.273913 0.648932 0.203887 -0.504592
O66   O     O_R   0.999980 0.438450 0.319320 -0.505100
O67   O     O_R   0.000020 0.561550 0.680680 -0.505084
O68   O     O_R   0.561550 0.999980 0.319320 -0.505080
Zn1   Zn    Zn3+2 0.499980 0.087890 0.224030 1.024506
Zn2   Zn    Zn3+2 0.000020 0.412110 0.275970 1.024507
Zn3   Zn    Zn3+2 0.412110 0.999980 0.724030 1.024506
Zn4   Zn    Zn3+2 0.587890 0.000020 0.275970 1.024492
Zn5   Zn    Zn3+2 0.000020 0.412110 0.724030 1.024496
Zn6   Zn    Zn3+2 0.999980 0.587890 0.275970 1.024510
Zn7   Zn    Zn3+2 0.587890 0.000020 0.724030 1.024500
Zn8   Zn    Zn3+2 0.412110 0.999980 0.275970 1.024489
Zn9   Zn    Zn3+2 0.500020 0.912110 0.775970 1.024499
Zn10  Zn    Zn3+2 0.912110 0.499980 0.224030 1.024495
Zn11  Zn    Zn3+2 0.087890 0.500020 0.775970 1.024507
Zn12  Zn    Zn3+2 0.500020 0.912110 0.224030 1.024509
Zn13  Zn    Zn3+2 0.499980 0.087890 0.775970 1.024496
Zn14  Zn    Zn3+2 0.087890 0.500020 0.224030 1.024493
Zn15  Zn    Zn3+2 0.912110 0.499980 0.775970 1.024503
Zn16  Zn    Zn3+2 0.999980 0.587890 0.724030 1.024501

loop_
_geom_bond_atom_site_label_1
_geom_bond_atom_site_label_2
_ccdc_geom_bond_type
C103  O35   A    
C111  O67   A    
C78   H76   S    
C32   C45   A    
C100  O3    A    
C122  O5    A    
C174  O58   S    
C98   O17   A    
C99   O31   A    
C29   H34   S    
C112  C158  S    
C91   N13   A    
C73   H63   S    
C147  C164  S    
C129  C154  S    
C60   H29   S    
N2    N5    A    
C176  O60   S    
C6    O64   S    
C126  C143  S    
C143  I5    S    
C1    C68   S    
C132  C150  S    
O8    Zn1   S    
C71   H58   S    
C19   C37   A    
C120  C163  S    
O33   Zn14  S    
C117  C170  S    
C50   C90   S    
C171  O54   S    
C104  O44   A    
C53   H14   S    
O34   Zn5   S    
O45   Zn8   S    
C66   H46   S    
O43   Zn8   S    
C59   C60   S    
C102  O33   A    
C110  O42   A    
C148  C165  S    
C120  I17   S    
C107  O26   A    
C156  C173  S    
C82   H84   S    
C15   C32   A    
C116  C159  S    
O41   Zn6   S    
C7    C137  S    
C139  I48   S    
O28   Zn14  S    
C72   H60   S    
C84   H91   S    
O12   Zn9   S    
C7    O65   S    
O10   Zn10  S    
O13   Zn12  S    
C114  C157  S    
C152  C170  S    
O4    Zn5   S    
C92   N12   A    
C107  C162  S    
C150  C168  S    
C82   H85   S    
C141  C169  S    
C47   C93   S    
C48   C87   S    
C79   N6    A    
C130  I1    S    
C139  C167  S    
C118  I15   S    
C110  C157  S    
C134  C176  S    
C127  C145  S    
C1    O45   A    
C33   C47   A    
C30   C43   A    
C131  C149  S    
O15   Zn3   S    
C17   C34   A    
C104  C159  S    
C117  C135  S    
C105  O24   A    
C118  C136  S    
C92   N1    A    
C140  C165  S    
C145  C170  S    
O23   Zn14  S    
C80   H80   S    
C13   C133  S    
C20   C68   A    
O21   Zn16  S    
C100  O66   A    
C72   C73   S    
C124  I20   S    
C64   H39   S    
O22   Zn11  S    
C132  I23   S    
O23   Zn10  S    
C21   C35   A    
O1    Zn4   S    
C23   C41   A    
C115  C160  S    
C96   O15   A    
C42   H8    S    
C136  C153  S    
O34   Zn15  S    
C118  C171  S    
C170  O53   S    
C134  C151  S    
C97   C152  S    
C121  C149  S    
C74   H64   S    
C2    C14   A    
O34   Zn11  S    
C129  C147  S    
C128  C156  S    
C61   H32   S    
C142  C168  S    
C63   O54   S    
C6    C163  S    
C139  C157  S    
C112  O43   A    
C75   H66   S    
C71   H55   S    
C4    C161  S    
C84   H88   S    
C77   H74   S    
C143  C161  S    
C126  I22   S    
C37   C50   A    
C169  O52   S    
C2    C144  S    
C83   H87   S    
C14   C31   A    
O30   Zn1   S    
C69   H50   S    
C114  C167  S    
O3    Zn6   S    
C85   C86   S    
O1    Zn8   S    
C54   H16   S    
C64   H41   S    
C29   C47   A    
C86   H95   S    
N4    N7    A    
C127  C152  S    
C78   C80   S    
C87   N16   A    
C95   O14   A    
C40   C49   A    
C99   C154  S    
C144  O11   A    
C106  C161  S    
C9    I28   S    
C140  C158  S    
O66   Zn2   S    
C27   C44   A    
C141  C159  S    
O16   Zn6   S    
C21   I40   S    
O6    Zn14  S    
C122  O9    A    
C136  I45   S    
C157  C174  S    
C173  O57   S    
C91   N9    A    
C52   H10   S    
C114  I10   S    
C115  C132  S    
O18   Zn8   S    
C28   H23   S    
N1    N13   A    
C113  C130  S    
C85   O65   S    
C84   H90   S    
C98   O39   A    
C36   H2    S    
C65   H43   S    
C1    O68   A    
C38   C51   A    
C115  I11   S    
C144  O7    A    
C114  C131  S    
C59   H27   S    
C83   C84   S    
O37   Zn9   S    
C22   I41   S    
C61   O53   S    
C116  I13   S    
C95   C150  S    
C52   C53   S    
C105  O46   A    
C124  C151  S    
C165  O49   S    
C107  O48   A    
N10   N15   A    
C83   O64   S    
C124  C141  S    
C141  I3    S    
C69   H52   S    
C147  C172  S    
C26   H1    S    
C175  O59   S    
C97   O38   A    
C5    C135  S    
C54   C55   S    
C62   H36   S    
C66   H47   S    
C119  C164  S    
C123  C175  S    
C124  C176  S    
C117  C162  S    
C131  C174  S    
C104  O22   A    
C43   C92   S    
C151  C169  S    
C4    C126  S    
C159  C176  S    
C121  C139  S    
C13   C15   A    
C70   H53   S    
C6    C128  S    
C73   H62   S    
C134  I34   S    
C59   H26   S    
C128  C146  S    
C20   I39   S    
O1    Zn1   S    
C17   I36   S    
O40   Zn5   S    
C56   C58   S    
C71   H57   S    
C63   H38   S    
O35   Zn15  S    
C61   C62   S    
N11   N14   A    
C87   N5    A    
C63   C64   S    
C93   N15   A    
C158  C175  S    
C55   H18   S    
C123  C148  S    
C111  O4    A    
C39   C48   A    
C115  C168  S    
C2    C9    A    
C53   H13   S    
C90   N3    A    
C146  I7    S    
O42   Zn7   S    
C34   H89   S    
C149  C167  S    
C97   O16   A    
C88   N8    A    
C172  O55   S    
C147  I8    S    
C108  O27   A    
C128  I25   S    
C19   C57   A    
C81   H82   S    
C57   C89   S    
C121  I18   S    
C33   H78   S    
C70   O58   S    
O67   Zn16  S    
C113  C165  S    
C86   H96   S    
C116  C134  S    
C67   H49   S    
O14   Zn4   S    
C109  O28   A    
C23   C57   A    
C85   H93   S    
C66   H44   S    
C75   H68   S    
C56   H20   S    
C168  O51   S    
C70   C71   S    
C123  I19   S    
O2    Zn3   S    
C4    C136  S    
C31   C44   A    
C102  O20   A    
C110  O29   A    
O1    Zn12  S    
C78   H75   S    
C85   H92   S    
C109  O41   A    
C25   C68   A    
C18   C46   A    
O36   Zn1   S    
O9    Zn11  S    
C30   H45   S    
C40   H6    S    
C37   H3    S    
C108  C163  S    
C38   H4    S    
C80   H77   S    
C3    C132  S    
C81   O63   S    
C60   H30   S    
O56   Zn7   S    
C11   I30   S    
C101  C156  S    
O20   Zn2   S    
N6    N16   A    
O7    Zn9   S    
C51   C88   S    
C23   I42   S    
O31   Zn12  S    
C167  O50   S    
C108  O40   A    
O34   Zn16  S    
C133  O10   A    
C3    O61   S    
C16   I35   S    
C31   H56   S    
C5    C127  S    
C24   C122  S    
C101  O32   A    
C44   C91   S    
C61   H31   S    
C22   C46   A    
O27   Zn15  S    
C4    O62   S    
C130  C175  S    
O25   Zn13  S    
O38   Zn10  S    
C76   H71   S    
C77   H73   S    
C142  I4    S    
C41   C50   A    
C9    C27   A    
C56   H21   S    
C10   C28   A    
C12   C30   A    
C82   H83   S    
C72   O59   S    
O24   Zn10  S    
C109  C164  S    
C94   N14   A    
C25   C42   A    
C103  O21   A    
C7    C164  S    
C72   H59   S    
C77   H72   S    
C5    C162  S    
C143  C171  S    
C89   O56   A    
C155  O8    A    
C12   I31   S    
C133  O6    A    
C137  C154  S    
C27   H12   S    
C67   H48   S    
C7    C129  S    
C125  C150  S    
C103  C149  S    
C105  C160  S    
C126  C153  S    
C49   C79   S    
C135  I44   S    
C74   C75   S    
O39   Zn11  S    
C41   H7    S    
C17   C35   A    
C18   C36   A    
C106  O47   A    
C36   C49   A    
C135  C152  S    
C113  I9    S    
C127  I24   S    
O12   Zn13  S    
C55   H19   S    
C118  C161  S    
C89   O2    A    
C94   N10   A    
C80   H79   S    
C11   C24   A    
C145  I6    S    
C95   O36   A    
C101  O19   A    
O29   Zn9   S    
C10   I29   S    
C81   C82   S    
O32   Zn13  S    
C58   H24   S    
C65   O55   S    
C19   I38   S    
C12   C166  A    
C65   H42   S    
C93   N11   A    
O26   Zn12  S    
C145  C162  S    
C155  C166  S    
C146  C173  S    
C129  I26   S    
N3    N8    A    
C140  I2    S    
C90   N7    A    
O23   Zn2   S    
O47   Zn3   S    
C74   H65   S    
O48   Zn4   S    
C121  C174  S    
C58   H25   S    
C34   C48   A    
O19   Zn7   S    
C62   H35   S    
C106  O25   A    
O17   Zn5   S    
C113  C158  S    
C88   N4    A    
C138  I47   S    
C75   H69   S    
C119  C172  S    
C102  C148  S    
C98   C153  S    
C16   C24   A    
C79   N2    A    
C45   C94   S    
C69   H51   S    
C131  I12   S    
C60   H28   S    
C26   C43   A    
C15   I33   S    
C8    C26   A    
C67   O57   S    
C28   C45   A    
C56   O51   S    
C54   H15   S    
C130  C148  S    
C119  C137  S    
C76   C77   S    
C86   H94   S    
C25   I43   S    
C96   C151  S    
C123  C140  S    
C67   C69   S    
C6    C138  S    
C70   H54   S    
C73   H61   S    
C16   C33   A    
C20   C38   A    
C120  C173  S    
O23   Zn6   S    
C21   C39   A    
C8    I27   S    
C125  C142  S    
C22   C40   A    
C153  C171  S    
O12   Zn3   S    
C154  C172  S    
C63   H37   S    
C39   H5    S    
C8    C166  A    
C52   O49   S    
C55   H17   S    
C78   O62   S    
C32   H67   S    
C3    C160  S    
N9    N12   A    
C52   H9    S    
C137  I46   S    
C35   C111  S    
C138  C156  S    
C46   C100  S    
C58   H22   S    
C18   I37   S    
C64   H40   S    
C76   H70   S    
O68   Zn4   S    
C142  C160  S    
C10   C13   A    
C125  I21   S    
C3    C125  S    
C146  C163  S    
C42   C51   A    
C81   H81   S    
C76   O61   S    
C53   H11   S    
O46   Zn2   S    
O5    Zn15  S    
C62   H33   S    
C116  C169  S    
O12   Zn7   S    
C112  O30   A    
C54   O50   S    
C59   O52   S    
C155  O13   A    
C5    O63   S    
C99   O18   A    
C96   O37   A    
C120  C138  S    
C11   C29   A    
C65   C66   S    
O11   Zn13  S    
C83   H86   S    
C14   I32   S    
C117  I14   S    
C74   O60   S    
C119  I16   S    
O44   Zn16  S    
