data_mof_unit_53039.cif
_audit_creation_date              2012-12-11T15:35:38-0500
_audit_creation_method            fapswitch 2.2
_symmetry_space_group_name_H-M    P1
_symmetry_Int_Tables_number       1
_space_group_crystal_system       triclinic
_cell_length_a                    17.360857
_cell_length_b                    24.265187
_cell_length_c                    14.827308
_cell_angle_alpha                 89.976951
_cell_angle_beta                  124.543559
_cell_angle_gamma                 89.947082
_cell_volume                      5144.97491287

loop_
_atom_site_label
_atom_site_type_symbol
_atom_type_description
_atom_site_fract_x
_atom_site_fract_y
_atom_site_fract_z
_atom_type_partial_charge
C1    C     C_R   0.348512 0.151298 0.908877 -0.128876
C2    C     C_R   0.348465 0.848714 0.909386 -0.129020
C3    C     C_R   0.811658 0.627362 0.909885 -0.129744
C4    C     C_R   0.811774 0.372645 0.910101 -0.132939
C5    C     C_R   0.644002 0.152316 0.091703 -0.160944
C6    C     C_R   0.644459 0.847736 0.092047 -0.172467
C7    C     C_R   0.189537 0.622232 0.091258 -0.147615
C8    C     C_R   0.189410 0.377366 0.091593 -0.154167
C9    C     C_R   0.553353 0.845830 0.910933 0.039678
C10   C     C_R   0.552784 0.154021 0.910777 0.051909
C11   C     C_R   0.098618 0.373274 0.909445 0.053128
C12   C     C_R   0.098643 0.626267 0.909411 0.064065
C13   C     C_R   0.554937 0.000079 0.730414 0.036039
C14   C     C_R   0.919215 0.500272 0.626685 0.041297
C15   C     C_R   0.824376 0.999346 0.280949 -0.003561
C16   C     C_R   0.305029 0.500924 0.359065 0.007002
C17   C     C_R   0.611069 0.186749 0.002165 0.003251
C18   C     C_R   0.611561 0.813503 0.002663 0.036091
C19   C     C_R   0.189319 0.636997 0.000532 -0.007528
C20   C     C_R   0.188624 0.362405 0.000814 0.020151
C21   C     C_3   0.031267 0.011960 0.578320 -0.465313
C22   C     C_3   0.083546 0.043758 0.458419 -0.427103
C23   C     C_3   0.560263 0.475917 0.468330 -0.485176
C24   C     C_3   0.539372 0.467788 0.624356 -0.408537
C25   C     C_3   0.929253 0.011305 0.479007 -0.117063
C26   C     C_3   0.980202 0.044953 0.358023 -0.134760
C27   C     C_3   0.453315 0.474665 0.387001 -0.098807
C28   C     C_3   0.432394 0.466715 0.542730 -0.149465
C29   C     C_3   0.071790 0.942384 0.484500 -0.413879
C30   C     C_3   0.546810 0.561553 0.555342 -0.419762
C31   C     C_3   0.096918 0.999460 0.541889 0.366913
C32   C     C_3   0.584842 0.501594 0.576527 0.368709
C33   C     C_3   0.924249 0.999057 0.371896 0.325942
C34   C     C_3   0.405429 0.501628 0.440234 0.318664
C35   C     C_R   0.441768 0.848542 0.092688 -0.125286
C36   C     C_R   0.441803 0.151692 0.092151 -0.124481
C37   C     C_R   0.908457 0.367484 0.093084 -0.124460
C38   C     C_R   0.907967 0.632426 0.092781 -0.125570
C39   C     C_3   0.971520 0.942621 0.382339 -0.394350
C40   C     C_3   0.441687 0.561771 0.475021 -0.416031
C41   C     C_R   0.306668 0.727975 0.911707 -0.173390
C42   C     C_R   0.302213 0.271102 0.908183 -0.181737
C43   C     C_R   0.659038 0.317839 0.914126 -0.173956
C44   C     C_R   0.659077 0.683540 0.911978 -0.185481
C45   C     C_R   0.603589 0.276888 0.914064 -0.179925
C46   C     C_R   0.604044 0.724786 0.912017 -0.173641
C47   C     C_R   0.261760 0.680837 0.912280 -0.187952
C48   C     C_R   0.256163 0.317671 0.908777 -0.157091
C49   C     C_R   0.638119 0.244790 0.008506 0.147997
C50   C     C_R   0.637491 0.755360 0.007859 0.148390
C51   C     C_R   0.265267 0.667340 0.006579 0.152421
C52   C     C_R   0.263622 0.332145 0.005029 0.147585
C53   C     C_R   0.714962 0.264548 0.108641 -0.166698
C54   C     C_R   0.712592 0.734225 0.107909 -0.173704
C55   C     C_R   0.334138 0.691821 0.106342 -0.166767
C56   C     C_R   0.335987 0.309389 0.104833 -0.176149
C57   C     C_R   0.379971 0.738056 0.106455 -0.176513
C58   C     C_R   0.382867 0.263617 0.104739 -0.170895
C59   C     C_R   0.769442 0.306107 0.109235 -0.173670
C60   C     C_R   0.766925 0.692519 0.108165 -0.170072
C61   C     C_R   0.358325 0.759663 0.007042 0.147891
C62   C     C_R   0.358173 0.240767 0.004924 0.146463
C63   C     C_R   0.747311 0.327866 0.009639 0.149321
C64   C     C_R   0.746189 0.672016 0.008349 0.152586
C65   C     C_R   0.609207 0.950180 0.630932 -0.171349
C66   C     C_R   0.608946 0.049906 0.630646 -0.173807
C67   C     C_R   0.883508 0.450434 0.463229 -0.174999
C68   C     C_R   0.883922 0.550232 0.463418 -0.179012
C69   C     C_R   0.605916 0.950117 0.535489 -0.178238
C70   C     C_R   0.605660 0.049921 0.535209 -0.176294
C71   C     C_R   0.905913 0.450331 0.387553 -0.169846
C72   C     C_R   0.906294 0.550198 0.387711 -0.168585
C73   C     C_R   0.594224 0.000005 0.481304 0.143820
C74   C     C_R   0.927926 0.500205 0.359588 0.150503
C75   C     C_R   0.544079 0.045691 0.301742 -0.125287
C76   C     C_R   0.544153 0.954291 0.301833 -0.124168
C77   C     C_R   0.000555 0.545618 0.271558 -0.129796
C78   C     C_R   0.000384 0.454461 0.271483 -0.127963
C79   C     C_R   0.598962 0.000056 0.670753 0.145197
C80   C     C_R   0.885346 0.500340 0.511841 0.136654
C81   C     C_R   0.241992 0.953496 0.700984 -0.148674
C82   C     C_R   0.240587 0.046180 0.701041 -0.136795
C83   C     C_R   0.737637 0.454291 0.704995 -0.154830
C84   C     C_R   0.739321 0.546846 0.705907 -0.159594
C85   C     C_R   0.379876 0.183158 0.001491 0.039538
C86   C     C_R   0.379696 0.817120 0.002430 0.043317
C87   C     C_R   0.818300 0.644158 0.003655 0.040729
C88   C     C_R   0.818861 0.355740 0.004181 0.041941
C89   C     C_R   0.558930 0.999988 0.365441 0.038719
C90   C     C_R   0.975620 0.500086 0.304847 0.036505
C91   C     C_R   0.192242 0.999677 0.641728 0.017483
C92   C     C_R   0.685394 0.501080 0.654847 0.032950
C93   C     C_R   0.521850 0.045813 0.754348 -0.123458
C94   C     C_R   0.522271 0.954322 0.754769 -0.137682
C95   C     C_R   0.941269 0.545356 0.692574 -0.125873
C96   C     C_R   0.940635 0.455025 0.692208 -0.137834
C97   C     C_R   0.767491 0.953199 0.250057 -0.099819
C98   C     C_R   0.768464 0.046117 0.251777 -0.153759
C99   C     C_R   0.256179 0.454454 0.302511 -0.152882
C100  C     C_R   0.254051 0.546440 0.301638 -0.135247
H1    H     H_    0.308148 0.165010 0.824690 0.084592
H2    H     H_    0.307980 0.834755 0.825402 0.084193
H3    H     H_    0.753289 0.633088 0.826380 0.088409
H4    H     H_    0.753263 0.367023 0.826602 0.088708
H5    H     H_    0.047528 0.053256 0.617915 0.152016
H6    H     H_    0.101933 0.085383 0.496241 0.132816
H7    H     H_    0.588056 0.433120 0.482301 0.147061
H8    H     H_    0.565403 0.424543 0.641483 0.134519
H9    H     H_    0.899998 0.053281 0.471726 0.116309
H10   H     H_    0.950894 0.086187 0.355834 0.100329
H11   H     H_    0.432291 0.430471 0.369725 0.107824
H12   H     H_    0.411277 0.423133 0.516974 0.114877
H13   H     H_    0.077015 0.909685 0.540375 0.149613
H14   H     H_    0.120967 0.931754 0.461601 0.158794
H15   H     H_    0.577840 0.586848 0.520859 0.152437
H16   H     H_    0.564944 0.581080 0.633090 0.155717
H17   H     H_    0.934559 0.907677 0.390082 0.141215
H18   H     H_    0.971247 0.934584 0.308309 0.171046
H19   H     H_    0.424141 0.587254 0.403352 0.154062
H20   H     H_    0.408744 0.582709 0.511733 0.147012
H21   H     H_    0.295298 0.741339 0.835417 0.107205
H22   H     H_    0.287917 0.256876 0.830984 0.103921
H23   H     H_    0.635488 0.338271 0.837735 0.105689
H24   H     H_    0.636493 0.664369 0.834890 0.104641
H25   H     H_    0.538345 0.268909 0.837796 0.107790
H26   H     H_    0.540633 0.734807 0.834733 0.124679
H27   H     H_    0.219607 0.658245 0.837073 0.110367
H28   H     H_    0.209495 0.338912 0.832402 0.117489
H29   H     H_    0.740377 0.244393 0.185638 0.102071
H30   H     H_    0.736833 0.753474 0.185328 0.103643
H31   H     H_    0.345892 0.680188 0.183443 0.101047
H32   H     H_    0.350181 0.322223 0.182572 0.102566
H33   H     H_    0.423835 0.759550 0.183259 0.104817
H34   H     H_    0.430297 0.243415 0.182305 0.104031
H35   H     H_    0.832944 0.316672 0.186752 0.101282
H36   H     H_    0.829374 0.680762 0.185856 0.101494
H37   H     H_    0.608702 0.910894 0.664960 0.106447
H38   H     H_    0.608227 0.089203 0.664454 0.105961
H39   H     H_    0.877617 0.411154 0.493236 0.103966
H40   H     H_    0.878350 0.589539 0.493592 0.104646
H41   H     H_    0.488863 0.834843 0.176342 0.082534
H42   H     H_    0.488692 0.165372 0.175758 0.082215
H43   H     H_    0.940891 0.353734 0.175786 0.080698
H44   H     H_    0.940000 0.646217 0.175362 0.081395
H45   H     H_    0.603591 0.910764 0.499985 0.105223
H46   H     H_    0.603132 0.089263 0.499495 0.104810
H47   H     H_    0.913535 0.411032 0.359084 0.103783
H48   H     H_    0.914196 0.589456 0.359353 0.103264
H49   H     H_    0.560442 0.088093 0.328010 0.082728
H50   H     H_    0.560596 0.911875 0.328234 0.082897
H51   H     H_    0.005129 0.587326 0.298223 0.080887
H52   H     H_    0.004727 0.412753 0.298109 0.080982
H53   H     H_    0.228993 0.910763 0.676329 0.087550
H54   H     H_    0.224578 0.088840 0.676151 0.087883
H55   H     H_    0.719323 0.412147 0.677442 0.082947
H56   H     H_    0.724877 0.589349 0.679813 0.086943
H57   H     H_    0.533160 0.088410 0.745258 0.103444
H58   H     H_    0.534460 0.911831 0.746536 0.094641
H59   H     H_    0.918090 0.586997 0.664702 0.098051
H60   H     H_    0.915654 0.413843 0.663344 0.081509
H61   H     H_    0.786910 0.910283 0.263284 0.086473
H62   H     H_    0.790371 0.088661 0.269120 0.087031
H63   H     H_    0.272962 0.412151 0.329916 0.076528
H64   H     H_    0.265735 0.588959 0.327872 0.081882
H65   H     H_    0.680274 0.164677 0.176316 0.091000
H66   H     H_    0.680648 0.835163 0.176589 0.090882
H67   H     H_    0.246687 0.625293 0.175891 0.099226
H68   H     H_    0.246398 0.373728 0.176256 0.099307
H69   H     H_    0.043014 0.981443 0.641156 0.165101
H70   H     H_    0.131686 0.034688 0.433251 0.166691
H71   H     H_    0.593882 0.499957 0.435517 0.166156
H72   H     H_    0.559746 0.485951 0.704002 0.169496
N1    N     N_R   0.392140 0.102630 0.941800 -0.038023
N2    N     N_R   0.392140 0.897370 0.941800 -0.040013
N3    N     N_R   0.892140 0.602630 0.941800 -0.040589
N4    N     N_R   0.892140 0.397370 0.941800 -0.041374
N5    N     N_R   0.450890 0.896450 0.057150 -0.037764
N6    N     N_R   0.450890 0.103550 0.057150 -0.038829
N7    N     N_R   0.950890 0.396450 0.057150 -0.039259
N8    N     N_R   0.950890 0.603550 0.057150 -0.040104
N9    N     N_R   0.525160 0.027960 0.206160 -0.039406
N10   N     N_R   0.525160 0.972040 0.206160 -0.039581
N11   N     N_R   0.025160 0.527960 0.206160 -0.036342
N12   N     N_R   0.025160 0.472040 0.206160 -0.035909
N13   N     N_R   0.317870 0.971120 0.792790 -0.036491
N14   N     N_R   0.317870 0.028880 0.792790 -0.034345
N15   N     N_R   0.817870 0.471120 0.792790 -0.030840
N16   N     N_R   0.817870 0.528880 0.792790 -0.030645
N17   N     N_R   0.473480 0.027920 0.793480 -0.037334
N18   N     N_R   0.473480 0.972080 0.793480 -0.043535
N19   N     N_R   0.973480 0.527920 0.793480 -0.037904
N20   N     N_R   0.973480 0.472080 0.793480 -0.041267
N21   N     N_R   0.681610 0.971120 0.207570 -0.037912
N22   N     N_R   0.681610 0.028880 0.207570 -0.033592
N23   N     N_R   0.181610 0.471120 0.207570 -0.029695
N24   N     N_R   0.181610 0.528880 0.207570 -0.032653
N25   N     N_R   0.605410 0.102620 0.056870 -0.042604
N26   N     N_R   0.605410 0.897380 0.056870 -0.042172
N27   N     N_R   0.105410 0.602620 0.056870 -0.048976
N28   N     N_R   0.105410 0.397380 0.056870 -0.046732
N29   N     N_R   0.549680 0.896430 0.944180 -0.052197
N30   N     N_R   0.549680 0.103570 0.944180 -0.045616
N31   N     N_R   0.049680 0.396430 0.944180 -0.057966
N32   N     N_R   0.049680 0.603570 0.944180 -0.049374
Ni1   Ni    Ni4+2 0.433410 0.064680 0.868830 0.214397
Ni2   Ni    Ni4+2 0.433410 0.935320 0.868830 0.200363
Ni3   Ni    Ni4+2 0.933410 0.564680 0.868830 0.213269
Ni4   Ni    Ni4+2 0.933410 0.435320 0.868830 0.202350
Ni5   Ni    Ni4+2 0.565650 0.934380 0.131170 0.202883
Ni6   Ni    Ni4+2 0.565650 0.065620 0.131170 0.202472
Ni7   Ni    Ni4+2 0.065650 0.434380 0.131170 0.209671
Ni8   Ni    Ni4+2 0.065650 0.565620 0.131170 0.207903
N33   N     N_3   0.873268 0.972205 0.494965 -0.208495
H73   H     H_    0.906073 0.933691 0.518533 0.114566
H74   H     H_    0.869659 0.986467 0.559052 0.113165
N34   N     N_3   0.975036 0.037704 0.256444 -0.207844
H75   H     H_    0.905840 0.043637 0.189891 0.110969
H76   H     H_    0.013131 0.069444 0.251297 0.110985
N35   N     N_3   0.423325 0.500815 0.282363 -0.202705
H77   H     H_    0.454842 0.539396 0.295997 0.119334
H78   H     H_    0.446549 0.476474 0.244026 0.114128
N36   N     N_3   0.386508 0.484865 0.595884 -0.211245
H79   H     H_    0.405895 0.525107 0.625097 0.121195
H80   H     H_    0.313916 0.483788 0.539739 0.109496
N37   N     N_3   0.480428 0.824935 0.806033 -0.232359
H81   H     H_    0.425266 0.853231 0.767904 0.102014
H82   H     H_    0.506921 0.822276 0.758118 0.076380
N38   N     N_3   0.483318 0.172122 0.802031 -0.227788
H83   H     H_    0.516353 0.187463 0.766391 0.082453
H84   H     H_    0.441341 0.202045 0.804702 0.089279
N39   N     N_3   0.056248 0.346607 0.805791 -0.223883
H85   H     H_    0.986019 0.338925 0.773965 0.096153
H86   H     H_    0.060368 0.373195 0.753364 0.093095
N40   N     N_3   0.056753 0.644271 0.799332 -0.229787
H87   H     H_    0.084785 0.621380 0.764834 0.093414
H88   H     H_    0.070894 0.686136 0.799587 0.101246

loop_
_geom_bond_atom_site_label_1
_geom_bond_atom_site_label_2
_ccdc_geom_bond_type
C68   C80   A    
C38   C87   A    
C71   H47   S    
C29   H14   S    
C6    H66   S    
N16   Ni3   S    
C27   N35   S    
C65   C79   A    
N7    Ni7   S    
C63   C88   S    
C98   N22   A    
C69   H45   S    
C37   C88   A    
C41   C61   A    
C83   N15   A    
C77   H51   S    
N38   H84   S    
C53   C59   A    
C78   H52   S    
C94   N18   A    
C54   C60   A    
N33   H73   S    
C78   C90   A    
C12   N40   S    
C83   C92   A    
C21   C31   S    
C1    N1    A    
C50   C54   A    
C4    N4    A    
C82   N14   A    
C34   C40   S    
N1    N6    A    
N34   H76   S    
C35   C86   A    
C21   H69   S    
C47   H27   S    
C83   H55   S    
C2    H2    S    
C10   C17   A    
N5    Ni5   S    
C99   N23   A    
C81   H53   S    
C13   C79   S    
N6    Ni6   S    
C26   N34   S    
N27   Ni8   S    
C41   H21   S    
N8    Ni8   S    
N26   Ni5   S    
C36   H42   S    
C35   N5    A    
C7    H67   S    
N25   Ni6   S    
C8    H68   S    
C16   C34   S    
N18   Ni2   S    
N4    N7    A    
N3    Ni3   S    
N17   Ni1   S    
N30   Ni1   S    
C66   H38   S    
N15   Ni4   S    
C96   N20   A    
N29   Ni2   S    
C69   C73   A    
C70   H46   S    
C23   C27   S    
C67   H39   S    
C26   H10   S    
C64   C87   S    
C51   C55   A    
C95   N19   A    
C76   C89   A    
C65   H37   S    
C100  N24   A    
C27   H11   S    
C94   H58   S    
C10   N38   S    
N20   Ni4   S    
C57   H33   S    
N17   N18   A    
N40   H88   S    
C15   C97   A    
C76   N10   A    
C14   C96   A    
N38   H83   S    
C98   H62   S    
C44   C46   A    
C30   H15   S    
N33   H74   S    
C27   C34   S    
C1    C85   A    
C54   H30   S    
C62   C85   S    
C77   C90   A    
N28   Ni7   S    
C38   N8    A    
C22   C31   S    
C43   C63   A    
N19   N20   A    
C36   N6    A    
N34   H75   S    
C72   C74   A    
C17   C49   S    
N22   Ni6   S    
C6    N26   A    
C16   C100  A    
C47   C51   A    
C32   C92   S    
N11   Ni8   S    
C39   H17   S    
C3    C87   A    
C11   C20   A    
C44   H24   S    
N10   Ni5   S    
C44   C64   A    
C82   C91   A    
C30   H16   S    
C13   C93   A    
N9    Ni6   S    
N24   Ni8   S    
N9    N10   A    
C42   C48   A    
N36   H80   S    
N11   N12   A    
C24   C32   S    
N23   Ni7   S    
C66   C79   A    
C45   H25   S    
N35   H78   S    
C33   C39   S    
C26   C33   S    
N21   Ni5   S    
C45   C49   A    
C58   H34   S    
N32   Ni3   S    
C76   H50   S    
C68   C72   A    
C23   H7    S    
C29   C39   S    
C70   C73   A    
N37   H81   S    
C41   C47   A    
C30   C40   S    
N25   N30   A    
C100  H64   S    
C42   H22   S    
C8    C20   A    
C81   C91   A    
C93   H57   S    
C43   C45   A    
C10   N30   A    
N2    N5    A    
C22   H70   S    
C9    N29   A    
C58   C62   A    
C35   H41   S    
C24   H8    S    
C3    N3    A    
C96   H60   S    
C11   N31   A    
C7    C19   A    
C14   C80   S    
C55   C57   A    
C43   H23   S    
C6    C18   A    
N27   N32   A    
C99   H63   S    
C84   N16   A    
C53   H29   S    
N40   H87   S    
C15   C98   A    
C75   N9    A    
C68   H40   S    
C1    H1    S    
C14   C95   A    
N35   H77   S    
C18   C50   S    
N12   Ni7   S    
C3    H3    S    
C21   C25   S    
C95   H59   S    
C11   N39   S    
C93   N17   A    
C56   H32   S    
N14   Ni1   S    
C40   H20   S    
N19   Ni3   S    
C59   C63   A    
N13   Ni2   S    
C46   H26   S    
C28   N36   S    
C37   H43   S    
C67   C80   A    
C24   C28   S    
C31   C91   S    
C78   N12   A    
C15   C33   S    
C71   C74   A    
C5    N25   A    
C16   C99   A    
C57   C61   A    
N3    N8    A    
C4    C88   A    
C72   H48   S    
C25   H9    S    
C36   C85   A    
C39   H18   S    
C20   C52   S    
N31   Ni4   S    
C46   C50   A    
C55   H31   S    
C37   N7    A    
C13   C94   A    
C60   C64   A    
C23   C32   S    
C60   H36   S    
C25   N33   S    
C38   H44   S    
C73   C89   S    
N15   N16   A    
C29   C31   S    
C22   H6    S    
C2    N2    A    
C30   C32   S    
C84   H56   S    
N4    Ni4   S    
N13   N14   A    
C66   C70   A    
C52   C56   A    
C48   H28   S    
C75   H49   S    
N28   N31   A    
C65   C69   A    
C74   C90   S    
C4    H4    S    
C12   C19   A    
C59   H35   S    
N37   H82   S    
C56   C58   A    
C2    C86   A    
N26   N29   A    
C67   C71   A    
C5    H65   S    
C12   N32   A    
C7    N27   A    
N36   H79   S    
C24   H72   S    
C29   H13   S    
C49   C53   A    
C8    N28   A    
C61   C86   S    
C75   C89   A    
C28   C34   S    
N23   N24   A    
C82   H54   S    
C19   C51   S    
C9    C18   A    
C48   C52   A    
C40   H19   S    
C5    C17   A    
N39   H86   S    
N21   N22   A    
C22   C26   S    
C97   N21   A    
N39   H85   S    
N2    Ni2   S    
N1    Ni1   S    
C84   C92   A    
C9    N37   S    
C42   C62   A    
C25   C33   S    
C28   H12   S    
C21   H5    S    
C77   N11   A    
C97   H61   S    
C81   N13   A    
C23   H71   S    
