data_mof_unit_65848.cif
_audit_creation_date              2012-12-10T21:32:46-0500
_audit_creation_method            fapswitch 2.2
_symmetry_space_group_name_H-M    P1
_symmetry_Int_Tables_number       1
_space_group_crystal_system       triclinic
_cell_length_a                    11.549728
_cell_length_b                    16.172398
_cell_length_c                    16.796688
_cell_angle_alpha                 87.665548
_cell_angle_beta                  91.10411
_cell_angle_gamma                 92.314481
_cell_volume                      3131.75038638

loop_
_atom_site_label
_atom_site_type_symbol
_atom_type_description
_atom_site_fract_x
_atom_site_fract_y
_atom_site_fract_z
_atom_type_partial_charge
C1    C     C_R   0.501143 0.488752 0.653253 0.898466
C2    C     C_R   0.498858 0.511247 0.346747 0.898466
C3    C     C_R   0.487599 0.406709 0.783279 0.083236
C4    C     C_R   0.512422 0.593289 0.216722 0.083230
C5    C     C_R   0.441333 0.763643 0.462672 0.083989
C6    C     C_R   0.558667 0.236357 0.537328 0.083991
C7    C     C_R   0.445382 0.850575 0.465389 -0.314585
C8    C     C_R   0.554617 0.149425 0.534612 -0.314585
C9    C     C_R   0.524951 0.891292 0.516704 0.266359
C10   C     C_R   0.475048 0.108708 0.483297 0.266359
C11   C     C_R   0.599342 0.842227 0.564129 -0.140201
C12   C     C_R   0.400657 0.157773 0.435871 -0.140201
C13   C     C_R   0.592911 0.754842 0.559527 0.043295
C14   C     C_R   0.407089 0.245157 0.440473 0.043295
C15   C     C_R   0.718180 0.499844 0.500138 0.913085
C16   C     C_R   0.281820 0.500156 0.499862 0.913086
C17   C     C_1   0.838560 0.499626 0.500134 -0.160085
C18   C     C_1   0.161440 0.500374 0.499865 -0.160085
C19   C     C_1   0.940690 0.499808 0.500065 0.017227
C20   C     C_1   0.059309 0.500192 0.499935 0.017227
C21   C     C_R   0.513331 0.481630 0.739909 -0.051772
C22   C     C_R   0.486678 0.518370 0.260090 -0.051769
C23   C     C_R   0.555667 0.551445 0.779884 -0.292353
C24   C     C_R   0.444341 0.448557 0.220114 -0.292357
C25   C     C_R   0.569667 0.548349 0.861963 0.009654
C26   C     C_R   0.430352 0.451652 0.138034 0.009653
C27   C     C_R   0.537762 0.475030 0.905275 0.256569
C28   C     C_R   0.462267 0.524970 0.094724 0.256571
C29   C     C_R   0.500920 0.404143 0.866012 -0.237777
C30   C     C_R   0.499111 0.595855 0.133988 -0.237778
H1    H     H_    0.422304 0.391109 0.252647 0.185644
H2    H     H_    0.577696 0.608894 0.747350 0.185644
H3    H     H_    0.477208 0.347915 0.900180 0.161981
H4    H     H_    0.522831 0.652082 0.099822 0.161982
H5    H     H_    0.613182 0.114219 0.572630 0.175296
H6    H     H_    0.386818 0.885780 0.427370 0.175296
N1    N     N_2   0.532320 0.473156 0.988524 -0.178459
N2    N     N_2   0.467712 0.526844 0.011475 -0.178459
N3    N     N_R   0.513820 0.716920 0.509720 -0.130352
N4    N     N_R   0.486180 0.283080 0.490280 -0.130352
N5    N     N_2   0.533855 0.980018 0.522239 -0.162985
N6    N     N_2   0.466144 0.019982 0.477762 -0.162985
O1    O     O_R   0.495050 0.422540 0.612660 -0.592117
O2    O     O_R   0.504950 0.577460 0.387340 -0.592117
O3    O     O_R   0.503930 0.561840 0.618900 -0.630855
O4    O     O_R   0.496070 0.438160 0.381100 -0.630855
O5    O     O_R   0.661110 0.430350 0.496870 -0.613770
O6    O     O_R   0.338890 0.569650 0.503130 -0.613770
O7    O     O_R   0.669990 0.569650 0.503110 -0.611523
O8    O     O_R   0.330010 0.430350 0.496890 -0.611523
Zn1   Zn    Zn3+2 0.494070 0.406980 0.495830 0.974649
Zn2   Zn    Zn3+2 0.505930 0.593020 0.504170 0.974649
C31   C     C_1   0.384138 0.379078 0.099143 0.202576
N7    N     N_1   0.347118 0.320948 0.067995 -0.196974
C32   C     C_1   0.615881 0.620925 0.900851 0.202575
N8    N     N_1   0.652900 0.679057 0.931997 -0.196973
N9    N     N_3   0.444052 0.334317 0.744353 -0.426561
H7    H     H_    0.363083 0.317096 0.767935 0.190070
H8    H     H_    0.500075 0.286378 0.758102 0.194611
N10   N     N_3   0.555972 0.665678 0.255650 -0.426561
H9    H     H_    0.636949 0.682890 0.232075 0.190070
H10   H     H_    0.499960 0.713623 0.241893 0.194610
C33   C     C_1   0.639610 0.275512 0.591462 0.249730
N11   N     N_1   0.704892 0.306602 0.635228 -0.206248
C34   C     C_1   0.360390 0.724488 0.408537 0.249734
N12   N     N_1   0.295109 0.693398 0.364772 -0.206245
C35   C     C_1   0.682776 0.881996 0.617144 0.188342
N13   N     N_1   0.749407 0.913795 0.659489 -0.182602
C36   C     C_1   0.317222 0.118004 0.382857 0.188342
N14   N     N_1   0.250590 0.086204 0.340513 -0.182602
C37   C     C_1   0.672519 0.705458 0.606329 0.247083
N15   N     N_1   0.737440 0.666667 0.643812 -0.212644
C38   C     C_1   0.327482 0.294542 0.393670 0.247085
N16   N     N_1   0.262562 0.333333 0.356187 -0.212645

loop_
_geom_bond_atom_site_label_1
_geom_bond_atom_site_label_2
_ccdc_geom_bond_type
C6    C33   S    
C2    C22   S    
O5    Zn1   S    
C12   C36   S    
C26   C31   S    
C28   C30   A    
C1    C21   S    
N1    N2    D    
O2    Zn2   S    
C15   O5    A    
C10   N6    S    
N4    Zn1   S    
C4    C22   A    
C7    H6    S    
C8    H5    S    
C26   C28   A    
C19   C20   S    
C28   N2    S    
C32   N8    T    
O7    Zn2   S    
C1    O3    A    
C23   H2    S    
C16   O6    A    
C5    C34   S    
C5    N3    A    
N3    Zn2   S    
C24   H1    S    
C37   N15   T    
C34   N12   T    
C31   N7    T    
C2    O4    A    
C3    C29   A    
C11   C13   A    
C24   C26   A    
O1    Zn1   S    
N9    H7    S    
C10   C12   A    
C27   N1    S    
C35   N13   T    
C9    C11   A    
N10   H10   S    
C17   C19   T    
C12   C14   A    
O8    Zn1   S    
C18   C20   T    
C15   O7    A    
C21   C23   A    
C36   N14   T    
C22   C24   A    
C13   N3    A    
N9    H8    S    
C3    C21   A    
C30   H4    S    
C14   N4    A    
C33   N11   T    
C14   C38   S    
C3    N9    S    
O6    Zn2   S    
C6    N4    A    
C27   C29   A    
C11   C35   S    
C16   C18   S    
C23   C25   A    
N5    N6    D    
C2    O2    A    
C5    C7    A    
C7    C9    A    
C38   N16   T    
C6    C8    A    
C13   C37   S    
O3    Zn2   S    
C15   C17   S    
C9    N5    S    
O4    Zn1   S    
C1    O1    A    
C8    C10   A    
C4    C30   A    
C25   C32   S    
C29   H3    S    
C16   O8    A    
N10   H9    S    
C4    N10   S    
C25   C27   A    
