data_mof_unit_25585.cif
_audit_creation_date              2012-12-10T20:49:47-0500
_audit_creation_method            fapswitch 2.2
_symmetry_space_group_name_H-M    P1
_symmetry_Int_Tables_number       1
_space_group_crystal_system       triclinic
_cell_length_a                    8.100519
_cell_length_b                    8.938188
_cell_length_c                    16.752657
_cell_angle_alpha                 90.000116
_cell_angle_beta                  84.977774
_cell_angle_gamma                 90.004541
_cell_volume                      1208.30195807

loop_
_atom_site_label
_atom_site_type_symbol
_atom_type_description
_atom_site_fract_x
_atom_site_fract_y
_atom_site_fract_z
_atom_type_partial_charge
C1    C     C_R   0.500004 0.782055 0.499991 0.941092
C2    C     C_R   0.403242 0.636418 0.235653 -0.209941
C3    C     C_R   0.591986 0.561496 0.862148 -0.199695
C4    C     C_R   0.416421 0.696068 0.159367 -0.205307
C5    C     C_R   0.439091 0.604182 0.901650 0.190607
C6    C     C_R   0.561172 0.674270 0.108667 0.188100
C7    C     C_R   0.294204 0.599992 0.860997 0.128272
C8    C     C_R   0.700226 0.604467 0.137538 0.140918
C9    C     C_R   0.306604 0.560404 0.779983 -0.236607
C10   C     C_R   0.686999 0.547481 0.215755 -0.238350
C11   C     C_2   0.428275 0.638925 0.987202 -0.212821
C12   C     C_R   0.500001 0.217946 0.499971 0.944548
C13   C     C_2   0.555635 0.697327 0.022646 -0.241778
C14   C     C_1   0.500007 0.934823 0.499964 -0.191587
C15   C     C_1   0.499998 0.065165 0.499960 -0.195642
C16   C     C_R   0.476809 0.501622 0.653885 0.869850
C17   C     C_R   0.522937 0.507822 0.346422 0.866481
C18   C     C_R   0.461043 0.524060 0.740226 -0.057572
C19   C     C_R   0.536702 0.558573 0.263621 -0.055171
C20   C     C_R   0.602888 0.522526 0.782034 -0.207460
H1    H     H_    0.310205 0.752746 0.138309 0.153457
H2    H     H_    0.047214 0.651247 0.860608 0.178042
H3    H     H_    0.827503 0.503321 0.043754 0.174346
H4    H     H_    0.944746 0.543401 0.118630 0.178191
H5    H     H_    0.703474 0.555661 0.893216 0.134755
H6    H     H_    0.722922 0.493022 0.752625 0.162011
H7    H     H_    0.288448 0.652417 0.272951 0.168320
H8    H     H_    0.792008 0.491766 0.238541 0.151168
H9    H     H_    0.196337 0.561144 0.747753 0.156542
H10   H     H_    0.666847 0.735124 0.987527 0.174107
H11   H     H_    0.319002 0.599153 0.023222 0.163132
H12   H     H_    0.098055 0.548758 0.938436 0.171099
N1    N     N_1   0.926360 0.500000 0.499990 -0.036875
N2    N     N_1   0.073640 0.500000 0.500010 -0.037651
N3    N     N_3   0.136370 0.638985 0.901669 -0.461668
N4    N     N_3   0.850285 0.584995 0.086103 -0.478513
O1    O     O_R   0.363150 0.714660 0.500000 -0.616254
O2    O     O_R   0.636850 0.285340 0.500000 -0.612496
O3    O     O_R   0.636850 0.714660 0.500000 -0.612570
O4    O     O_R   0.363150 0.285340 0.500000 -0.610954
O5    O     O_R   0.346950 0.500000 0.615800 -0.622582
O6    O     O_R   0.653050 0.500000 0.384200 -0.618391
O7    O     O_R   0.620700 0.500000 0.615800 -0.620781
O8    O     O_R   0.379300 0.500000 0.384200 -0.621979
Zn1   Zn    Zn3+2 0.317220 0.500000 0.500010 0.982171
Zn2   Zn    Zn3+2 0.682780 0.500000 0.499990 0.985438

loop_
_geom_bond_atom_site_label_1
_geom_bond_atom_site_label_2
_ccdc_geom_bond_type
C12   O4    A    
C2    C4    A    
C8    N4    S    
C2    H7    S    
C4    H1    S    
C1    O1    A    
C13   H10   S    
N1    Zn2   S    
C12   C15   S    
C9    H9    S    
C10   C19   A    
N1    N2    T    
C17   O8    A    
C11   H11   S    
C3    C20   A    
N2    Zn1   S    
C6    C13   S    
H2    N3    S    
C11   C13   D    
C16   O7    A    
H4    N4    S    
C20   H6    S    
O3    Zn2   S    
C4    C6    A    
C17   C19   S    
C5    C11   S    
C18   C20   A    
C12   O2    A    
O4    Zn1   S    
O7    Zn2   S    
O2    Zn2   S    
C1    O3    A    
O1    Zn1   S    
H12   N3    S    
C7    C9    A    
C9    C18   A    
C3    H5    S    
O8    Zn1   S    
C8    C10   A    
H3    N4    S    
O6    Zn2   S    
C10   H8    S    
C5    C7    A    
O5    Zn1   S    
C14   C15   T    
C6    C8    A    
C1    C14   S    
C2    C19   A    
C17   O6    A    
C7    N3    S    
C16   O5    A    
C16   C18   S    
C3    C5    A    
