data_mof_unit_39501.cif
_audit_creation_date              2012-12-10T17:51:22-0500
_audit_creation_method            fapswitch 2.2
_symmetry_space_group_name_H-M    P1
_symmetry_Int_Tables_number       1
_space_group_crystal_system       triclinic
_cell_length_a                    14.914134
_cell_length_b                    14.996681
_cell_length_c                    17.277551
_cell_angle_alpha                 110.506746
_cell_angle_beta                  74.361495
_cell_angle_gamma                 116.497618
_cell_volume                      3209.5374825

loop_
_atom_site_label
_atom_site_type_symbol
_atom_type_description
_atom_site_fract_x
_atom_site_fract_y
_atom_site_fract_z
_atom_type_partial_charge
C1    C     C_R   0.118642 0.688118 0.514472 0.803220
C2    C     C_R   0.881357 0.311881 0.485525 0.803197
C3    C     C_R   0.186752 0.797727 0.527961 -0.046293
C4    C     C_R   0.813248 0.202271 0.472027 -0.046305
C5    C     C_R   0.220727 0.979114 0.590632 -0.161886
C6    C     C_R   0.779277 0.020886 0.409345 -0.161968
C7    C     C_R   0.152801 0.876211 0.575736 -0.178544
C8    C     C_R   0.847202 0.123790 0.424252 -0.178558
C9    C     C_R   0.289232 0.823336 0.497048 -0.196642
C10   C     C_R   0.710765 0.176659 0.502929 -0.196615
C11   C     C_R   0.360874 0.924786 0.520144 0.053728
C12   C     C_R   0.639126 0.075210 0.479824 0.053724
C13   C     C_R   0.325054 0.005149 0.561221 0.111963
C14   C     C_R   0.674948 0.994848 0.438747 0.111933
C15   C     C_R   0.466679 0.948124 0.499106 -0.020169
C16   C     C_R   0.533320 0.051869 0.500856 -0.020169
C17   C     C_R   0.491817 0.128588 0.523652 0.098272
C18   C     C_R   0.508183 0.871405 0.476305 0.098268
C19   C     C_R   0.392496 0.108614 0.566113 0.157166
C20   C     C_R   0.607505 0.891381 0.433845 0.157174
C21   C     C_R   0.331363 0.413314 0.328024 -0.275778
C22   C     C_R   0.668636 0.586686 0.671973 -0.275759
C23   C     C_R   0.989074 0.502958 0.651897 0.836675
C24   C     C_R   0.010922 0.497039 0.348104 0.836677
C25   C     C_R   0.231598 0.399023 0.362565 0.005640
C26   C     C_R   0.768400 0.600975 0.637435 0.005636
C27   C     C_R   0.280742 0.476792 0.499696 0.508216
C28   C     C_R   0.719262 0.523211 0.500301 0.508227
C29   C     C_R   0.375267 0.466272 0.466931 -0.127465
C30   C     C_R   0.624735 0.533729 0.533065 -0.127486
C31   C     C_R   0.404831 0.454078 0.380624 0.087049
C32   C     C_R   0.595169 0.545923 0.619372 0.087039
C33   C     C_R   0.447884 0.483387 0.516273 0.119420
C34   C     C_R   0.552118 0.516614 0.483722 0.119405
C35   C     C_R   0.580004 0.533618 0.403853 -0.129110
C36   C     C_R   0.419997 0.466386 0.596142 -0.129149
C37   C     C_R   0.507804 0.491962 0.349945 -0.144976
C38   C     C_R   0.492197 0.508041 0.650051 -0.144950
C39   C     C_R   0.984672 0.507110 0.737775 -0.072940
C40   C     C_R   0.015310 0.492884 0.262231 -0.072921
C41   C     C_R   0.004035 0.433764 0.755037 -0.146981
C42   C     C_R   0.996065 0.566312 0.244979 -0.147239
C43   C     C_R   0.012645 0.444574 0.835863 -0.200799
C44   C     C_R   0.987424 0.555517 0.164166 -0.200288
C45   C     C_R   0.999156 0.527531 0.900968 0.032521
C46   C     C_R   0.000743 0.472476 0.099062 0.032526
C47   C     C_R   0.974609 0.599186 0.884337 0.464912
C48   C     C_R   0.025128 0.400705 0.115689 0.464658
C49   C     C_R   0.967501 0.588057 0.802245 -0.250924
C50   C     C_R   0.032297 0.411839 0.197766 -0.250751
C51   C     C_2   0.015041 0.540668 0.984966 -0.117428
C52   C     C_2   0.984847 0.459371 0.015072 -0.118747
Cu1   Cu    Cu3+1 0.916740 0.524770 0.521640 1.011982
Cu2   Cu    Cu3+1 0.083260 0.475230 0.478360 1.011961
H1    H     H_    0.016101 0.370151 0.705407 0.176884
H2    H     H_    0.984111 0.629981 0.294611 0.176884
H3    H     H_    0.532344 0.494634 0.285494 0.156441
H4    H     H_    0.467656 0.505368 0.714501 0.156509
H5    H     H_    0.824132 0.630898 0.678807 0.164017
H6    H     H_    0.175865 0.369098 0.321194 0.164021
H7    H     H_    0.351555 0.396648 0.260898 0.172203
H8    H     H_    0.648441 0.603351 0.739100 0.172208
H9    H     H_    0.658068 0.573048 0.381072 0.189627
H10   H     H_    0.341934 0.426951 0.618920 0.189604
H11   H     H_    0.047543 0.355542 0.212082 0.181666
H12   H     H_    0.952144 0.644282 0.787928 0.181804
H13   H     H_    0.947734 0.381574 0.977365 0.197111
H14   H     H_    0.052153 0.618477 0.022656 0.197435
H15   H     H_    0.966790 0.610377 0.153297 0.187227
H16   H     H_    0.033377 0.389794 0.846748 0.185962
H17   H     H_    0.687536 0.236889 0.546363 0.168683
H18   H     H_    0.312455 0.763103 0.453613 0.168673
H19   H     H_    0.926294 0.141707 0.399368 0.161727
H20   H     H_    0.073712 0.858296 0.600626 0.161706
H21   H     H_    0.190082 0.037449 0.624150 0.155649
H22   H     H_    0.809924 0.962553 0.375826 0.155692
N1    N     N_R   0.208390 0.438070 0.445820 -0.239415
N2    N     N_R   0.791610 0.561930 0.554180 -0.239406
O1    O     O_R   0.020090 0.662480 0.528530 -0.599227
O2    O     O_R   0.979910 0.337520 0.471470 -0.599239
O3    O     O_R   0.160710 0.620650 0.491980 -0.536956
O4    O     O_R   0.839290 0.379350 0.508020 -0.536957
O5    O     O_R   0.921540 0.523360 0.633990 -0.620171
O6    O     O_R   0.078460 0.476640 0.366010 -0.620167
O7    O     O_R   0.062170 0.481520 0.597440 -0.490254
O8    O     O_R   0.937830 0.518480 0.402560 -0.490219
C53   C     C_3   0.541590 0.220754 0.487258 -0.715196
H23   H     H_    0.576148 0.293367 0.535080 0.219517
H24   H     H_    0.598967 0.209952 0.432701 0.280137
H25   H     H_    0.484515 0.228982 0.463128 0.254731
C54   C     C_3   0.458413 0.779236 0.512696 -0.715192
H26   H     H_    0.401041 0.790037 0.567256 0.280145
H27   H     H_    0.423852 0.706625 0.464873 0.219500
H28   H     H_    0.515492 0.771004 0.536819 0.254736
S1    S     S_3+6 0.725427 0.434890 0.396987 -0.013404
O9    O     O_2   0.774869 0.363302 0.386823 -0.269973
O10   O     O_2   0.621077 0.365552 0.374099 -0.334427
O11   O     O_3   0.787855 0.504334 0.327065 -0.576116
H29   H     H_    0.770345 0.454882 0.272326 0.382494
S2    S     S_3+6 0.274588 0.565125 0.603006 -0.013412
O12   O     O_2   0.378946 0.634472 0.625874 -0.334449
O13   O     O_2   0.225133 0.636703 0.613176 -0.269915
O14   O     O_3   0.212190 0.495697 0.672940 -0.576260
H30   H     H_    0.229752 0.545146 0.727668 0.382469
S3    S     S_3+6 0.952756 0.702795 0.964331 0.003231
O15   O     O_2   0.052215 0.783473 0.991405 -0.283295
O16   O     O_2   0.903730 0.750137 0.933510 -0.262771
O17   O     O_3   0.876867 0.659116 0.046069 -0.549216
H31   H     H_    0.877440 0.722050 0.091296 0.376407
S4    S     S_3+6 0.046684 0.296934 0.035705 0.003772
O18   O     O_2   0.095267 0.249173 0.066522 -0.260601
O19   O     O_2   0.947118 0.216607 0.008576 -0.285297
O20   O     O_3   0.122881 0.340556 0.954025 -0.547983
H32   H     H_    0.118889 0.277536 0.907738 0.375296
C55   C     C_3   0.356546 0.196344 0.609709 -0.875784
H33   H     H_    0.419137 0.273557 0.615472 0.245737
H34   H     H_    0.300813 0.191235 0.575111 0.232433
H35   H     H_    0.321284 0.192248 0.674416 0.240251
C56   C     C_3   0.643455 0.803652 0.390242 -0.875928
H36   H     H_    0.580862 0.726438 0.384470 0.245729
H37   H     H_    0.678723 0.807759 0.325537 0.240057
H38   H     H_    0.699182 0.808751 0.424840 0.232508

loop_
_geom_bond_atom_site_label_1
_geom_bond_atom_site_label_2
_ccdc_geom_bond_type
C15   C18   A    
C48   S4    S    
C53   H23   S    
C29   C33   A    
C27   C29   A    
S1    O9    D    
C9    H18   S    
C4    C8    A    
Cu2   O6    S    
S1    O11   S    
C39   C41   A    
Cu1   Cu2   S    
S3    O16   D    
C26   N2    A    
C22   C32   A    
C28   S1    S    
C25   N1    A    
C18   C54   S    
Cu1   O1    S    
C3    C7    A    
C23   C39   S    
C6    C14   A    
C45   C51   S    
C1    O3    A    
C15   C16   A    
C46   C52   S    
C33   C36   A    
O17   H31   S    
C34   C35   A    
C45   C47   A    
S4    O18   D    
C41   H1    S    
C42   H2    S    
C38   H4    S    
C11   C15   A    
C12   C16   A    
C16   C17   A    
C55   H34   S    
Cu1   O8    S    
C25   H6    S    
C32   C38   A    
C28   N2    A    
C26   H5    S    
C5    C13   A    
Cu2   N1    S    
C10   H17   S    
C48   C50   A    
C41   C43   A    
C42   C44   A    
C10   C12   A    
C44   C46   A    
C7    H20   S    
Cu2   O2    S    
C56   H37   S    
S3    O17   S    
C46   C48   A    
C27   S2    S    
C49   H12   S    
C30   C34   A    
C51   C52   D    
C14   C20   A    
C47   C49   A    
C54   H26   S    
C5    C7    A    
C13   C19   A    
C17   C19   A    
C6    C8    A    
C47   S3    S    
C54   H27   S    
S2    O14   S    
C31   C37   A    
Cu1   O4    S    
C1    C3    S    
C5    H21   S    
C2    C4    S    
C3    C9    A    
C22   H8    S    
C21   C31   A    
C19   C55   S    
C55   H35   S    
S2    O13   D    
C33   C34   A    
C44   H15   S    
C43   C45   A    
S4    O20   S    
C52   H13   S    
C23   O5    A    
C39   C49   A    
C12   C14   A    
C43   H16   S    
C9    C11   A    
C23   O7    A    
C1    O1    A    
C2    O4    A    
C4    C10   A    
C36   C38   A    
O20   H32   S    
C56   H38   S    
C21   C25   A    
C35   C37   A    
C17   C53   S    
C21   H7    S    
C27   N1    A    
Cu2   O7    S    
C35   H9    S    
C56   H36   S    
S1    O10   D    
C6    H22   S    
S3    O15   D    
Cu1   O5    S    
C53   H24   S    
Cu1   N2    S    
C24   O6    A    
C28   C30   A    
C29   C31   A    
C54   H28   S    
C30   C32   A    
C11   C13   A    
C40   C50   A    
C40   C42   A    
C8    H19   S    
C24   C40   S    
C18   C20   A    
C51   H14   S    
Cu2   O3    S    
C50   H11   S    
S4    O19   D    
C2    O2    A    
O11   H29   S    
C22   C26   A    
C53   H25   S    
O14   H30   S    
S2    O12   D    
C36   H10   S    
C24   O8    A    
C20   C56   S    
C37   H3    S    
C55   H33   S    
