data_mof_unit_5761.cif
_audit_creation_date              2012-12-11T15:08:41-0500
_audit_creation_method            fapswitch 2.2
_symmetry_space_group_name_H-M    P1
_symmetry_Int_Tables_number       1
_space_group_crystal_system       triclinic
_cell_length_a                    26.809287
_cell_length_b                    7.074951
_cell_length_c                    11.986028
_cell_angle_alpha                 89.793524
_cell_angle_beta                  103.388417
_cell_angle_gamma                 89.313538
_cell_volume                      2211.45029323

loop_
_atom_site_label
_atom_site_type_symbol
_atom_type_description
_atom_site_fract_x
_atom_site_fract_y
_atom_site_fract_z
_atom_type_partial_charge
O1    O     O_R   0.437360 0.505910 0.042120 -0.537752
O2    O     O_R   0.562640 0.005910 0.957880 -0.538574
O3    O     O_R   0.542480 0.176660 0.157100 -0.541480
O4    O     O_R   0.457520 0.676660 0.842900 -0.541178
C1    C     C_R   0.556455 0.343503 0.198048 0.690743
C2    C     C_R   0.443609 0.845642 0.801982 0.691202
O5    O     O_R   0.436520 0.176250 0.054800 -0.541838
O6    O     O_R   0.563480 0.676250 0.945200 -0.541353
O7    O     O_R   0.455920 0.005040 0.854840 -0.538471
O8    O     O_R   0.544080 0.505040 0.145160 -0.538414
C3    C     C_R   0.417508 0.345683 0.063494 0.689359
C4    C     C_R   0.582539 0.843836 0.936607 0.688779
O9    O     O_3   0.506490 0.338900 0.934520 -0.373673
O10   O     O_3   0.493510 0.838900 0.065480 -0.373343
V1    V     V_3+5 0.498800 0.064400 0.012150 1.421441
V2    V     V_3+5 0.501200 0.564400 0.987850 1.423189
C5    C     C_R   0.681263 0.829560 0.759622 -0.155098
C6    C     C_R   0.318960 0.410079 0.238170 -0.156095
H1    H     H_    0.599098 0.822927 0.722956 0.105393
H2    H     H_    0.401184 0.405433 0.274895 0.105483
H3    H     H_    0.774924 0.824469 0.722544 0.138394
H4    H     H_    0.225338 0.441050 0.274041 0.138979
H5    H     H_    0.682023 0.818066 0.669857 0.129866
H6    H     H_    0.318298 0.436563 0.326855 0.130227
C7    C     C_R   0.631956 0.848470 0.904323 -0.031500
C8    C     C_R   0.368083 0.357546 0.095514 -0.031581
C9    C     C_R   0.867812 0.877363 0.211157 -0.182529
C10   C     C_R   0.132036 0.323317 0.790382 -0.183558
C11   C     C_R   0.821983 0.880145 0.246452 -0.112823
C12   C     C_R   0.177838 0.305003 0.755769 -0.114143
C13   C     C_R   0.775247 0.871745 0.166261 -0.166162
C14   C     C_R   0.224639 0.317689 0.835385 -0.166349
C15   C     C_R   0.773179 0.860190 0.047209 0.072156
C16   C     C_R   0.226802 0.349445 0.953140 0.072171
C17   C     C_R   0.820470 0.855398 0.011676 0.066790
C18   C     C_R   0.179562 0.369641 0.987898 0.066507
C19   C     C_R   0.725874 0.853443 0.962364 0.068217
C20   C     C_R   0.274149 0.361522 0.037450 0.068167
C21   C     C_R   0.727053 0.839483 0.844588 0.136422
C22   C     C_R   0.273088 0.395397 0.153850 0.136043
C23   C     C_R   0.773828 0.834739 0.812191 -0.207918
C24   C     C_R   0.226354 0.415149 0.185473 -0.207516
C25   C     C_R   0.819777 0.843153 0.894115 -0.210096
C26   C     C_R   0.180345 0.402075 0.104119 -0.209380
C27   C     C_R   0.677273 0.859363 0.989951 -0.220916
C28   C     C_R   0.322686 0.341857 0.010595 -0.220537
C29   C     C_R   0.634044 0.832860 0.789442 -0.189145
C30   C     C_R   0.366148 0.392028 0.209018 -0.190206
C31   C     C_R   0.867638 0.864595 0.094755 -0.075588
C32   C     C_R   0.132332 0.355720 0.905459 -0.075443
H7    H     H_    0.673107 0.870021 0.076988 0.097747
H8    H     H_    0.326767 0.316225 0.924585 0.097833
H9    H     H_    0.903689 0.885552 0.274987 0.103318
H10   H     H_    0.096089 0.311710 0.727101 0.103460
H11   H     H_    0.741541 0.874557 0.200635 0.114701
H12   H     H_    0.258316 0.301889 0.801607 0.115055
H13   H     H_    0.854915 0.839457 0.864234 0.129385
H14   H     H_    0.145236 0.418172 0.133351 0.129721
C33   C     C_R   0.091435 0.853730 0.310905 -0.033798
C34   C     C_R   0.908646 0.365421 0.688655 -0.033880
C35   C     C_R   0.408972 0.858265 0.688297 -0.031584
C36   C     C_R   0.590982 0.347065 0.312078 -0.031580
C37   C     C_R   0.106215 0.784609 0.513178 -0.165307
C38   C     C_R   0.894071 0.407855 0.483814 -0.166638
C39   C     C_R   0.072581 0.807187 0.406446 -0.177232
C40   C     C_R   0.927607 0.397087 0.591320 -0.176601
C41   C     C_R   0.144096 0.876594 0.321709 -0.219714
C42   C     C_R   0.855928 0.345631 0.678725 -0.219552
C43   C     C_R   0.179371 0.851390 0.428911 0.079741
C44   C     C_R   0.820719 0.360202 0.570641 0.080541
C45   C     C_R   0.159211 0.805450 0.525142 0.132474
C46   C     C_R   0.841020 0.390974 0.472711 0.132421
C47   C     C_R   0.233699 0.868460 0.443595 0.048337
C48   C     C_R   0.766311 0.347979 0.556671 0.049171
C49   C     C_R   0.266829 0.839775 0.554813 0.052741
C50   C     C_R   0.733253 0.366359 0.444527 0.052742
C51   C     C_R   0.244536 0.795172 0.647500 -0.196282
C52   C     C_R   0.755703 0.395667 0.350200 -0.196739
C53   C     C_R   0.191935 0.778830 0.632630 -0.202226
C54   C     C_R   0.808376 0.407177 0.364349 -0.201155
C55   C     C_R   0.256002 0.912825 0.350887 -0.195365
C56   C     C_R   0.743855 0.318741 0.650995 -0.195159
C57   C     C_R   0.308605 0.930018 0.365917 -0.204380
C58   C     C_R   0.691173 0.306653 0.636749 -0.203914
C59   C     C_R   0.341311 0.904243 0.473560 0.132866
C60   C     C_R   0.658534 0.322481 0.528309 0.133060
C61   C     C_R   0.321140 0.857693 0.569661 0.080924
C62   C     C_R   0.678851 0.353705 0.430466 0.081307
C63   C     C_R   0.394285 0.926759 0.485887 -0.163574
C64   C     C_R   0.605485 0.304665 0.516983 -0.164814
C65   C     C_R   0.427851 0.905470 0.592870 -0.178541
C66   C     C_R   0.571994 0.314853 0.409341 -0.177783
C67   C     C_R   0.356361 0.833372 0.677037 -0.218332
C68   C     C_R   0.643679 0.367940 0.322295 -0.218766
H15   H     H_    0.176711 0.744014 0.706373 0.142234
H16   H     H_    0.823717 0.430485 0.289338 0.141231
H17   H     H_    0.344456 0.798766 0.754412 0.097302
H18   H     H_    0.655712 0.390120 0.243610 0.097274
H19   H     H_    0.468526 0.926512 0.601409 0.100921
H20   H     H_    0.531279 0.296390 0.401716 0.100850
H21   H     H_    0.323835 0.965150 0.292230 0.141134
H22   H     H_    0.675825 0.283066 0.711719 0.140355
H23   H     H_    0.090822 0.748564 0.586449 0.115144
H24   H     H_    0.909573 0.432473 0.409211 0.115664
H25   H     H_    0.031870 0.787452 0.398156 0.101477
H26   H     H_    0.968339 0.414791 0.598800 0.101443
H27   H     H_    0.155986 0.910518 0.244205 0.103415
H28   H     H_    0.843915 0.323904 0.757490 0.103519
H29   H     H_    0.266586 0.771298 0.733608 0.129737
H30   H     H_    0.733717 0.411081 0.263324 0.129379
H31   H     H_    0.233946 0.936124 0.264713 0.137820
H32   H     H_    0.765853 0.303598 0.737889 0.137764
H33   H     H_    0.409702 0.963264 0.412725 0.114579
H34   H     H_    0.589957 0.279684 0.591507 0.115071
O11   O     O_R   0.955980 0.206520 0.854760 -0.538496
O12   O     O_R   0.044020 0.706520 0.145240 -0.539488
O13   O     O_R   0.063490 0.536770 0.945200 -0.541534
O14   O     O_R   0.936510 0.036770 0.054800 -0.540273
C69   C     C_R   0.082807 0.367508 0.937866 0.680658
C70   C     C_R   0.917152 0.869373 0.062065 0.680232
O15   O     O_R   0.957530 0.536190 0.842880 -0.542251
O16   O     O_R   0.042470 0.036190 0.157120 -0.541106
O17   O     O_R   0.937350 0.707210 0.042130 -0.538467
O18   O     O_R   0.062650 0.207210 0.957870 -0.536858
C71   C     C_R   0.943264 0.368824 0.802462 0.692508
C72   C     C_R   0.056690 0.866623 0.197482 0.692805
O19   O     O_3   0.993540 0.373870 0.065440 -0.373592
O20   O     O_3   0.006460 0.873870 0.934560 -0.373278
V3    V     V_3+5 0.001200 0.648440 0.987860 1.417690
V4    V     V_3+5 0.998800 0.148440 0.012140 1.422134
H35   H     H_    0.822627 0.889481 0.336942 0.135459
H36   H     H_    0.177117 0.280187 0.666303 0.136049

loop_
_geom_bond_atom_site_label_1
_geom_bond_atom_site_label_2
_ccdc_geom_bond_type
C12   C14   A    
C37   C39   A    
O16   C72   A    
C67   H17   S    
C9    C11   A    
C58   H22   S    
O1    C3    A    
O2    C4    A    
O20   V3    S    
C2    O7    A    
C45   C53   A    
O3    V1    S    
C21   C23   A    
C11   H35   S    
C69   O18   A    
C33   C72   S    
O5    C3    A    
C5    H5    S    
C48   C50   A    
C6    H6    S    
C50   C52   A    
C2    C35   S    
C34   C71   S    
C58   C60   A    
O13   C69   A    
C60   C62   A    
C31   C70   S    
C68   H18   S    
C28   H8    S    
C5    C21   A    
C47   C55   A    
C43   C45   A    
C6    C22   A    
C44   C48   A    
C33   C41   A    
O15   C71   A    
C10   C32   A    
O12   V3    S    
C55   H31   S    
C26   H14   S    
C36   C66   A    
C17   C31   A    
C13   C15   A    
C43   C47   A    
C63   C65   A    
C17   C25   A    
C7    C29   A    
C16   C18   A    
C70   O17   A    
C8    C30   A    
O13   V3    S    
C59   C61   A    
C34   C40   A    
O6    V2    S    
O12   C72   A    
O17   V3    S    
C23   C25   A    
C64   H34   S    
C24   C26   A    
C48   C56   A    
C39   H25   S    
C55   C57   A    
C62   C68   A    
C51   C53   A    
C40   H26   S    
C63   H33   S    
C32   C69   S    
C37   H23   S    
C60   C64   A    
C59   C63   A    
C3    C8    S    
C15   C19   A    
C6    C30   A    
C41   C43   A    
C56   H32   S    
O4    V2    S    
O19   V3    S    
C53   H15   S    
O14   V4    S    
C25   H13   S    
C64   C66   A    
O6    C4    A    
C52   C54   A    
O18   V4    S    
C52   H30   S    
O1    V2    S    
C51   H29   S    
O2    V1    S    
C49   C51   A    
C38   C40   A    
H2    C30   S    
H3    C23   S    
C49   C61   A    
C57   C59   A    
C37   C45   A    
C56   C58   A    
C36   C68   A    
C18   C26   A    
O4    C2    A    
C54   H16   S    
C47   C49   A    
C19   C27   A    
C7    C27   A    
C18   C32   A    
C66   H20   S    
C38   H24   S    
C50   C62   A    
C10   H10   S    
C57   H21   S    
C16   C20   A    
C5    C29   A    
O15   V3    S    
C22   C24   A    
O3    C1    A    
O20   V4    S    
C9    H9    S    
O11   C71   A    
C4    C7    S    
C13   H11   S    
C10   C12   A    
O7    V1    S    
O19   V4    S    
C1    O8    A    
C46   C54   A    
O8    V2    S    
C33   C39   A    
C20   C22   A    
C41   H27   S    
H4    C24   S    
C12   H36   S    
C61   C67   A    
O5    V1    S    
C15   C17   A    
C14   H12   S    
C1    C36   S    
H1    C29   S    
C38   C46   A    
O14   C70   A    
C20   C28   A    
C8    C28   A    
C9    C31   A    
C19   C21   A    
C34   C42   A    
C11   C13   A    
O9    V2    S    
C42   C44   A    
C27   H7    S    
O10   V1    S    
C44   C46   A    
C42   H28   S    
C65   H19   S    
C35   C67   A    
O16   V4    S    
C35   C65   A    
C14   C16   A    
O11   V4    S    
