data_mof_unit_35081.cif
_audit_creation_date              2012-12-11T20:00:36-0500
_audit_creation_method            fapswitch 2.2
_symmetry_space_group_name_H-M    P1
_symmetry_Int_Tables_number       1
_space_group_crystal_system       triclinic
_cell_length_a                    8.234304
_cell_length_b                    16.246877
_cell_length_c                    27.079182
_cell_angle_alpha                 72.412099
_cell_angle_beta                  96.861942
_cell_angle_gamma                 95.973607
_cell_volume                      3419.76518953

loop_
_atom_site_label
_atom_site_type_symbol
_atom_type_description
_atom_site_fract_x
_atom_site_fract_y
_atom_site_fract_z
_atom_type_partial_charge
Ba1   Ba    Ba6+2 0.337820 0.939830 0.518500 1.644229
Ba2   Ba    Ba6+2 0.851970 0.060110 0.481480 1.653309
C1    C     C_3   0.071913 0.524893 0.612546 -0.369692
C2    C     C_R   0.444247 0.396634 0.188459 0.573681
C3    C     C_2   0.280356 0.277413 0.279150 -0.069589
C4    C     C_3   0.540933 0.639286 0.629938 0.335968
C5    C     C_3   0.274228 0.247522 0.337296 -0.050970
C6    C     C_1   0.474636 0.143843 0.341419 0.027477
C7    C     C_2   0.514048 0.188293 0.293506 -0.101268
C8    C     C_2   0.408535 0.258084 0.258593 0.189491
C9    C     C_R   0.520984 0.402275 0.102998 -0.080101
C10   C     C_R   0.523702 0.311359 0.120209 -0.040545
C11   C     C_R   0.563945 0.269151 0.085730 -0.047912
C12   C     C_3   0.061515 0.620992 0.604770 0.351351
C13   C     C_R   0.480696 0.444781 0.137549 -0.023824
C14   C     C_2   0.357292 0.165325 0.363611 -0.294295
C15   C     C_2   0.839279 0.838024 0.637740 -0.279472
C16   C     C_3   0.520488 0.564256 0.678959 -0.317750
C17   C     C_R   0.633814 0.455231 0.964874 0.020413
C18   C     C_R   0.592138 0.591061 0.983067 0.020179
C19   C     C_R   0.631089 0.547115 0.948379 0.050230
C20   C     C_R   0.672537 0.414935 0.928578 -0.100224
C21   C     C_R   0.707745 0.462657 0.878477 -0.059439
C22   C     C_R   0.706339 0.553062 0.861805 -0.024620
C23   C     C_3   0.080578 0.015335 0.646752 0.292919
C24   C     C_R   0.667915 0.595604 0.896582 -0.079426
C25   C     C_R   0.666866 0.686590 0.879582 -0.036583
C26   C     C_R   0.704900 0.733673 0.828350 0.598033
C27   C     C_R   0.742432 0.601272 0.810849 0.574349
C28   C     C_3   0.599844 0.885335 0.389234 0.322759
C29   C     C_2   0.906950 0.720609 0.720115 -0.087088
C30   C     C_3   0.915227 0.753223 0.662077 -0.046219
C31   C     C_1   0.717161 0.857143 0.658995 0.033360
C32   C     C_2   0.675642 0.811215 0.706444 -0.102084
C33   C     C_2   0.779366 0.740080 0.740911 0.193649
C34   C     C_3   0.084447 0.976468 0.705460 -0.354039
C35   C     C_R   0.597876 0.406834 0.016634 0.019603
C36   C     C_R   0.558067 0.450750 0.051226 0.051153
C37   C     C_R   0.554711 0.542605 0.034657 0.019875
C38   C     C_R   0.600232 0.315425 0.035360 -0.097607
C39   C     C_R   0.477635 0.535099 0.120692 -0.056857
C40   C     C_3   0.574420 0.813495 0.363207 -0.362892
C41   C     C_R   0.592328 0.682584 0.964634 -0.097536
C42   C     C_R   0.628831 0.728876 0.914304 -0.058662
C43   C     C_R   0.513489 0.582813 0.070669 -0.099896
C44   C     C_2   0.402397 0.245348 0.512977 -0.290544
C45   C     C_3   0.648888 0.359431 0.368078 0.337945
C46   C     C_R   0.801434 0.759804 0.490286 -0.308381
C47   C     C_2   0.256264 0.312307 0.563186 -0.130969
C48   C     C_2   0.270081 0.245129 0.545278 0.042771
C49   C     C_2   0.509469 0.313992 0.499064 0.005502
C50   C     C_3   0.466862 0.399035 0.504261 -0.051221
C51   C     C_3   0.380790 0.388381 0.553236 0.018774
C52   C     C_3   0.599805 0.115684 0.610083 0.312200
C53   C     C_2   0.606251 0.465923 0.500603 -0.067127
C54   C     C_2   0.572773 0.548756 0.485489 -0.071063
C55   C     C_R   0.840048 0.617663 0.456380 -0.000344
C56   C     C_3   0.670016 0.433042 0.318404 -0.311850
C57   C     C_R   0.702195 0.618645 0.481876 -0.040726
C58   C     C_R   0.954519 0.688620 0.446176 -0.131169
C59   C     C_R   0.932022 0.760858 0.461744 0.069707
C60   C     C_R   0.682572 0.690497 0.498801 0.002318
C61   C     C_3   0.640849 0.189145 0.634492 -0.375231
C62   C     C_3   0.115705 0.990467 0.357252 0.312148
C63   C     C_3   0.115174 0.025915 0.298314 -0.021877
C64   C     C_3   0.129222 0.379832 0.393897 0.352766
C65   C     C_3   0.116894 0.475953 0.385578 -0.364967
C66   C     C_R   0.485364 0.264306 0.171428 0.614418
H1    H     H_    0.100844 0.657294 0.565730 0.074345
H2    H     H_    0.244116 0.990705 0.374656 -0.029605
H3    H     H_    0.047221 0.033107 0.371222 0.072578
H4    H     H_    0.197538 0.511696 0.607639 0.148163
H5    H     H_    0.182137 0.983741 0.283458 0.111439
H6    H     H_    0.176666 0.091992 0.287610 0.030654
H7    H     H_    0.930945 0.631451 0.606079 -0.056605
H8    H     H_    0.984978 0.504029 0.583221 0.069488
H9    H     H_    0.951245 0.015100 0.629875 0.014756
H10   H     H_    0.149474 0.974503 0.631476 0.071451
H11   H     H_    0.011007 0.013956 0.721737 0.135972
H12   H     H_    0.649827 0.829704 0.329716 0.154456
H13   H     H_    0.032457 0.908326 0.715202 0.071682
H14   H     H_    0.212915 0.977726 0.723379 0.133532
H15   H     H_    0.039299 0.486920 0.652067 0.122623
H16   H     H_    0.541229 0.588982 0.713226 0.124643
H17   H     H_    0.708436 0.302931 0.365187 0.092904
H18   H     H_    0.516047 0.342539 0.371487 -0.051887
H19   H     H_    0.796365 0.464160 0.318707 0.144570
H20   H     H_    0.648728 0.406978 0.284670 0.121187
H21   H     H_    0.581870 0.482535 0.314223 0.122198
H22   H     H_    0.259559 0.370265 0.391612 -0.058802
H23   H     H_    0.610797 0.751484 0.391036 0.050672
H24   H     H_    0.093527 0.343844 0.433449 0.073851
H25   H     H_    0.204477 0.497954 0.414315 0.067707
H26   H     H_    0.991291 0.488579 0.390878 0.150478
H27   H     H_    0.478082 0.694403 0.633315 0.095449
H28   H     H_    0.147379 0.513471 0.345751 0.123566
H29   H     H_    0.624245 0.175313 0.279701 0.156735
H30   H     H_    0.567716 0.199373 0.097611 0.133990
H31   H     H_    0.989905 0.672738 0.743234 0.119694
H32   H     H_    0.736475 0.427820 0.852602 0.122763
H33   H     H_    0.676659 0.346012 0.937354 0.071161
H34   H     H_    0.443079 0.805431 0.349158 0.124227
H35   H     H_    0.629989 0.276787 0.012145 0.072646
H36   H     H_    0.196217 0.324339 0.255652 0.120933
H37   H     H_    0.446981 0.569874 0.146347 0.124995
H38   H     H_    0.565160 0.721351 0.988119 0.071873
H39   H     H_    0.673580 0.657903 0.627115 -0.050060
H40   H     H_    0.626996 0.798742 0.902651 0.123732
H41   H     H_    0.566196 0.824745 0.720427 0.132326
H42   H     H_    0.507080 0.651625 0.061656 0.072549
H43   H     H_    0.342436 0.135322 0.404595 0.083753
H44   H     H_    0.868616 0.875237 0.598870 0.077931
H45   H     H_    0.467472 0.111648 0.598024 -0.006836
H46   H     H_    0.163533 0.308979 0.589181 0.078063
H47   H     H_    0.056136 0.688593 0.424270 0.094098
H48   H     H_    0.420581 0.185793 0.504724 0.063260
H49   H     H_    0.785761 0.815945 0.502377 0.072761
H50   H     H_    0.731076 0.447717 0.513360 0.097243
H51   H     H_    0.394379 0.532885 0.678320 0.141715
H52   H     H_    0.445921 0.565111 0.476332 0.102367
H53   H     H_    0.609350 0.515391 0.682457 0.120604
H54   H     H_    0.731109 0.893716 0.402121 0.008677
H55   H     H_    0.526019 0.867004 0.423155 0.052451
H56   H     H_    0.670809 0.129376 0.575814 0.071109
H57   H     H_    0.565169 0.179542 0.667366 0.127492
H58   H     H_    0.616282 0.252100 0.605352 0.059528
H59   H     H_    0.772734 0.190963 0.649082 0.127816
I1    I     I_    0.870344 0.033686 0.261374 -0.362745
N1    N     N_R   0.446640 0.306807 0.205411 -0.423837
N2    N     N_R   0.741419 0.691163 0.794088 -0.421489
O1    O     O_2   0.431310 0.922990 0.623550 -0.459892
O2    O     O_2   0.848134 0.307068 0.503636 -0.486764
O3    O     O_3   0.722043 0.385990 0.410739 -0.601759
O4    O     O_3   0.663280 0.983100 0.563360 -0.499931
O5    O     O_3   0.016420 0.932050 0.462720 -0.491782
O6    O     O_2   0.959730 0.164640 0.549160 -0.456519
O7    O     O_3   0.152174 0.100319 0.635416 -0.639703
O8    O     O_2   0.927193 0.212448 0.327668 -0.479992
O9    O     O_3   0.024314 0.352505 0.355866 -0.597132
O10   O     O_2   0.484033 0.185370 0.185313 -0.569209
O11   O     O_2   0.773901 0.562530 0.781294 -0.621233
O12   O     O_3   0.043274 0.905706 0.370072 -0.623276
O13   O     O_2   0.411374 0.435389 0.217834 -0.620304
O14   O     O_2   0.707990 0.812658 0.814700 -0.596398
O15   O     O_3   0.126250 0.812630 0.574830 -0.483298
O16   O     O_2   0.262710 0.786856 0.672261 -0.495150
O17   O     O_3   0.638958 0.038216 0.647334 -0.625611
O18   O     O_3   0.164143 0.646899 0.643771 -0.597530
O19   O     O_2   0.229950 0.835370 0.450810 -0.460906
O20   O     O_3   0.517580 0.797570 0.545130 -0.494948
O21   O     O_2   0.343192 0.694891 0.494545 -0.492586
O22   O     O_3   0.471528 0.613596 0.586576 -0.602602
O23   O     O_2   0.758370 0.077020 0.376420 -0.445738
O24   O     O_3   0.526390 0.016840 0.436620 -0.503483
O25   O     O_3   0.063420 0.187310 0.425160 -0.477454
O26   O     O_3   0.550652 0.961692 0.352762 -0.606811
O27   O     O_3   0.173250 0.067890 0.537260 -0.480998
O28   O     O_3   0.672100 0.202370 0.454860 -0.493975
P1    P     P_3+3 0.610630 0.953360 0.619150 0.989774
P2    P     P_3+3 0.057260 0.861390 0.437850 0.991600
P3    P     P_3+3 0.502389 0.699382 0.530408 0.940330
P4    P     P_3+3 0.579040 0.046590 0.380840 1.011436
P5    P     P_3+3 0.688984 0.302327 0.467689 0.943565
P6    P     P_3+3 0.119987 0.751873 0.639765 0.945481
P7    P     P_3+3 0.142745 0.145176 0.567795 0.950164
P8    P     P_3+3 0.069689 0.247649 0.360121 0.953122

loop_
_geom_bond_atom_site_label_1
_geom_bond_atom_site_label_2
_ccdc_geom_bond_type
C53   C54   D    
C40   H12   S    
Ba2   O25   S    
C12   O18   S    
C9    C36   A    
Ba1   O15   S    
C19   C24   A    
O17   P1    S    
C56   H19   S    
Ba2   P4    S    
C2    O13   D    
O7    P7    S    
C64   H22   S    
C10   C66   A    
C24   C25   A    
Ba2   O4    S    
C20   H33   S    
C39   H37   S    
C23   H9    S    
C45   H17   S    
C17   C19   A    
C22   C24   A    
Ba1   Ba2   S    
C35   C38   A    
C36   C37   A    
C55   C57   A    
C60   P3    S    
C52   C61   S    
O25   P8    S    
C52   H45   S    
O3    P5    S    
C63   H5    S    
C32   C33   S    
C62   H3    S    
C11   H30   S    
C22   C27   A    
C11   C38   A    
C17   C35   A    
C9    C13   A    
C25   C42   A    
C64   O9    S    
C28   H54   S    
C34   H14   S    
C6    C7    D    
O21   P3    D    
C65   H26   S    
C16   H16   S    
C4    H39   S    
Ba1   O19   S    
C26   O14   D    
C29   H31   S    
C7    C8    S    
O22   P3    S    
C50   C53   S    
C37   C43   A    
C4    O22   S    
C28   O26   S    
C21   H32   S    
C3    H36   S    
O26   P4    S    
Ba2   O24   S    
C45   O3    S    
C54   H52   S    
C66   N1    Am   
C15   C31   D    
C40   H34   S    
C56   H21   S    
C42   H40   S    
C4    C16   S    
C49   C50   S    
O18   P6    S    
C45   H18   S    
Ba1   P1    S    
C17   C20   A    
C13   C39   A    
C59   P2    S    
O27   P7    S    
C3    C5    S    
C18   C37   A    
C43   H42   S    
C55   C58   A    
C64   H24   S    
C16   H53   S    
O16   P6    D    
C44   C49   D    
Ba2   O6    S    
C63   H6    S    
C23   H10   S    
C58   C59   A    
C41   H38   S    
O9    P8    S    
C23   O7    S    
C41   C42   A    
C63   I1    S    
C35   C36   A    
C46   C60   A    
C27   N2    Am   
C34   H13   S    
Ba2   O28   S    
C27   O11   D    
C18   C19   A    
C48   P7    S    
C31   C32   D    
C2    N1    Am   
Ba1   O20   S    
C28   H55   S    
C49   P5    S    
C1    H8    S    
C33   N2    S    
C61   H57   S    
C1    C12   S    
O28   P5    S    
O4    P1    S    
C5    C14   S    
C5    P8    S    
C47   C48   D    
Ba2   O23   S    
C62   H2    S    
C1    H15   S    
C65   H28   S    
C12   H1    S    
C29   C33   D    
C66   O10   D    
Ba1   O4    S    
C15   H44   S    
C18   C41   A    
C50   C51   S    
C15   C30   S    
O20   P3    S    
C52   H56   S    
O1    P1    D    
C57   C60   A    
C7    H29   S    
O5    P2    S    
C21   C22   A    
O24   P4    S    
C29   C30   S    
O12   P2    S    
Ba1   O1    S    
C34   H11   S    
C56   H20   S    
C9    C10   A    
C46   H49   S    
O15   P6    S    
C44   C48   S    
Ba2   O5    S    
C54   C57   S    
C44   H48   S    
O23   P4    D    
O8    P8    D    
C62   C63   S    
C2    C13   A    
Ba1   O27   S    
C1    H4    S    
C8    N1    S    
C3    C8    D    
C6    P4    S    
C12   H7    S    
C38   H35   S    
C47   H46   S    
C46   C59   A    
Ba1   P2    S    
C62   O12   S    
Ba2   O27   S    
C47   C51   S    
C30   P6    S    
C64   C65   S    
C26   N2    Am   
Ba1   O24   S    
O19   P2    D    
O2    P5    D    
C61   H58   S    
C23   C34   S    
C31   P1    S    
C10   C11   A    
C6    C14   D    
C4    H27   S    
O6    P7    D    
C25   C26   A    
C65   H25   S    
C32   H41   S    
C39   C43   A    
C20   C21   A    
C28   C40   S    
C58   H47   S    
Ba1   O5    S    
C16   H51   S    
C61   H59   S    
C40   H23   S    
C14   H43   S    
C52   O17   S    
C45   C56   S    
C53   H50   S    
