data_mof_unit_8012.cif
_audit_creation_date              2012-12-11T15:42:43-0500
_audit_creation_method            fapswitch 2.2
_symmetry_space_group_name_H-M    P1
_symmetry_Int_Tables_number       1
_space_group_crystal_system       triclinic
_cell_length_a                    6.927395
_cell_length_b                    14.593729
_cell_length_c                    16.194289
_cell_angle_alpha                 90.56808
_cell_angle_beta                  90.086799
_cell_angle_gamma                 89.804871
_cell_volume                      1637.09458704

loop_
_atom_site_label
_atom_site_type_symbol
_atom_type_description
_atom_site_fract_x
_atom_site_fract_y
_atom_site_fract_z
_atom_type_partial_charge
O1    O     O_R   0.505810 0.583360 0.413880 -0.541567
O2    O     O_R   0.175870 0.595480 0.585520 -0.539802
O3    O     O_R   0.005540 0.416640 0.586120 -0.542875
C1    C     C_R   0.344660 0.617402 0.614688 0.706279
O4    O     O_R   0.176100 0.594390 0.414490 -0.543904
O5    O     O_R   0.005770 0.415540 0.413870 -0.542644
C2    C     C_R   0.344756 0.615937 0.385465 0.696682
O6    O     O_R   0.505580 0.584460 0.586130 -0.542746
O7    O     O_3   0.339190 0.441320 0.500000 -0.369394
V1    V     V_3+5 0.064350 0.510890 0.500000 1.420034
O8    O     O_R   0.676050 0.404520 0.414480 -0.544996
C3    C     C_R   0.845185 0.382142 0.385668 0.684873
O9    O     O_R   0.675830 0.405610 0.585510 -0.537763
C4    C     C_R   0.845779 0.382553 0.612247 0.759365
V2    V     V_3+5 0.564340 0.489110 0.500000 1.419973
O10   O     O_3   0.839370 0.558680 0.500000 -0.370495
C5    C     C_2   0.741652 0.196728 0.772332 0.260405
C6    C     C_2   0.877184 0.193765 0.833917 -0.068276
C7    C     C_2   0.716200 0.274942 0.715472 -0.178270
C8    C     C_2   0.864993 0.309308 0.673296 -0.326993
H1    H     H_    0.570303 0.298176 0.702412 0.156768
H2    H     H_    0.008299 0.281419 0.682717 0.162891
C9    C     C_R   0.047392 0.223179 0.219058 -0.155936
H3    H     H_    0.188244 0.204598 0.195185 0.115555
C10   C     C_R   0.036215 0.287160 0.283882 -0.147731
H4    H     H_    0.168993 0.316070 0.307796 0.118766
C11   C     C_R   0.856481 0.313468 0.317210 -0.043164
C12   C     C_R   0.688219 0.274130 0.283790 -0.151627
H5    H     H_    0.547363 0.292729 0.307645 0.118147
C13   C     C_R   0.699397 0.210144 0.218969 -0.151083
H6    H     H_    0.566619 0.181247 0.195042 0.117750
C14   C     C_R   0.879146 0.183750 0.185714 -0.039037
C15   C     C_R   0.200905 0.698363 0.738495 -0.122114
H7    H     H_    0.069175 0.659384 0.730901 0.127880
C16   C     C_R   0.215906 0.760325 0.804968 -0.152300
H8    H     H_    0.095497 0.766796 0.847184 0.157732
C17   C     C_R   0.384022 0.812684 0.817577 -0.113069
C18   C     C_R   0.539634 0.799991 0.761570 0.290253
C19   C     C_R   0.524856 0.736228 0.696546 -0.174645
H9    H     H_    0.645615 0.727884 0.654669 0.154786
C20   C     C_R   0.355826 0.685254 0.683762 -0.102469
C21   C     C_R   0.202016 0.740554 0.297033 -0.160159
H10   H     H_    0.071071 0.739637 0.333474 0.131003
C22   C     C_R   0.216531 0.802859 0.232108 -0.190594
H11   H     H_    0.096186 0.848755 0.221307 0.124059
C23   C     C_R   0.383838 0.807529 0.182752 -0.057508
C24   C     C_R   0.538487 0.745113 0.199643 0.143563
C25   C     C_R   0.522400 0.684737 0.266698 -0.178014
H12   H     H_    0.639839 0.637726 0.279597 0.115347
C26   C     C_R   0.355946 0.681739 0.315861 -0.069067
O11   O     O_R   0.230120 0.912300 0.917180 -0.529593
O12   O     O_R   0.559740 0.902430 0.088770 -0.546208
O13   O     O_R   0.729930 0.081310 0.089370 -0.548694
C27   C     C_R   0.391624 0.878248 0.116107 0.665476
O14   O     O_R   0.559840 0.901330 0.917750 -0.513719
O15   O     O_R   0.730030 0.080210 0.917120 -0.520800
C28   C     C_R   0.391824 0.880073 0.887755 0.774575
O16   O     O_R   0.230020 0.913400 0.089430 -0.548418
O17   O     O_3   0.396460 0.055470 0.003290 -0.373807
V3    V     V_3+5 0.671360 0.985960 0.003250 1.480449
O18   O     O_R   0.059740 0.091300 0.917690 -0.531900
C29   C     C_R   0.890085 0.114369 0.890427 0.829264
O19   O     O_R   0.059640 0.092400 0.088720 -0.551460
C30   C     C_R   0.890481 0.114882 0.117428 0.652806
V4    V     V_3+5 0.171350 0.007820 0.003190 1.457661
O20   O     O_3   0.896380 0.938200 0.003220 -0.365805
Br1   Br    Br    0.567660 0.097037 0.749626 -0.506805
Br2   Br    Br    0.773603 0.870083 0.765674 -0.513334
C31   C     C_3   0.720245 0.737333 0.147501 -0.352495
C32   C     C_3   0.678180 0.696095 0.062246 -0.714025
H13   H     H_    0.619577 0.625786 0.068709 0.211168
H14   H     H_    0.572669 0.738082 0.027512 0.212362
H15   H     H_    0.813982 0.692147 0.026024 0.208488
H16   H     H_    0.794150 0.804195 0.142609 0.194105
H17   H     H_    0.828257 0.691970 0.177558 0.165813
C33   C     C_3   0.999562 0.276798 0.857545 -0.426566
C34   C     C_3   0.213374 0.263578 0.836738 -0.676974
H18   H     H_    0.287550 0.330912 0.838656 0.191715
H19   H     H_    0.232062 0.233052 0.774308 0.246633
H20   H     H_    0.284890 0.218608 0.882457 0.247640
H21   H     H_    0.946705 0.340604 0.828493 0.194709
H22   H     H_    0.985975 0.289478 0.925106 0.163872

loop_
_geom_bond_atom_site_label_1
_geom_bond_atom_site_label_2
_ccdc_geom_bond_type
O19   V4    S    
C7    C8    D    
C1    O6    A    
C19   C20   A    
C34   H18   S    
C12   H5    S    
C16   C17   A    
O5    C3    A    
C13   H6    S    
O13   C30   A    
C1    C20   S    
V2    O10   S    
O11   V4    S    
C24   C31   S    
O12   V3    S    
C5    C7    S    
O8    V2    S    
C16   H8    S    
O12   C27   A    
C9    H3    S    
C32   H13   S    
O11   C28   A    
O7    V1    S    
C25   C26   A    
V3    O20   S    
O17   V3    S    
O9    C4    A    
C31   C32   S    
C21   C22   A    
O13   V3    S    
C22   C23   A    
C15   H7    S    
C34   H19   S    
C5    Br1   S    
C3    C11   S    
C4    C8    S    
C33   C34   S    
C14   C30   S    
C33   H22   S    
C19   H9    S    
O4    C2    A    
C6    C29   S    
C10   H4    S    
O15   V3    S    
O2    C1    A    
C17   C18   A    
O16   V4    S    
C24   C25   A    
C23   C27   S    
C32   H15   S    
C5    C6    D    
C31   H16   S    
O3    C4    A    
C21   C26   A    
O1    V2    S    
C25   H12   S    
C8    H2    S    
O6    V2    S    
O9    V2    S    
O15   C29   A    
C21   H10   S    
O2    V1    S    
C22   H11   S    
C27   O16   A    
C34   H20   S    
C23   C24   A    
C6    C33   S    
C7    H1    S    
O1    C2    A    
C2    C26   S    
C18   Br2   S    
C33   H21   S    
O5    V1    S    
O8    C3    A    
C10   C11   A    
C15   C20   A    
C9    C14   A    
O14   C28   A    
O7    V2    S    
O4    V1    S    
O3    V1    S    
V1    O10   S    
O17   V4    S    
C13   C14   A    
C18   C19   A    
C12   C13   A    
C15   C16   A    
C31   H17   S    
C9    C10   A    
O18   C29   A    
O19   C30   A    
O18   V4    S    
V4    O20   S    
C11   C12   A    
C32   H14   S    
O14   V3    S    
C17   C28   S    
