data_mof_unit_36522.cif
_audit_creation_date              2012-12-10T18:28:20-0500
_audit_creation_method            fapswitch 2.2
_symmetry_space_group_name_H-M    P1
_symmetry_Int_Tables_number       1
_space_group_crystal_system       triclinic
_cell_length_a                    23.201855
_cell_length_b                    20.002313
_cell_length_c                    14.897768
_cell_angle_alpha                 90.068496
_cell_angle_beta                  99.358688
_cell_angle_gamma                 89.996051
_cell_volume                      6821.88510725

loop_
_atom_site_label
_atom_site_type_symbol
_atom_type_description
_atom_site_fract_x
_atom_site_fract_y
_atom_site_fract_z
_atom_type_partial_charge
C1    C     C_R   0.576348 0.086769 0.554606 0.896357
C2    C     C_R   0.731734 0.750444 0.306630 -0.292404
C3    C     C_R   0.765405 0.185615 0.526226 -0.087239
C4    C     C_R   0.197151 0.240272 0.452923 -0.086992
C5    C     C_R   0.734229 0.684771 0.474044 -0.088811
C6    C     C_R   0.801975 0.241811 0.546939 -0.092342
C7    C     C_R   0.265414 0.685539 0.526142 -0.087493
C8    C     C_R   0.225482 0.142433 0.547913 0.435277
C9    C     C_R   0.692695 0.769391 0.364108 0.466417
C10   C     C_R   0.774893 0.142551 0.453804 0.435051
C11   C     C_R   0.306043 0.771398 0.635191 0.466461
C12   C     C_R   0.725323 0.642427 0.547357 0.435264
C13   C     C_R   0.811565 0.162421 0.393485 -0.269691
C14   C     C_R   0.192254 0.268747 0.363966 0.466612
C15   C     C_R   0.274789 0.642571 0.453555 0.435013
C16   C     C_R   0.805848 0.271686 0.635080 0.466343
C17   C     C_3   0.615592 0.738372 0.818976 0.079843
C18   C     C_3   0.668543 0.781752 0.857975 -0.381786
C19   C     C_3   0.663397 0.807058 0.953053 -0.973279
C20   C     C_3   0.292802 0.168774 0.131367 0.047484
C21   C     C_3   0.301382 0.191350 0.036500 -0.306611
C22   C     C_3   0.275946 0.140706 0.963989 -0.966820
C23   C     C_3   0.390671 0.734816 0.184673 0.081020
C24   C     C_R   0.266971 0.752634 0.692556 -0.288447
C25   C     C_3   0.340585 0.780361 0.140390 -0.381174
C26   C     C_3   0.349675 0.802440 0.045662 -0.974917
C27   C     C_3   0.703568 0.171751 0.868456 0.049925
C28   C     C_3   0.701303 0.199036 0.963641 -0.307657
C29   C     C_3   0.722991 0.147383 0.036762 -0.967653
C30   C     C_3   0.116875 0.239212 0.819933 0.079674
C31   C     C_3   0.170186 0.282369 0.857904 -0.381957
C32   C     C_3   0.165788 0.308032 0.953094 -0.972726
C33   C     C_3   0.794228 0.669447 0.131312 0.047879
C34   C     C_3   0.801775 0.693239 0.036513 -0.306925
C35   C     C_R   0.689143 0.662919 0.608147 -0.271341
C36   C     C_3   0.777695 0.642207 0.963694 -0.967360
C37   C     C_3   0.891892 0.234129 0.185507 0.081230
C38   C     C_3   0.842194 0.279770 0.140149 -0.381027
C39   C     C_3   0.852063 0.301475 0.045646 -0.974752
C40   C     C_3   0.204520 0.671554 0.868344 0.049382
C41   C     C_3   0.201200 0.697998 0.963610 -0.307332
C42   C     C_3   0.223974 0.646577 0.036479 -0.967421
C43   C     C_3   0.214820 0.033599 0.505065 0.071659
C44   C     C_3   0.244288 0.965117 0.513987 -0.326822
C45   C     C_3   0.206566 0.912255 0.458508 -0.950368
C46   C     C_R   0.231259 0.249754 0.306435 -0.293804
C47   C     C_3   0.601424 0.788127 0.281172 0.100597
C48   C     C_3   0.603986 0.794613 0.179288 -0.348956
C49   C     C_3   0.544001 0.785966 0.121166 -0.983603
C50   C     C_3   0.784640 0.034288 0.499539 0.071891
C51   C     C_3   0.755302 0.965708 0.490358 -0.326658
C52   C     C_3   0.791998 0.913524 0.548638 -0.953090
C53   C     C_3   0.398581 0.790854 0.712607 0.101929
C54   C     C_3   0.397439 0.788883 0.815229 -0.353946
C55   C     C_3   0.458050 0.776727 0.869597 -0.986545
C56   C     C_3   0.714677 0.533715 0.503875 0.071771
C57   C     C_R   0.311383 0.662520 0.393161 -0.269581
C58   C     C_3   0.744134 0.465225 0.512522 -0.326733
C59   C     C_3   0.706498 0.412520 0.456579 -0.950643
C60   C     C_3   0.101217 0.287127 0.279900 0.100375
C61   C     C_3   0.103989 0.295285 0.178288 -0.348042
C62   C     C_3   0.044111 0.287330 0.119584 -0.982903
C63   C     C_3   0.284409 0.534264 0.499137 0.071916
C64   C     C_3   0.255097 0.465673 0.489612 -0.326818
C65   C     C_3   0.291712 0.413427 0.547895 -0.953169
C66   C     C_3   0.898577 0.291403 0.711522 0.101848
C67   C     C_3   0.897848 0.288383 0.814204 -0.354356
C68   C     C_R   0.766810 0.252889 0.692469 -0.287373
C69   C     C_3   0.958647 0.275970 0.867771 -0.986424
C70   C     C_R   0.629157 0.991091 0.203940 -0.302250
C71   C     C_R   0.371085 0.987887 0.795954 -0.295155
C72   C     C_R   0.129176 0.491495 0.203922 -0.303466
C73   C     C_R   0.425375 0.911143 0.446835 0.885049
C74   C     C_R   0.871113 0.487574 0.795945 -0.294395
C75   C     C_R   0.607618 0.999215 0.284644 0.068980
C76   C     C_R   0.392422 0.997321 0.715341 0.068244
C77   C     C_R   0.107619 0.499457 0.284635 0.068820
C78   C     C_R   0.892428 0.497129 0.715337 0.068141
C79   C     C_R   0.509744 0.992229 0.208022 -0.082746
C80   C     C_R   0.490423 0.993036 0.791913 -0.083801
C81   C     C_R   0.009762 0.492145 0.208020 -0.082291
C82   C     C_R   0.990439 0.493123 0.791909 -0.084018
C83   C     C_R   0.528634 0.983243 0.124060 0.003664
C84   C     C_R   0.423569 0.086662 0.445408 0.896629
C85   C     C_R   0.471758 0.982936 0.875798 0.001381
C86   C     C_R   0.028672 0.483303 0.124048 0.003722
C87   C     C_R   0.971797 0.482917 0.875789 0.001515
C88   C     C_R   0.589739 0.983470 0.123076 0.169430
C89   C     C_R   0.410672 0.981066 0.876762 0.167557
C90   C     C_R   0.089775 0.483770 0.123058 0.169884
C91   C     C_R   0.910716 0.480840 0.876750 0.167380
C92   C     C_R   0.489124 0.976754 0.041585 0.088429
C93   C     C_R   0.511412 0.977334 0.958233 0.090473
C94   C     C_R   0.989178 0.476716 0.041573 0.088274
C95   C     C_R   0.574649 0.911165 0.553113 0.885570
C96   C     C_R   0.011464 0.477409 0.958222 0.090633
C97   C     C_R   0.572490 0.973649 0.960194 -0.255894
C98   C     C_R   0.428163 0.971017 0.039593 -0.253659
C99   C     C_R   0.072550 0.473931 0.960180 -0.256014
C100  C     C_R   0.928230 0.470771 0.039579 -0.253472
C101  C     C_R   0.610880 0.976223 0.041569 -0.223576
C102  C     C_R   0.389721 0.972680 0.958219 -0.218971
C103  C     C_R   0.110935 0.476623 0.041552 -0.223072
C104  C     C_R   0.889785 0.472345 0.958206 -0.220014
C105  C     C_R   0.609486 0.851280 0.578117 -0.147234
C106  C     C_R   0.076349 0.586767 0.554604 0.896378
C107  C     C_R   0.374072 0.128601 0.407137 -0.165348
C108  C     C_R   0.390633 0.851167 0.421801 -0.145425
C109  C     C_R   0.625515 0.129239 0.592821 -0.163102
C110  C     C_R   0.109513 0.351285 0.578140 -0.147594
C111  C     C_R   0.874176 0.628736 0.407162 -0.164785
C112  C     C_R   0.890652 0.351161 0.421793 -0.144983
C113  C     C_R   0.125531 0.629214 0.592814 -0.163487
C114  C     C_R   0.628705 0.748097 0.664848 0.531932
C115  C     C_R   0.319414 0.191030 0.281791 0.498059
C116  C     C_R   0.372318 0.747085 0.336381 0.532665
C117  C     C_R   0.925374 0.411146 0.446831 0.884939
C118  C     C_R   0.679292 0.193264 0.717594 0.496927
C119  C     C_R   0.129055 0.248375 0.665384 0.531907
C120  C     C_R   0.819786 0.691555 0.281953 0.497737
C121  C     C_R   0.872586 0.246898 0.336695 0.532635
C122  C     C_R   0.179400 0.693088 0.717637 0.497117
C123  C     C_R   0.599892 0.810341 0.650323 -0.333058
C124  C     C_R   0.368423 0.153454 0.318315 -0.287120
C125  C     C_R   0.400852 0.809602 0.350456 -0.335373
C126  C     C_R   0.630678 0.154864 0.681293 -0.290173
C127  C     C_R   0.100152 0.310548 0.650680 -0.332863
C128  C     C_R   0.923591 0.586685 0.445418 0.896578
C129  C     C_R   0.868704 0.653816 0.318474 -0.288084
C130  C     C_R   0.901027 0.309482 0.350652 -0.335523
C131  C     C_R   0.130760 0.654745 0.681339 -0.289403
C132  C     C_R   0.646134 0.830103 0.519109 -0.202414
C133  C     C_R   0.329729 0.139316 0.458083 -0.193518
C134  C     C_R   0.353522 0.830535 0.480284 -0.206195
C135  C     C_R   0.669948 0.139931 0.542096 -0.194294
C136  C     C_R   0.145985 0.329928 0.518948 -0.201413
C137  C     C_R   0.829763 0.639390 0.457979 -0.193601
C138  C     C_R   0.853435 0.330620 0.480151 -0.207041
C139  C     C_R   0.074651 0.411160 0.553112 0.885665
C140  C     C_R   0.169931 0.639944 0.542035 -0.194408
C141  C     C_R   0.667113 0.764998 0.521646 0.025921
C142  C     C_R   0.278975 0.173853 0.421921 0.032653
C143  C     C_R   0.332675 0.765420 0.478348 0.024550
C144  C     C_R   0.720313 0.175242 0.578113 0.031012
C145  C     C_R   0.167045 0.264846 0.521753 0.026205
C146  C     C_R   0.779114 0.674116 0.421823 0.032426
C147  C     C_R   0.832645 0.265490 0.478356 0.024126
C148  C     C_R   0.220345 0.675162 0.578070 0.031066
C149  C     C_R   0.661456 0.725114 0.598523 -0.006175
C150  C     C_R   0.189420 0.163067 0.608805 -0.271597
C151  C     C_R   0.276097 0.204572 0.335703 -0.026731
C152  C     C_R   0.338982 0.724802 0.402315 -0.004334
C153  C     C_R   0.722565 0.206861 0.663707 -0.026208
C154  C     C_R   0.161638 0.225204 0.598956 -0.006420
C155  C     C_R   0.776430 0.705069 0.335791 -0.026295
C156  C     C_R   0.839116 0.224735 0.402525 -0.003985
C157  C     C_R   0.222669 0.706690 0.663738 -0.026606
C158  C     C_R   0.697340 0.740604 0.452859 -0.087641
C159  C     C_R   0.234174 0.184574 0.474284 -0.089022
C160  C     C_R   0.302065 0.741657 0.546958 -0.092086
H1    H     H_    0.184627 0.130422 0.665104 0.209517
H2    H     H_    0.408638 0.964572 0.099846 0.141091
H3    H     H_    0.270818 0.635764 0.035321 0.266505
H4    H     H_    0.208655 0.048815 0.432113 0.140593
H5    H     H_    0.171390 0.029671 0.527497 0.148384
H6    H     H_    0.287000 0.968583 0.489629 0.215338
H7    H     H_    0.252374 0.949800 0.586677 0.237381
H8    H     H_    0.163498 0.908305 0.481519 0.268323
H9    H     H_    0.228478 0.862868 0.467757 0.273037
H10   H     H_    0.199844 0.925263 0.385083 0.260271
H11   H     H_    0.562917 0.816271 0.296736 0.181729
H12   H     H_    0.594489 0.734837 0.299096 0.112536
H13   H     H_    0.092243 0.468559 0.899900 0.139789
H14   H     H_    0.621385 0.844557 0.165178 0.253930
H15   H     H_    0.633794 0.755956 0.159197 0.197644
H16   H     H_    0.525786 0.736013 0.133056 0.258212
H17   H     H_    0.548188 0.790146 0.048239 0.276154
H18   H     H_    0.513691 0.825592 0.137240 0.265535
H19   H     H_    0.789194 0.050383 0.572062 0.141083
H20   H     H_    0.828797 0.030070 0.479675 0.147972
H21   H     H_    0.711771 0.969439 0.512027 0.215639
H22   H     H_    0.748899 0.949504 0.417994 0.236712
H23   H     H_    0.835887 0.909386 0.528451 0.268484
H24   H     H_    0.908721 0.464235 0.099829 0.141201
H25   H     H_    0.770325 0.864001 0.539006 0.272688
H26   H     H_    0.796902 0.927361 0.621715 0.260500
H27   H     H_    0.435445 0.823110 0.699982 0.184252
H28   H     H_    0.407393 0.739991 0.686925 0.117542
H29   H     H_    0.380461 0.837053 0.837460 0.252245
H30   H     H_    0.367951 0.748162 0.830378 0.200835
H31   H     H_    0.476665 0.729536 0.847331 0.261997
H32   H     H_    0.454851 0.772455 0.942858 0.275680
H33   H     H_    0.487457 0.819199 0.860709 0.264648
H34   H     H_    0.708662 0.549172 0.431024 0.140539
H35   H     H_    0.336688 0.123401 0.528174 0.218634
H36   H     H_    0.671178 0.529688 0.526053 0.148379
H37   H     H_    0.786916 0.468799 0.488401 0.215309
H38   H     H_    0.752082 0.449674 0.585120 0.237558
H39   H     H_    0.663373 0.408446 0.479376 0.268349
H40   H     H_    0.728413 0.363123 0.465602 0.273074
H41   H     H_    0.699898 0.425780 0.383242 0.260330
H42   H     H_    0.062330 0.314283 0.295940 0.181099
H43   H     H_    0.094820 0.233427 0.296341 0.111509
H44   H     H_    0.121417 0.345517 0.165745 0.254244
H45   H     H_    0.133872 0.257104 0.157235 0.196801
H46   H     H_    0.658007 0.865669 0.471121 0.216808
H47   H     H_    0.025950 0.237027 0.129635 0.257729
H48   H     H_    0.048448 0.292983 0.046883 0.276091
H49   H     H_    0.013666 0.326401 0.136845 0.265545
H50   H     H_    0.288825 0.550236 0.571693 0.141193
H51   H     H_    0.328625 0.530117 0.479471 0.147923
H52   H     H_    0.211495 0.469321 0.511055 0.215739
H53   H     H_    0.248851 0.449584 0.417208 0.236421
H54   H     H_    0.335683 0.409399 0.527976 0.268470
H55   H     H_    0.270089 0.363891 0.537961 0.272642
H56   H     H_    0.296423 0.427122 0.621002 0.260499
H57   H     H_    0.663355 0.123365 0.472241 0.218396
H58   H     H_    0.935147 0.324193 0.699090 0.184788
H59   H     H_    0.907602 0.240906 0.684877 0.118156
H60   H     H_    0.880904 0.336248 0.837482 0.252091
H61   H     H_    0.868509 0.247374 0.828917 0.201364
H62   H     H_    0.977313 0.229225 0.844222 0.262638
H63   H     H_    0.955773 0.270702 0.941030 0.275610
H64   H     H_    0.987838 0.318787 0.859552 0.264349
H65   H     H_    0.341313 0.866512 0.527548 0.216150
H66   H     H_    0.836595 0.623286 0.527987 0.218670
H67   H     H_    0.157700 0.365345 0.470642 0.216934
H68   H     H_    0.163283 0.623465 0.472141 0.218397
H69   H     H_    0.729095 0.774804 0.241214 0.195103
H70   H     H_    0.841123 0.366674 0.527234 0.216037
H71   H     H_    0.402131 0.144490 0.277232 0.178010
H72   H     H_    0.569324 0.826911 0.693055 0.158044
H73   H     H_    0.596821 0.146010 0.722105 0.176528
H74   H     H_    0.431594 0.826090 0.308034 0.157090
H75   H     H_    0.902501 0.644941 0.277529 0.177681
H76   H     H_    0.069693 0.327198 0.693552 0.158182
H77   H     H_    0.096958 0.645825 0.722232 0.176894
H78   H     H_    0.931826 0.325956 0.308320 0.156994
H79   H     H_    0.657459 0.974202 0.040440 0.145214
H80   H     H_    0.817025 0.128988 0.338218 0.209999
H81   H     H_    0.343212 0.969090 0.959324 0.142821
H82   H     H_    0.157517 0.474750 0.040424 0.145047
H83   H     H_    0.843284 0.468618 0.959310 0.142922
H84   H     H_    0.535616 0.995866 0.783985 0.129313
H85   H     H_    0.464496 0.993739 0.215912 0.128695
H86   H     H_    0.035624 0.496087 0.783978 0.129466
H87   H     H_    0.964511 0.493492 0.215914 0.128455
H88   H     H_    0.362596 0.001070 0.651701 0.153055
H89   H     H_    0.637360 0.003668 0.348295 0.152881
H90   H     H_    0.862592 0.500794 0.651694 0.153096
H91   H     H_    0.269506 0.777344 0.757832 0.196393
H92   H     H_    0.137350 0.504003 0.348282 0.152814
H93   H     H_    0.675948 0.990579 0.204708 0.155540
H94   H     H_    0.324324 0.985777 0.795156 0.154678
H95   H     H_    0.175968 0.491176 0.204682 0.155566
H96   H     H_    0.824358 0.485304 0.795144 0.154797
H97   H     H_    0.611172 0.698602 0.869417 0.176120
H98   H     H_    0.574185 0.766831 0.812011 0.129436
H99   H     H_    0.709166 0.751910 0.861303 0.239489
H100  H     H_    0.671808 0.825632 0.813530 0.215883
H101  H     H_    0.622533 0.836283 0.951210 0.276394
H102  H     H_    0.684178 0.630104 0.664193 0.209600
H103  H     H_    0.701117 0.839860 0.978634 0.264940
H104  H     H_    0.663256 0.764363 0.000609 0.266141
H105  H     H_    0.245219 0.162671 0.132724 0.136507
H106  H     H_    0.315003 0.119432 0.145153 0.134875
H107  H     H_    0.279890 0.240552 0.020937 0.232377
H108  H     H_    0.348851 0.197264 0.034893 0.230703
H109  H     H_    0.296912 0.091085 0.978397 0.265016
H110  H     H_    0.284106 0.157727 0.896254 0.269354
H111  H     H_    0.228048 0.135846 0.962020 0.266493
H112  H     H_    0.395564 0.694044 0.135759 0.175881
H113  H     H_    0.228515 0.273964 0.240911 0.194600
H114  H     H_    0.433372 0.760872 0.195488 0.126783
H115  H     H_    0.298515 0.753085 0.135038 0.240416
H116  H     H_    0.337856 0.825682 0.182538 0.214832
H117  H     H_    0.392139 0.828763 0.049396 0.279019
H118  H     H_    0.314120 0.837058 0.016507 0.264266
H119  H     H_    0.348966 0.758425 0.999973 0.266834
H120  H     H_    0.749711 0.159106 0.863261 0.133975
H121  H     H_    0.676453 0.125426 0.858842 0.138547
H122  H     H_    0.728779 0.244704 0.975380 0.228437
H123  H     H_    0.655549 0.212810 0.968883 0.232543
H124  H     H_    0.316737 0.629181 0.337743 0.209976
H125  H     H_    0.696189 0.101171 0.025999 0.266973
H126  H     H_    0.719348 0.167984 0.104847 0.269010
H127  H     H_    0.769468 0.134837 0.035215 0.266405
H128  H     H_    0.112619 0.199646 0.870730 0.176113
H129  H     H_    0.075648 0.267966 0.813509 0.129768
H130  H     H_    0.210637 0.252279 0.860719 0.239419
H131  H     H_    0.173319 0.326075 0.813098 0.215831
H132  H     H_    0.125137 0.337572 0.951747 0.275964
H133  H     H_    0.203786 0.340614 0.977980 0.265151
H134  H     H_    0.165711 0.265499 0.000926 0.265941
H135  H     H_    0.769347 0.277619 0.757736 0.196746
H136  H     H_    0.746873 0.661650 0.133061 0.136170
H137  H     H_    0.817706 0.620812 0.144364 0.135688
H138  H     H_    0.778731 0.741617 0.021552 0.231753
H139  H     H_    0.848977 0.701196 0.034586 0.231167
H140  H     H_    0.800237 0.593405 0.977479 0.265962
H141  H     H_    0.785057 0.660197 0.895993 0.269188
H142  H     H_    0.730026 0.635288 0.962080 0.266474
H143  H     H_    0.897028 0.193174 0.136983 0.175827
H144  H     H_    0.934700 0.259959 0.196983 0.126305
H145  H     H_    0.800008 0.252668 0.134176 0.240440
H146  H     H_    0.592169 0.968195 0.899912 0.139994
H147  H     H_    0.839271 0.325244 0.181920 0.214792
H148  H     H_    0.894659 0.327600 0.049971 0.279371
H149  H     H_    0.816765 0.336164 0.015728 0.264232
H150  H     H_    0.851534 0.257305 0.000269 0.266836
H151  H     H_    0.250998 0.660426 0.863519 0.134313
H152  H     H_    0.178493 0.624440 0.858108 0.137942
H153  H     H_    0.227447 0.744545 0.975933 0.229037
H154  H     H_    0.155044 0.710071 0.968513 0.232282
H155  H     H_    0.198433 0.599489 0.025090 0.266297
H156  H     H_    0.219498 0.666477 0.104608 0.269091
N1    N     N_R   0.549130 0.000000 0.284090 -0.106909
N2    N     N_R   0.450870 0.000000 0.715910 -0.108470
N3    N     N_R   0.049130 0.500000 0.284090 -0.106554
N4    N     N_R   0.950870 0.500000 0.715910 -0.108693
O1    O     O_R   0.541320 0.066090 0.608930 -0.611161
O2    O     O_R   0.427120 0.933890 0.529720 -0.614616
O3    O     O_R   0.427120 0.066110 0.529720 -0.617556
O4    O     O_R   0.572880 0.933890 0.470280 -0.612639
O5    O     O_R   0.072880 0.566110 0.470280 -0.618693
O6    O     O_R   0.927120 0.433890 0.529720 -0.614913
O7    O     O_R   0.927120 0.566110 0.529720 -0.617489
O8    O     O_R   0.072880 0.433890 0.470280 -0.612302
O9    O     O_3   0.622630 0.705510 0.737069 -0.669252
O10   O     O_3   0.316188 0.217744 0.195562 -0.649121
O11   O     O_3   0.378800 0.703603 0.265066 -0.669983
O12   O     O_R   0.458680 0.933910 0.391070 -0.617732
O13   O     O_3   0.682277 0.220886 0.803376 -0.649598
O14   O     O_3   0.123177 0.206026 0.737926 -0.669154
O15   O     O_3   0.816692 0.718556 0.195902 -0.649295
O16   O     O_3   0.879239 0.203235 0.265639 -0.670105
O17   O     O_3   0.182424 0.720533 0.803519 -0.649458
O18   O     O_3   0.250535 0.079720 0.560303 -0.669339
O19   O     O_3   0.651506 0.817612 0.333013 -0.668916
O20   O     O_3   0.749914 0.079751 0.441847 -0.669720
O21   O     O_3   0.346693 0.820203 0.666355 -0.671014
O22   O     O_3   0.750302 0.579666 0.559555 -0.669220
O23   O     O_R   0.458680 0.066090 0.391070 -0.611059
O24   O     O_3   0.150856 0.316736 0.332807 -0.668458
O25   O     O_3   0.249757 0.579804 0.441467 -0.669839
O26   O     O_3   0.846373 0.320629 0.666199 -0.671285
O27   O     O_R   0.541320 0.933910 0.608930 -0.618421
O28   O     O_R   0.041320 0.566090 0.608930 -0.611148
O29   O     O_R   0.958680 0.433910 0.391070 -0.617498
O30   O     O_R   0.958680 0.566090 0.391070 -0.611140
O31   O     O_R   0.041320 0.433910 0.608930 -0.618568
O32   O     O_R   0.572880 0.066110 0.470280 -0.618558
Zn1   Zn    Zn3+2 0.478910 0.000000 0.592580 0.934552
Zn2   Zn    Zn3+2 0.521090 0.000000 0.407420 0.936199
Zn3   Zn    Zn3+2 0.978910 0.500000 0.592580 0.934308
Zn4   Zn    Zn3+2 0.021090 0.500000 0.407420 0.936543

loop_
_geom_bond_atom_site_label_1
_geom_bond_atom_site_label_2
_ccdc_geom_bond_type
C99   C103  A    
C29   H126  S    
C54   H29   S    
C87   C91   A    
C15   O25   S    
C81   H87   S    
C45   H10   S    
C63   O25   S    
C31   H130  S    
C32   H133  S    
C28   H122  S    
C97   H146  S    
C129  H75   S    
C67   H60   S    
C82   C87   A    
C135  H57   S    
C57   C152  A    
C100  C104  A    
C105  C123  A    
C118  C153  A    
C79   N1    A    
C128  O30   A    
C126  H73   S    
C121  O16   S    
C134  C143  A    
C117  O6    A    
C81   C86   A    
C48   H15   S    
C33   H137  S    
C7    C15   A    
C83   C88   A    
C21   C22   S    
C76   H88   S    
C107  C124  A    
C62   H48   S    
C98   H2    S    
C49   H17   S    
C23   H112  S    
C51   C52   S    
C112  C138  A    
C137  C146  A    
C116  O11   S    
C5    C12   A    
C86   C90   A    
C81   N3    A    
C73   C108  S    
C82   N4    A    
C98   C102  A    
C120  C155  A    
C55   H31   S    
C142  C151  A    
C8    C150  A    
C43   C44   S    
C71   H94   S    
N3    Zn4   S    
C84   O23   A    
C66   O26   S    
C38   H145  S    
C94   C96   A    
C18   H99   S    
C60   H42   S    
C78   H90   S    
C72   H95   S    
C71   C76   A    
C26   H118  S    
C118  O13   S    
C111  C137  A    
O8    Zn4   S    
C150  H1    S    
C110  C139  S    
C24   H91   S    
C40   H152  S    
C47   H11   S    
O1    Zn1   S    
C64   C65   S    
C30   C31   S    
C9    C158  A    
C66   H59   S    
C4    C14   A    
O3    Zn1   S    
C6    C16   A    
C115  O10   S    
C20   C21   S    
C66   H58   S    
C5    C158  A    
C115  C151  A    
C64   H52   S    
C8    C159  A    
C22   H111  S    
C95   O27   A    
C96   C99   A    
C121  C156  A    
C109  C135  A    
C110  C136  A    
C121  C130  A    
C3    C6    A    
C20   O10   S    
C36   H141  S    
C53   C54   S    
C133  C142  A    
C137  H66   S    
O2    Zn1   S    
C65   H55   S    
C25   H116  S    
C38   C39   S    
C73   O12   A    
C31   H131  S    
C84   C107  S    
C67   H61   S    
C42   H156  S    
C19   H104  S    
C85   C93   A    
C123  H72   S    
C23   O11   S    
C27   O13   S    
C106  O28   A    
C107  C133  A    
C117  O29   A    
C2    H69   S    
C43   H4    S    
C46   C151  A    
C41   H153  S    
C39   H149  S    
C52   H26   S    
C1    O32   A    
C10   O20   S    
C48   H14   S    
C140  H68   S    
C82   H86   S    
C106  C113  S    
C120  C129  A    
C124  H71   S    
C134  H65   S    
C64   H53   S    
C138  H70   S    
C68   C153  A    
C20   H106  S    
C43   O18   S    
C24   C157  A    
C25   C26   S    
O7    Zn3   S    
C69   H63   S    
C13   C156  A    
C72   C90   A    
C31   C32   S    
C34   H138  S    
C94   C100  A    
C59   H40   S    
C17   C18   S    
C128  O7    A    
C77   H92   S    
C12   C35   A    
C56   H34   S    
C145  C154  A    
C22   H109  S    
C116  C125  A    
C114  C123  A    
C17   H97   S    
C93   C97   A    
C122  C131  A    
C132  C141  A    
C54   C55   S    
C135  C144  A    
C29   H125  S    
C54   H30   S    
C63   H51   S    
C45   H9    S    
C95   O4    A    
C32   H134  S    
C104  H83   S    
C50   H19   S    
C6    C147  A    
C4    C145  A    
C56   C58   S    
C34   C36   S    
C148  C157  A    
C49   H16   S    
C61   C62   S    
C45   H8    S    
C63   C64   S    
C109  C126  A    
C70   C75   A    
C112  C130  A    
C2    C9    A    
C61   H45   S    
C119  C127  A    
C58   H37   S    
C101  H79   S    
C41   C42   S    
C116  C152  A    
C142  C159  A    
C14   C46   A    
C73   O2    A    
C37   H144  S    
C9    O19   S    
C79   H85   S    
C28   C29   S    
C53   H28   S    
C61   H44   S    
C112  C117  S    
O31   Zn3   S    
C36   H140  S    
C4    C159  A    
O12   Zn2   S    
C68   H135  S    
C103  H82   S    
C18   C19   S    
C125  H74   S    
C30   H129  S    
C1    C109  S    
C56   H36   S    
C40   O17   S    
C111  C129  A    
N4    Zn3   S    
C130  H78   S    
C146  C155  A    
O32   Zn2   S    
C18   H100  S    
C40   H151  S    
C29   H127  S    
C30   H128  S    
C26   H119  S    
C11   C160  A    
C88   C101  A    
C105  C132  A    
C43   H5    S    
C46   H113  S    
C84   O3    A    
C92   C98   A    
C30   O14   S    
C143  C160  A    
C85   C89   A    
C53   O21   S    
C7    C160  A    
C58   C59   S    
C60   C61   S    
C44   H7    S    
C74   C91   A    
C108  C134  A    
C80   C85   A    
N2    Zn1   S    
C99   H13   S    
C133  H35   S    
C50   C51   S    
C60   O24   S    
C147  C156  A    
O29   Zn4   S    
C27   H120  S    
C143  C152  A    
C136  H67   S    
C119  C154  A    
C62   H47   S    
C44   C45   S    
C35   H102  S    
C49   H18   S    
C115  C124  A    
C3    C144  A    
C1    O1    A    
C36   H142  S    
C47   O19   S    
C21   H108  S    
C55   H32   S    
C122  O17   S    
C65   H54   S    
C25   H115  S    
C79   C83   A    
C48   C49   S    
C92   C93   A    
C23   H114  S    
C122  C157  A    
C39   H148  S    
C100  H24   S    
O4    Zn2   S    
C90   C103  A    
C33   H136  S    
C19   H103  S    
O5    Zn4   S    
C141  C158  A    
C74   C78   A    
C139  O31   A    
C35   C149  A    
C114  C149  A    
C75   H89   S    
C80   N2    A    
C26   H117  S    
C28   H123  S    
C132  H46   S    
C2    C155  A    
C89   C102  A    
C56   O22   S    
N1    Zn2   S    
C52   H23   S    
C91   C104  A    
C51   H22   S    
C70   C88   A    
C140  C148  A    
C47   H12   S    
C141  C149  A    
C83   C92   A    
C127  H76   S    
C37   C38   S    
C57   H124  S    
C76   N2    A    
C77   N3    A    
C11   C24   A    
C78   N4    A    
C69   H62   S    
C144  C153  A    
C86   C94   A    
C34   H139  S    
C59   H39   S    
C42   H155  S    
C16   C68   A    
C108  C125  A    
C95   C105  S    
C136  C145  A    
C12   O22   S    
C110  C127  A    
O23   Zn2   S    
C22   H110  S    
C14   O24   S    
C119  O14   S    
C15   C57   A    
C11   O21   S    
C70   H93   S    
C13   H80   S    
C65   H56   S    
C42   H3    S    
C120  O15   S    
C80   H84   S    
C67   C69   S    
C50   H20   S    
C16   O26   S    
C72   C77   A    
C19   H101  S    
C59   H41   S    
C60   H43   S    
C47   C48   S    
C71   C89   A    
O30   Zn4   S    
C138  C147  A    
C87   C96   A    
C33   C34   S    
C113  C140  A    
C50   O20   S    
C102  H81   S    
C44   H6    S    
O27   Zn1   S    
C8    O18   S    
C32   H132  S    
C40   C41   S    
C55   H33   S    
C41   H154  S    
C39   H150  S    
C52   H25   S    
C111  C128  S    
O6    Zn3   S    
C7    C148  A    
C139  O8    A    
C58   H38   S    
C5    C146  A    
C113  C131  A    
C75   N1    A    
C51   H21   S    
C10   C13   A    
C20   H105  S    
C27   H121  S    
C37   H143  S    
C118  C126  A    
C69   H64   S    
C53   H27   S    
C114  O9    S    
C3    C10   A    
C131  H77   S    
C106  O5    A    
C62   H49   S    
C66   C67   S    
C23   C25   S    
C37   O16   S    
C74   H96   S    
C21   H107  S    
C150  C154  A    
C27   C28   S    
C33   O15   S    
C38   H147  S    
C63   H50   S    
C17   H98   S    
C97   C101  A    
O28   Zn3   S    
C17   O9    S    
