data_mof_unit_57465.cif
_audit_creation_date              2012-12-10T17:30:25-0500
_audit_creation_method            fapswitch 2.2
_symmetry_space_group_name_H-M    P1
_symmetry_Int_Tables_number       1
_space_group_crystal_system       triclinic
_cell_length_a                    12.088352
_cell_length_b                    12.892499
_cell_length_c                    14.892282
_cell_angle_alpha                 90.042119
_cell_angle_beta                  88.161713
_cell_angle_gamma                 93.673342
_cell_volume                      2314.98587951

loop_
_atom_site_label
_atom_site_type_symbol
_atom_type_description
_atom_site_fract_x
_atom_site_fract_y
_atom_site_fract_z
_atom_type_partial_charge
C1    C     C_R   0.522186 0.700058 0.496789 0.857865
C2    C     C_R   0.380179 0.142100 0.454109 -0.208801
C3    C     C_R   0.460009 0.871092 0.454966 -0.054905
C4    C     C_R   0.541513 0.130687 0.547322 -0.074347
C5    C     C_R   0.458984 0.977057 0.474019 0.118588
C6    C     C_R   0.540806 0.024135 0.530224 0.120136
C7    C     C_R   0.951645 0.434250 0.396976 -0.298334
C8    C     C_R   0.047449 0.548257 0.610811 -0.288176
C9    C     C_R   0.837005 0.439299 0.407695 -0.078085
C10   C     C_R   0.162663 0.550290 0.596450 -0.079426
C11   C     C_R   0.858596 0.512851 0.552993 0.580627
C12   C     C_R   0.477969 0.300304 0.503882 0.874516
C13   C     C_R   0.139498 0.486485 0.448012 0.585743
C14   C     C_R   0.975941 0.513900 0.542590 -0.060860
C15   C     C_R   0.022659 0.478382 0.461776 -0.050867
C16   C     C_R   0.501978 0.500395 0.672569 0.872547
C17   C     C_R   0.498609 0.500823 0.327325 0.879490
C18   C     C_R   0.541345 0.419357 0.186001 -0.221188
C19   C     C_R   0.466237 0.586834 0.813234 -0.250411
C20   C     C_R   0.497257 0.501303 0.231921 -0.062171
C21   C     C_R   0.507164 0.503240 0.767586 -0.062897
C22   C     C_R   0.462162 0.587203 0.187806 -0.285176
C23   C     C_R   0.430887 0.677168 0.953921 -0.059944
C24   C     C_R   0.553717 0.422966 0.811502 -0.224761
C25   C     C_R   0.466809 0.591047 0.094279 0.073374
C26   C     C_R   0.555145 0.422058 0.904897 0.053408
C27   C     C_R   0.509174 0.506011 0.046401 0.034594
C28   C     C_R   0.511792 0.506639 0.952741 0.026606
C29   C     C_R   0.548289 0.420007 0.092630 0.064093
C30   C     C_R   0.469541 0.591118 0.906474 0.067987
C31   C     C_R   0.430509 0.677599 0.048026 -0.071940
C32   C     C_R   0.597105 0.338096 0.951003 -0.062482
C33   C     C_1   0.393030 0.767567 0.096266 0.178840
C34   C     C_R   0.593202 0.336850 0.045100 -0.062279
C35   C     C_1   0.642905 0.251951 0.902489 0.190561
C36   C     C_1   0.391907 0.765709 0.906522 0.170592
C37   C     C_1   0.635118 0.249561 0.092348 0.171855
C38   C     C_1   0.621920 0.180500 0.606863 0.172230
C39   C     C_1   0.386333 0.824688 0.389071 0.161655
C40   C     C_3   0.200603 0.544116 0.308282 0.109716
C41   C     C_3   0.097616 0.568995 0.256683 -0.453410
C42   C     C_3   0.126180 0.651584 0.184778 -0.884905
C43   C     C_3   0.802188 0.635857 0.652625 0.057949
C44   C     C_3   0.793071 0.654828 0.753930 -0.330942
C45   C     C_R   0.463950 0.189175 0.505026 -0.092062
C46   C     C_3   0.760968 0.765000 0.775006 -0.944426
C47   C     C_R   0.536468 0.811754 0.497372 -0.080769
C48   C     C_R   0.621794 0.964095 0.565813 -0.189047
C49   C     C_R   0.377373 0.036788 0.438703 -0.195819
C50   C     C_R   0.619204 0.858841 0.549512 -0.233073
H1    H     H_    0.569951 0.355402 0.224363 0.146524
H2    H     H_    0.312266 0.003356 0.397348 0.164558
H3    H     H_    0.216011 0.575757 0.650098 0.170204
H4    H     H_    0.783584 0.409152 0.355621 0.167655
H5    H     H_    0.264038 0.524500 0.257007 0.198694
H6    H     H_    0.233476 0.614038 0.344667 0.160890
H7    H     H_    0.063112 0.497740 0.223003 0.240327
H8    H     H_    0.034065 0.599150 0.303507 0.230674
H9    H     H_    0.159877 0.724689 0.215968 0.282714
H10   H     H_    0.050179 0.668133 0.148838 0.267879
H11   H     H_    0.188147 0.623779 0.135159 0.264497
H12   H     H_    0.432745 0.648329 0.774869 0.149116
H13   H     H_    0.725506 0.658919 0.622514 0.189586
H14   H     H_    0.873734 0.685501 0.623965 0.104784
H15   H     H_    0.729375 0.598826 0.784923 0.253241
H16   H     H_    0.873828 0.642051 0.784358 0.215762
H17   H     H_    0.822282 0.822949 0.743573 0.267336
H18   H     H_    0.758925 0.777028 0.848861 0.277497
H19   H     H_    0.677250 0.777071 0.749761 0.262867
H20   H     H_    0.984060 0.397431 0.337369 0.196552
H21   H     H_    0.015395 0.573010 0.675408 0.184148
H22   H     H_    0.431976 0.650582 0.227400 0.158281
H23   H     H_    0.585272 0.360130 0.771946 0.169409
H24   H     H_    0.320159 0.187729 0.422196 0.180150
H25   H     H_    0.679783 0.814038 0.580638 0.145542
H26   H     H_    0.686505 0.997266 0.607702 0.160691
N1    N     N_R   0.207800 0.519350 0.516680 -0.146258
N2    N     N_R   0.792200 0.480650 0.483320 -0.137657
N3    N     N_1   0.363297 0.839604 0.134158 -0.180700
N4    N     N_1   0.679398 0.183155 0.864200 -0.178111
N5    N     N_1   0.360931 0.836214 0.868808 -0.193055
N6    N     N_1   0.668475 0.180069 0.129922 -0.190484
N7    N     N_1   0.686216 0.220253 0.653826 -0.172772
N8    N     N_1   0.327368 0.789721 0.335841 -0.244717
O1    O     O_R   0.421700 0.658830 0.504450 -0.618219
O2    O     O_3   0.811454 0.528710 0.637241 -0.622150
O3    O     O_R   0.578300 0.341170 0.495550 -0.608384
O4    O     O_R   0.609310 0.646410 0.493750 -0.645658
O5    O     O_R   0.390690 0.353590 0.506250 -0.600492
O6    O     O_R   0.406180 0.506230 0.637500 -0.632508
O7    O     O_R   0.593820 0.493770 0.362500 -0.628379
O8    O     O_R   0.593800 0.493820 0.626800 -0.576096
O9    O     O_R   0.406200 0.506180 0.373200 -0.605076
O10   O     O_3   0.183689 0.456420 0.365898 -0.643084
Zn1   Zn    Zn3+2 0.374730 0.508290 0.507150 0.977322
Zn2   Zn    Zn3+2 0.625270 0.491710 0.492850 0.975429

loop_
_geom_bond_atom_site_label_1
_geom_bond_atom_site_label_2
_ccdc_geom_bond_type
C25   C31   A    
O4    Zn2   S    
C26   C32   A    
C16   C21   S    
C38   N7    T    
C27   C29   A    
C34   C37   S    
C41   C42   S    
C48   H26   S    
C44   H16   S    
C17   O7    A    
C7    H20   S    
C43   H13   S    
O6    Zn1   S    
C16   O6    A    
C6    C48   A    
C19   C21   A    
C24   C26   A    
C39   N8    T    
C5    C6    A    
C11   C14   A    
C24   H23   S    
C19   H12   S    
C35   N4    T    
O8    Zn2   S    
C17   C20   S    
C3    C47   A    
C10   H3    S    
C46   H19   S    
O7    Zn2   S    
N2    Zn2   S    
C40   H6    S    
C22   C25   A    
C43   H14   S    
C31   C33   S    
C2    H24   S    
C40   H5    S    
C1    O4    A    
C48   C50   A    
C3    C39   S    
O9    Zn1   S    
C2    C49   A    
C5    C49   A    
C44   H15   S    
C22   H22   S    
C10   N1    A    
C44   C46   S    
C18   H1    S    
C47   C50   A    
C4    C45   A    
C2    C45   A    
C1    O1    A    
C13   N1    A    
C32   C35   S    
C12   O5    A    
C4    C6    A    
C42   H10   S    
C1    C47   S    
C29   C34   A    
N1    Zn1   S    
C32   C34   A    
O5    Zn1   S    
C43   C44   S    
C23   C30   A    
C46   H18   S    
C11   N2    A    
C36   N5    T    
C49   H2    S    
O3    Zn2   S    
C18   C29   A    
C42   H11   S    
C40   C41   S    
C20   C22   A    
C16   O8    A    
C13   C15   A    
C37   N6    T    
C17   O9    A    
C7    C9    A    
C8    H21   S    
C8    C14   A    
C12   O3    A    
C43   O2    S    
C33   N3    T    
C40   O10   S    
C12   C45   S    
C3    C5    A    
C42   H9    S    
C41   H8    S    
C25   C27   A    
C26   C28   A    
C13   O10   S    
C28   C30   A    
C41   H7    S    
C46   H17   S    
C50   H25   S    
O1    Zn1   S    
C7    C15   A    
C18   C20   A    
C9    N2    A    
C8    C10   A    
C23   C36   S    
C21   C24   A    
C27   C28   A    
C14   C15   A    
C9    H4    S    
C11   O2    S    
C4    C38   S    
C19   C30   A    
C23   C31   A    
