data_mof_unit_62571.cif
_audit_creation_date              2012-12-10T17:10:10-0500
_audit_creation_method            fapswitch 2.2
_symmetry_space_group_name_H-M    P1
_symmetry_Int_Tables_number       1
_space_group_crystal_system       triclinic
_cell_length_a                    18.444816
_cell_length_b                    18.467879
_cell_length_c                    32.819045
_cell_angle_alpha                 90.068891
_cell_angle_beta                  90.034077
_cell_angle_gamma                 90.053097
_cell_volume                      11179.3540246

loop_
_atom_site_label
_atom_site_type_symbol
_atom_type_description
_atom_site_fract_x
_atom_site_fract_y
_atom_site_fract_z
_atom_type_partial_charge
C1    C     C_R   0.999986 0.500033 0.895969 0.487333
C2    C     C_1   0.500038 0.000123 0.231195 0.000857
C3    C     C_R   0.300510 0.806813 0.997032 0.020195
C4    C     C_R   0.693166 0.199481 0.497028 0.020961
C5    C     C_R   0.805086 0.697748 0.501351 0.031998
C6    C     C_R   0.301805 0.805532 0.501840 0.028811
C7    C     C_R   0.191848 0.299361 0.503545 0.019290
C8    C     C_R   0.298913 0.191753 0.503213 0.019343
C9    C     C_R   0.194353 0.698306 0.501767 0.027596
C10   C     C_R   0.697839 0.805173 0.501180 0.030848
C11   C     C_R   0.800510 0.306814 0.497032 0.020195
C12   C     C_R   0.218813 0.728210 0.033708 -0.150211
C13   C     C_1   0.499931 0.999989 0.731194 0.000846
C14   C     C_R   0.242527 0.189336 0.977780 -0.142175
C15   C     C_R   0.818031 0.235166 0.989127 -0.144166
C16   C     C_R   0.765064 0.817889 0.006802 -0.149227
C17   C     C_R   0.817877 0.764766 0.006807 -0.148579
C18   C     C_R   0.764861 0.181963 0.989247 -0.144312
C19   C     C_R   0.189329 0.242533 0.977738 -0.142889
C20   C     C_R   0.271889 0.781279 0.033710 -0.150383
C21   C     C_R   0.718813 0.228210 0.533708 -0.150212
C22   C     C_R   0.742527 0.689336 0.477780 -0.142176
C23   C     C_R   0.318032 0.735166 0.489129 -0.144167
C24   C     C_1   0.000038 0.500123 0.731195 0.000857
C25   C     C_R   0.265064 0.317889 0.506803 -0.149228
C26   C     C_R   0.317876 0.264766 0.506808 -0.148580
C27   C     C_R   0.264862 0.681962 0.489249 -0.144313
C28   C     C_R   0.689328 0.742533 0.477738 -0.142889
C29   C     C_R   0.771889 0.281279 0.533710 -0.150383
C30   C     C_1   0.999979 0.500083 0.149181 -0.005700
C31   C     C_1   0.500049 0.000065 0.149190 -0.005760
C32   C     C_1   0.499979 0.000083 0.649181 -0.005700
C33   C     C_1   0.000049 0.500065 0.649190 -0.005761
C34   C     C_1   0.499916 0.999931 0.768790 0.000628
C35   C     C_1   0.000019 0.500129 0.768788 0.000613
C36   C     C_1   0.999916 0.499931 0.268790 0.000628
C37   C     C_1   0.500019 0.000129 0.268788 0.000613
C38   C     C_1   0.499914 0.999884 0.813205 -0.035214
C39   C     C_1   0.999991 0.500115 0.813199 -0.035312
C40   C     C_1   0.999914 0.499884 0.313205 -0.035214
C41   C     C_R   0.499969 0.999959 0.895982 0.487133
C42   C     C_1   0.499991 0.000115 0.313199 -0.035312
C43   C     C_1   0.499931 0.999885 0.850802 -0.007145
C44   C     C_1   0.999973 0.500084 0.850793 -0.007335
C45   C     C_1   0.999931 0.499885 0.350802 -0.007145
C46   C     C_1   0.499973 0.000084 0.350793 -0.007335
C47   C     C_R   0.999998 0.500035 0.104000 0.485843
C48   C     C_R   0.500018 0.000021 0.104014 0.486223
C49   C     C_R   0.499998 0.000035 0.604000 0.485843
C50   C     C_R   0.000018 0.500021 0.604014 0.486223
C51   C     C_R   0.858040 0.639146 0.000986 0.499966
C52   C     C_R   0.499986 0.000033 0.395969 0.487333
C53   C     C_R   0.358734 0.860226 0.999271 0.495364
C54   C     C_R   0.140377 0.359355 0.999823 0.498924
C55   C     C_R   0.640329 0.140691 0.000165 0.498355
C56   C     C_R   0.139763 0.641269 0.999264 0.497032
C57   C     C_R   0.639353 0.858340 0.000919 0.501881
C58   C     C_R   0.859369 0.359607 0.000095 0.498584
C59   C     C_R   0.359389 0.140410 0.999929 0.497509
C60   C     C_R   0.358039 0.139146 0.500986 0.499967
C61   C     C_R   0.858734 0.360226 0.499271 0.495364
C62   C     C_R   0.640376 0.859355 0.499823 0.498925
C63   C     C_R   0.999969 0.499958 0.395982 0.487133
C64   C     C_R   0.140329 0.640691 0.500165 0.498355
C65   C     C_R   0.639763 0.141269 0.499264 0.497032
C66   C     C_R   0.139353 0.358340 0.500919 0.501882
C67   C     C_R   0.359369 0.859607 0.500095 0.498584
C68   C     C_R   0.859389 0.640410 0.499929 0.497508
C69   C     C_R   0.188781 0.704037 0.921631 -0.098201
C70   C     C_R   0.375955 0.268893 0.051076 -0.098448
C71   C     C_R   0.715994 0.391161 0.033458 -0.102736
C72   C     C_R   0.596559 0.704553 0.003681 -0.095014
C73   C     C_R   0.702542 0.597430 0.001106 -0.100922
C74   C     C_1   0.999957 0.500056 0.186778 -0.034394
C75   C     C_R   0.607548 0.285434 0.031449 -0.095122
C76   C     C_R   0.269448 0.376592 0.050410 -0.095619
C77   C     C_R   0.295720 0.810946 0.921634 -0.099128
C78   C     C_R   0.688781 0.204037 0.421631 -0.098201
C79   C     C_R   0.875956 0.768893 0.551075 -0.098449
C80   C     C_R   0.215992 0.891162 0.533456 -0.102736
C81   C     C_R   0.096559 0.204552 0.503679 -0.095013
C82   C     C_R   0.202542 0.097430 0.501103 -0.100923
C83   C     C_R   0.107546 0.785436 0.531447 -0.095122
C84   C     C_R   0.769449 0.876593 0.550409 -0.095619
C85   C     C_1   0.500051 0.000098 0.186784 -0.034405
C86   C     C_R   0.795720 0.310946 0.421634 -0.099129
C87   C     C_R   0.213432 0.732932 0.884961 -0.119423
C88   C     C_R   0.383329 0.330135 0.075662 -0.123128
C89   C     C_R   0.647353 0.406087 0.049072 -0.131873
C90   C     C_R   0.576609 0.632004 0.001409 -0.121312
C91   C     C_R   0.629407 0.578714 0.999639 -0.127523
C92   C     C_R   0.593099 0.353801 0.047569 -0.119896
C93   C     C_R   0.330515 0.383949 0.075161 -0.117457
C94   C     C_R   0.266700 0.786183 0.884962 -0.119928
C95   C     C_R   0.713431 0.232932 0.384961 -0.119423
C96   C     C_1   0.499957 0.000056 0.686778 -0.034394
C97   C     C_R   0.883330 0.830136 0.575661 -0.123128
C98   C     C_R   0.147350 0.906089 0.549069 -0.131874
C99   C     C_R   0.076609 0.132003 0.501405 -0.121312
C100  C     C_R   0.129406 0.078714 0.499635 -0.127524
C101  C     C_R   0.093097 0.853803 0.547565 -0.119897
C102  C     C_R   0.830516 0.883950 0.575160 -0.117458
C103  C     C_R   0.766700 0.286183 0.384963 -0.119928
C104  C     C_R   0.272798 0.781487 0.959285 0.027347
C105  C     C_R   0.260249 0.314632 0.025686 0.029937
C106  C     C_R   0.677119 0.268490 0.016170 0.030220
C107  C     C_1   0.000052 0.500098 0.686784 -0.034405
C108  C     C_R   0.724638 0.670948 0.001862 0.028823
C109  C     C_R   0.670456 0.725540 0.002568 0.028772
C110  C     C_R   0.731861 0.322552 0.016663 0.032181
C111  C     C_R   0.314478 0.260095 0.025884 0.031416
C112  C     C_R   0.218374 0.727074 0.959283 0.027586
C113  C     C_R   0.772798 0.281487 0.459285 0.027347
C114  C     C_R   0.760250 0.814632 0.525686 0.029938
C115  C     C_R   0.177118 0.768491 0.516169 0.030220
C116  C     C_R   0.224637 0.170948 0.501861 0.028823
C117  C     C_R   0.170456 0.225540 0.502567 0.028772
C118  C     C_1   0.999931 0.499989 0.231194 0.000846
C119  C     C_R   0.231860 0.822553 0.516661 0.032180
C120  C     C_R   0.814478 0.760095 0.525883 0.031416
C121  C     C_R   0.718374 0.227074 0.459283 0.027587
C122  C     C_R   0.193166 0.699481 0.997028 0.020961
C123  C     C_R   0.305086 0.197748 0.001350 0.031998
C124  C     C_R   0.801805 0.305532 0.001839 0.028812
C125  C     C_R   0.691848 0.799361 0.003545 0.019290
C126  C     C_R   0.798913 0.691753 0.003213 0.019344
C127  C     C_R   0.694353 0.198306 0.001767 0.027596
C128  C     C_R   0.197839 0.305173 0.001180 0.030848
H1    H     H_    0.198836 0.708103 0.062618 0.131609
H2    H     H_    0.735032 0.641376 0.459181 0.116113
H3    H     H_    0.371996 0.721649 0.478531 0.121562
H4    H     H_    0.281688 0.374144 0.508231 0.135853
H5    H     H_    0.374289 0.281038 0.508354 0.137676
H6    H     H_    0.278426 0.627960 0.478793 0.121282
H7    H     H_    0.641332 0.735011 0.459138 0.115388
H8    H     H_    0.792087 0.301346 0.562620 0.132256
H9    H     H_    0.145293 0.664951 0.919931 0.135895
H10   H     H_    0.418222 0.228323 0.052309 0.103461
H11   H     H_    0.756783 0.433111 0.035562 0.107039
H12   H     H_    0.235033 0.141377 0.959180 0.116112
H13   H     H_    0.553122 0.743132 0.007188 0.140401
H14   H     H_    0.740526 0.553240 0.002345 0.138286
H15   H     H_    0.564278 0.245858 0.031860 0.115515
H16   H     H_    0.229367 0.419354 0.051094 0.111777
H17   H     H_    0.334806 0.854414 0.919934 0.135923
H18   H     H_    0.645292 0.164951 0.419931 0.135895
H19   H     H_    0.918222 0.728324 0.552308 0.103461
H20   H     H_    0.256781 0.933113 0.535561 0.107040
H21   H     H_    0.053122 0.243132 0.507186 0.140402
H22   H     H_    0.240525 0.053240 0.502343 0.138288
H23   H     H_    0.871994 0.221651 0.978528 0.121561
H24   H     H_    0.064276 0.745860 0.531857 0.115518
H25   H     H_    0.729367 0.919355 0.551093 0.111777
H26   H     H_    0.834806 0.354414 0.419934 0.135923
H27   H     H_    0.190232 0.714714 0.856423 0.118852
H28   H     H_    0.430039 0.335734 0.095372 0.105385
H29   H     H_    0.636229 0.458438 0.062530 0.112144
H30   H     H_    0.519849 0.617013 0.001625 0.120262
H31   H     H_    0.613468 0.522453 0.997876 0.126337
H32   H     H_    0.539870 0.366073 0.059438 0.110758
H33   H     H_    0.336687 0.431425 0.094229 0.113061
H34   H     H_    0.781689 0.874145 0.008229 0.135852
H35   H     H_    0.284830 0.809282 0.856426 0.118686
H36   H     H_    0.690232 0.214714 0.356423 0.118852
H37   H     H_    0.930040 0.835735 0.595371 0.105385
H38   H     H_    0.136226 0.958441 0.562526 0.112145
H39   H     H_    0.019849 0.117013 0.501620 0.120262
H40   H     H_    0.113467 0.022453 0.497871 0.126338
H41   H     H_    0.039866 0.866076 0.559432 0.110760
H42   H     H_    0.836688 0.931426 0.594228 0.113061
H43   H     H_    0.784830 0.309282 0.356426 0.118686
H44   H     H_    0.874289 0.781038 0.008352 0.137675
H45   H     H_    0.778424 0.127961 0.978790 0.121280
H46   H     H_    0.141333 0.235011 0.959138 0.115388
H47   H     H_    0.292087 0.801346 0.062620 0.132255
H48   H     H_    0.698836 0.208103 0.562617 0.131610
O1    O     O_3   0.000000 0.500000 0.999990 -0.421419
O2    O     O_R   0.000000 0.560760 0.415980 -0.524788
O3    O     O_R   0.439240 1.000000 0.415980 -0.523583
O4    O     O_R   0.000000 0.439240 0.415980 -0.533190
O5    O     O_R   1.000000 0.560700 0.083990 -0.530855
O6    O     O_R   0.439300 0.000000 0.083990 -0.530224
O7    O     O_R   1.000000 0.439300 0.083990 -0.528416
O8    O     O_R   0.560700 0.000000 0.083990 -0.529007
O9    O     O_R   0.500000 0.060700 0.583990 -0.530855
O10   O     O_R   0.939300 0.500000 0.583990 -0.530224
O11   O     O_R   0.500000 0.939300 0.583990 -0.528416
O12   O     O_3   0.500000 0.000000 0.999990 -0.421383
O13   O     O_R   0.060700 0.500000 0.583990 -0.529008
O14   O     O_R   0.853840 0.585420 0.977960 -0.549063
O15   O     O_R   0.414580 0.853840 0.977960 -0.553263
O16   O     O_R   0.146160 0.414580 0.977960 -0.534883
O17   O     O_R   0.585420 0.146160 0.977960 -0.539302
O18   O     O_R   0.146160 0.585420 0.977960 -0.546305
O19   O     O_R   0.585420 0.853840 0.977960 -0.544364
O20   O     O_R   0.853840 0.414580 0.977960 -0.544638
O21   O     O_R   0.414580 0.146160 0.977960 -0.538878
O22   O     O_R   0.353840 0.085420 0.477960 -0.549064
O23   O     O_3   0.500000 1.000000 0.499990 -0.421419
O24   O     O_R   0.914580 0.353840 0.477960 -0.553263
O25   O     O_R   0.646160 0.914580 0.477960 -0.534884
O26   O     O_R   0.085420 0.646160 0.477960 -0.539303
O27   O     O_R   0.646160 0.085420 0.477960 -0.546305
O28   O     O_R   0.085420 0.353840 0.477960 -0.544365
O29   O     O_R   0.353840 0.914580 0.477960 -0.544638
O30   O     O_R   0.914580 0.646160 0.477960 -0.538878
O31   O     O_R   0.085460 0.353830 0.022010 -0.534943
O32   O     O_R   0.646170 0.085460 0.022010 -0.536824
O33   O     O_R   0.914540 0.646170 0.022010 -0.537594
O34   O     O_3   0.000000 0.500000 0.499990 -0.421382
O35   O     O_R   0.353830 0.914540 0.022010 -0.535211
O36   O     O_R   0.914540 0.353830 0.022010 -0.534629
O37   O     O_R   0.353830 0.085460 0.022010 -0.535001
O38   O     O_R   0.085460 0.646170 0.022010 -0.537740
O39   O     O_R   0.646170 0.914540 0.022010 -0.538106
O40   O     O_R   0.585460 0.853830 0.522010 -0.534943
O41   O     O_R   0.146170 0.585460 0.522010 -0.536824
O42   O     O_R   0.414540 0.146170 0.522010 -0.537594
O43   O     O_R   0.853830 0.414540 0.522010 -0.535211
O44   O     O_R   0.414540 0.853830 0.522010 -0.534629
O45   O     O_R   0.060760 0.500000 0.915980 -0.534767
O46   O     O_R   0.853830 0.585460 0.522010 -0.535001
O47   O     O_R   0.585460 0.146170 0.522010 -0.537740
O48   O     O_R   0.146170 0.414540 0.522010 -0.538107
O49   O     O_R   0.500000 0.060760 0.915980 -0.524788
O50   O     O_R   0.939240 0.500000 0.915980 -0.523583
O51   O     O_R   0.500000 0.939240 0.915980 -0.533190
O52   O     O_R   0.560760 1.000000 0.415980 -0.534767
Zn1   Zn    Zn3+2 0.000000 0.586740 0.031450 0.939462
Zn2   Zn    Zn3+2 0.500000 0.913250 0.968520 0.932812
Zn3   Zn    Zn3+2 0.086750 0.500000 0.968520 0.939104
Zn4   Zn    Zn3+2 0.500000 0.086750 0.968520 0.943585
Zn5   Zn    Zn3+2 0.413250 1.000000 0.468520 0.938095
Zn6   Zn    Zn3+2 0.000000 0.413250 0.468520 0.932812
Zn7   Zn    Zn3+2 0.586750 1.000000 0.468520 0.939104
Zn8   Zn    Zn3+2 0.000000 0.586750 0.468520 0.943585
Zn9   Zn    Zn3+2 0.413260 1.000000 0.031450 0.941269
Zn10  Zn    Zn3+2 0.000000 0.413260 0.031450 0.945495
Zn11  Zn    Zn3+2 0.586740 1.000000 0.031450 0.943558
Zn12  Zn    Zn3+2 0.500000 0.086740 0.531450 0.939462
Zn13  Zn    Zn3+2 0.913260 0.500000 0.531450 0.941269
Zn14  Zn    Zn3+2 0.500000 0.913260 0.531450 0.945495
Zn15  Zn    Zn3+2 0.086740 0.500000 0.531450 0.943558
Zn16  Zn    Zn3+2 0.913250 0.500000 0.968520 0.938095

loop_
_geom_bond_atom_site_label_1
_geom_bond_atom_site_label_2
_ccdc_geom_bond_type
C1    O50   A    
C102  H42   S    
O16   Zn3   S    
C48   O6    A    
C41   O51   A    
O6    Zn9   S    
O14   Zn16  S    
C76   C105  A    
C31   C85   T    
C81   C117  A    
C15   C18   A    
C28   H7    S    
C84   C102  A    
C7    C117  A    
C33   C107  T    
O42   Zn12  S    
O3    Zn5   S    
C70   C88   A    
O23   Zn12  S    
C15   H23   S    
C17   H44   S    
C54   C128  S    
C2    C37   T    
C108  C109  A    
C112  C122  A    
C55   O32   A    
C63   O2    A    
C54   O16   A    
C64   O41   A    
O20   Zn16  S    
C86   C113  A    
C88   H28   S    
C1    O45   A    
C67   O44   A    
O24   Zn6   S    
O34   Zn15  S    
C25   H4    S    
O37   Zn9   S    
O47   Zn12  S    
O23   Zn5   S    
O7    Zn10  S    
C57   C125  S    
C4    C65   S    
C30   C74   T    
C69   C112  A    
C97   H37   S    
C17   C126  A    
O25   Zn7   S    
O9    Zn12  S    
C70   C111  A    
C9    C64   S    
C87   C94   A    
C46   C52   S    
C77   C94   A    
C8    C26   A    
C116  C117  A    
C61   O24   A    
C2    C85   S    
O30   Zn8   S    
C42   C46   T    
C37   C42   S    
C50   O13   A    
C78   C121  A    
O52   Zn7   S    
O28   Zn6   S    
O12   Zn9   S    
O31   Zn10  S    
C110  C124  A    
C72   C109  A    
C52   O52   A    
C19   C128  A    
C57   O39   A    
O5    Zn1   S    
C16   C17   A    
C49   O11   A    
O13   Zn15  S    
O35   Zn9   S    
C101  H41   S    
C23   C27   A    
C36   C118  T    
C16   C125  A    
O8    Zn11  S    
C56   O38   A    
C97   C102  A    
C67   O29   A    
C60   O22   A    
C66   O28   A    
C105  C111  A    
C80   C119  A    
O4    Zn6   S    
C18   C127  A    
C22   C28   A    
C22   H2    S    
C103  H43   S    
C41   C43   S    
C12   C20   A    
C10   C62   S    
C82   C100  A    
C5    C68   S    
O12   Zn2   S    
C86   C103  A    
C14   C19   A    
O32   Zn11  S    
O46   Zn13  S    
C95   C103  A    
C29   H8    S    
C99   H39   S    
C73   H14   S    
C59   C123  S    
C72   H13   S    
C74   C118  S    
O1    Zn1   S    
C41   O49   A    
C24   C35   T    
C12   H1    S    
C5    C22   A    
C13   C96   S    
C111  C123  A    
O49   Zn4   S    
C83   C115  A    
C30   C47   S    
C36   C40   S    
C73   C91   A    
C12   C122  A    
C47   O7    A    
C10   C114  A    
C15   C124  A    
C3    C104  A    
C104  C112  A    
C8    C116  A    
C73   C108  A    
C71   H11   S    
C5    C120  A    
C16   H34   S    
C33   C50   S    
O44   Zn14  S    
C106  C127  A    
C45   C63   S    
C63   O4    A    
O43   Zn13  S    
O19   Zn2   S    
C9    C115  A    
C90   H30   S    
C80   H20   S    
C35   C39   S    
O41   Zn15  S    
C62   O25   A    
O27   Zn7   S    
C60   O42   A    
O23   Zn7   S    
C76   C93   A    
C72   C90   A    
C84   H25   S    
C51   O33   A    
C1    C44   S    
O50   Zn16  S    
C99   C100  A    
C65   O27   A    
C93   H33   S    
C78   C95   A    
C53   O35   A    
C21   H48   S    
C79   C120  A    
O45   Zn3   S    
C113  C121  A    
C3    C20   A    
C24   C107  S    
O33   Zn1   S    
C89   C92   A    
C53   O15   A    
C82   H22   S    
C51   O14   A    
C75   H15   S    
C71   C89   A    
C56   O18   A    
C76   H16   S    
C109  C125  A    
C6    C67   S    
C32   C96   T    
C57   O19   A    
C70   H10   S    
C98   H38   S    
C31   C48   S    
C54   O31   A    
C68   O30   A    
C87   H27   S    
C69   H9    S    
O39   Zn11  S    
C50   O10   A    
C77   H17   S    
C6    C119  A    
C65   O47   A    
C9    C27   A    
C66   O48   A    
C48   O8    A    
C83   H24   S    
C106  C110  A    
O21   Zn4   S    
C10   C28   A    
O34   Zn8   S    
C64   O26   A    
C88   C93   A    
C84   C114  A    
C14   C123  A    
C83   C101  A    
C105  C128  A    
C80   C98   A    
C34   C38   S    
C27   H6    S    
C62   O40   A    
O18   Zn3   S    
C79   C97   A    
C68   O46   A    
C61   O43   A    
O34   Zn13  S    
C14   H12   S    
C58   C124  S    
C51   C126  S    
O22   Zn5   S    
C69   C87   A    
C55   C127  S    
O10   Zn13  S    
C79   H19   S    
C59   O37   A    
O48   Zn15  S    
C89   H29   S    
C39   C44   T    
C58   O36   A    
C98   C101  A    
C81   C99   A    
O1    Zn16  S    
C115  C119  A    
C47   O5    A    
C7    C25   A    
C71   C110  A    
C92   H32   S    
C100  H40   S    
C108  C126  A    
O29   Zn5   S    
C25   C26   A    
C52   O3    A    
C82   C116  A    
C38   C43   T    
O12   Zn11  S    
C95   H36   S    
C8    C60   S    
C7    C66   S    
O2    Zn8   S    
C4    C21   A    
C3    C53   S    
O40   Zn14  S    
C90   C91   A    
C21   C29   A    
C59   O21   A    
O15   Zn2   S    
C81   H21   S    
C6    C23   A    
C58   O20   A    
C4    C121  A    
O34   Zn6   S    
C11   C61   S    
C86   H26   S    
C11   C113  A    
C114  C120  A    
C32   C49   S    
C19   H46   S    
C55   O17   A    
C78   H18   S    
O26   Zn8   S    
C91   H31   S    
C20   H47   S    
C18   H45   S    
C13   C34   T    
O51   Zn2   S    
C49   O9    A    
C40   C45   T    
C11   C29   A    
C75   C106  A    
O1    Zn3   S    
C75   C92   A    
C23   H3    S    
C26   H5    S    
C77   C104  A    
O17   Zn4   S    
O11   Zn14  S    
O12   Zn4   S    
O38   Zn1   S    
C94   H35   S    
O36   Zn10  S    
O23   Zn14  S    
C56   C122  S    
O1    Zn10  S    
