data_mof_unit_50684.cif
_audit_creation_date              2012-12-10T18:57:04-0500
_audit_creation_method            fapswitch 2.2
_symmetry_space_group_name_H-M    P1
_symmetry_Int_Tables_number       1
_space_group_crystal_system       triclinic
_cell_length_a                    10.578948
_cell_length_b                    9.96053
_cell_length_c                    10.670716
_cell_angle_alpha                 90.176827
_cell_angle_beta                  91.890991
_cell_angle_gamma                 89.803031
_cell_volume                      1123.76999026

loop_
_atom_site_label
_atom_site_type_symbol
_atom_type_description
_atom_site_fract_x
_atom_site_fract_y
_atom_site_fract_z
_atom_type_partial_charge
C1    C     C_R   0.260664 0.500119 0.499841 0.892140
C2    C     C_R   0.739206 0.499640 0.500973 0.870629
C3    C     C_R   0.597137 0.071948 0.557084 -0.016261
C4    C     C_R   0.402924 0.072118 0.442813 0.004983
C5    C     C_R   0.595195 0.928536 0.561213 0.208762
C6    C     C_R   0.404763 0.928674 0.438889 0.206743
C7    C     C_R   0.514089 0.499014 0.261708 0.901654
C8    C     C_R   0.495718 0.499679 0.740368 0.867161
C9    C     C_R   0.568399 0.609488 0.065080 0.039068
C10   C     C_R   0.553029 0.610045 0.937650 0.008435
C11   C     C_R   0.546135 0.493192 0.132156 -0.169539
C12   C     C_R   0.506747 0.496296 0.874514 -0.136020
C13   C     C_R   0.541467 0.369694 0.066290 0.158814
C14   C     C_R   0.499770 0.372459 0.940568 0.172628
C15   C     C_3   0.517948 0.756940 0.936001 -0.276637
C16   C     C_3   0.534380 0.754486 0.079298 -0.275290
C17   C     C_R   0.060507 0.471245 0.395721 -0.223064
C18   C     C_R   0.931424 0.470588 0.396489 -0.213502
C19   C     C_R   0.871721 0.498606 0.507644 -0.030822
C20   C     C_R   0.128156 0.500320 0.506006 -0.047512
C21   C     C_R   0.937952 0.524920 0.621879 0.173629
C22   C     C_R   0.070251 0.527015 0.620430 0.143852
H1    H     H_    0.589469 0.818272 0.888232 0.167795
H2    H     H_    0.445525 0.770164 0.130202 0.181331
H3    H     H_    0.107951 0.450122 0.309225 0.174925
H4    H     H_    0.877707 0.449419 0.310347 0.152100
N1    N     N_R   0.500000 0.857200 0.500000 -0.063424
N2    N     N_R   0.500000 0.142810 0.500000 -0.188320
O1    O     O_R   0.316770 0.614620 0.499990 -0.627566
O2    O     O_R   0.683230 0.614620 0.500010 -0.622018
O3    O     O_R   0.316800 0.385290 0.500000 -0.600179
O4    O     O_R   0.683200 0.385290 0.500000 -0.607268
O5    O     O_R   0.500000 0.614690 0.316780 -0.633805
O6    O     O_R   0.500000 0.614690 0.683220 -0.627071
O7    O     O_R   0.500020 0.385360 0.316780 -0.581442
O8    O     O_R   0.499980 0.385360 0.683220 -0.581596
Zn1   Zn    Zn3+2 0.500000 0.653120 0.500000 0.963614
Zn2   Zn    Zn3+2 0.500000 0.346880 0.500000 1.000167
C23   C     C_3   0.583156 0.237693 0.125037 -0.758518
H5    H     H_    0.629081 0.173194 0.054469 0.238673
H6    H     H_    0.655444 0.254220 0.201364 0.236490
H7    H     H_    0.501311 0.182827 0.161591 0.282926
C24   C     C_3   0.434619 0.248510 0.886167 -0.746329
H8    H     H_    0.393724 0.186203 0.960681 0.235675
H9    H     H_    0.353160 0.276868 0.823470 0.229856
H10   H     H_    0.502258 0.185339 0.835018 0.278610
C25   C     C_2   0.384500 0.786911 0.890348 0.946620
O9    O     O_2   0.294669 0.733377 0.939187 -0.643113
O10   O     O_R   0.364424 0.878083 0.792355 -0.806417
H11   H     H_    0.271432 0.891322 0.769616 0.345492
C26   C     C_2   0.643123 0.837438 0.131047 0.953768
O11   O     O_2   0.747880 0.828752 0.086268 -0.616276
O12   O     O_R   0.623261 0.923951 0.231815 -0.819517
H12   H     H_    0.702659 0.973941 0.259776 0.349506
C27   C     C_3   0.869535 0.547393 0.743069 -0.857787
H13   H     H_    0.765684 0.536738 0.732798 0.231692
H14   H     H_    0.901673 0.472037 0.813746 0.257862
H15   H     H_    0.889111 0.650148 0.779189 0.252212
C28   C     C_3   0.151481 0.555266 0.737092 -0.814362
H16   H     H_    0.211480 0.643845 0.719961 0.260784
H17   H     H_    0.097548 0.577123 0.821830 0.272566
H18   H     H_    0.213143 0.467371 0.758229 0.215328
C29   C     C_2   0.707677 0.143861 0.611495 0.963313
O13   O     O_2   0.697820 0.211711 0.706170 -0.631328
O14   O     O_R   0.825039 0.129622 0.556334 -0.799247
H19   H     H_    0.894049 0.182979 0.601779 0.354387
C30   C     C_2   0.293034 0.144039 0.386624 0.956614
O15   O     O_2   0.304592 0.212448 0.292990 -0.633928
O16   O     O_R   0.174230 0.128074 0.438147 -0.798105
H20   H     H_    0.105219 0.178978 0.390103 0.352638
C31   C     C_3   0.699742 0.856684 0.633860 -0.771456
H21   H     H_    0.780101 0.836722 0.572094 0.262510
H22   H     H_    0.734759 0.916404 0.715709 0.201868
H23   H     H_    0.666746 0.763311 0.675431 0.268400
C32   C     C_3   0.300419 0.857158 0.365704 -0.748412
H24   H     H_    0.268987 0.915122 0.281605 0.206223
H25   H     H_    0.331623 0.761175 0.327136 0.269151
H26   H     H_    0.218267 0.841902 0.426097 0.254541

loop_
_geom_bond_atom_site_label_1
_geom_bond_atom_site_label_2
_ccdc_geom_bond_type
C27   H13   S    
C29   O14   S    
O6    Zn1   S    
C18   H4    S    
C16   C26   S    
C15   C25   S    
C24   H8    S    
C6    C32   S    
C25   O10   S    
O12   H12   S    
C7    C11   S    
C24   H10   S    
C3    N2    A    
C19   C21   A    
C9    C16   S    
C10   C15   S    
C15   C16   S    
C1    O3    A    
C17   C20   A    
C2    O4    A    
C18   C19   A    
C8    O8    A    
C5    N1    A    
C25   O9    D    
C28   H18   S    
O4    Zn2   S    
C9    C10   A    
C9    C11   A    
C15   H1    S    
C28   H16   S    
C16   H2    S    
C21   C22   A    
C7    O5    A    
C4    N2    A    
C23   H7    S    
C28   H17   S    
C30   O15   D    
O7    Zn2   S    
C4    C6    A    
C23   H5    S    
C31   H22   S    
O5    Zn1   S    
C26   O11   D    
O2    Zn1   S    
C30   O16   S    
C32   H24   S    
C31   H23   S    
C32   H25   S    
C6    N1    A    
N2    Zn2   S    
C8    C12   S    
C1    O1    A    
C17   C18   A    
C8    O6    A    
C24   H9    S    
C10   C12   A    
C12   C14   A    
O14   H19   S    
C27   H14   S    
C22   C28   S    
C21   C27   S    
C1    C20   S    
C2    C19   S    
C7    O7    A    
C20   C22   A    
C3    C5    A    
C4    C30   S    
C3    C29   S    
O3    Zn2   S    
C2    O2    A    
C17   H3    S    
O8    Zn2   S    
C31   H21   S    
C5    C31   S    
C11   C13   A    
N1    Zn1   S    
O16   H20   S    
C32   H26   S    
C13   C23   S    
C29   O13   D    
C23   H6    S    
O10   H11   S    
C27   H15   S    
O1    Zn1   S    
C26   O12   S    
C13   C14   A    
C14   C24   S    
