data_mof_unit_23197.cif
_audit_creation_date              2013-03-05T16:11:14-0500
_audit_creation_method            fapswitch 2.2
_symmetry_space_group_name_H-M    P1
_symmetry_Int_Tables_number       1
_space_group_crystal_system       triclinic
_cell_length_a                    6.954673
_cell_length_b                    20.538011
_cell_length_c                    24.479811
_cell_angle_alpha                 90.119834
_cell_angle_beta                  90.52961
_cell_angle_gamma                 89.55583
_cell_volume                      3496.3159204

loop_
_atom_site_label
_atom_site_type_symbol
_atom_site_description
_atom_site_fract_x
_atom_site_fract_y
_atom_site_fract_z
_atom_type_partial_charge
O1    O     O_R   0.507280 0.423750 0.460310 -0.590502
O2    O     O_R   0.171030 0.555650 0.437630 -0.590508
O3    O     O_R   0.004080 0.576250 0.539690 -0.589130
C1    C     C_R   0.339056 0.575682 0.421788 0.976452
O4    O     O_R   0.177330 0.422980 0.453960 -0.590857
O5    O     O_R   0.010420 0.442640 0.556140 -0.588720
C2    C     C_R   0.345773 0.399052 0.443179 0.922436
O6    O     O_R   0.500930 0.557360 0.443860 -0.590138
O7    O     O_3   0.340310 0.506600 0.533500 -0.267471
V1    V     V_3+5 0.064140 0.498780 0.493780 1.167017
O8    O     O_R   0.680890 0.444350 0.562370 -0.589347
C3    C     C_R   0.850589 0.424414 0.578152 0.980357
O9    O     O_R   0.674590 0.577020 0.546040 -0.588571
C4    C     C_R   0.842805 0.600950 0.556659 0.931767
V2    V     V_3+5 0.564550 0.501220 0.506220 1.170213
O10   O     O_3   0.838250 0.493400 0.466500 -0.273919
C5    C     C_R   0.975900 0.837922 0.911531 -0.098105
C6    C     C_R   0.847650 0.661388 0.589169 -0.107939
C7    C     C_R   0.046651 0.722853 0.906406 -0.073426
C8    C     C_R   0.038539 0.780468 0.936196 -0.181147
C9    C     C_R   0.925022 0.837778 0.855899 -0.205113
C10   C     C_R   0.936903 0.779810 0.823777 0.087473
C11   C     C_R   0.994263 0.721207 0.850611 -0.018941
C12   C     C_R   0.897492 0.778426 0.766031 0.067600
C13   C     C_R   0.915976 0.718642 0.736041 0.009234
C14   C     C_R   0.968609 0.661892 0.764917 -0.298538
C15   C     C_R   0.004643 0.662320 0.821051 0.322021
C16   C     C_R   0.841843 0.835057 0.737109 -0.179900
C17   C     C_R   0.805275 0.833652 0.681317 -0.238624
C18   C     C_R   0.822178 0.775998 0.651637 0.178687
C19   C     C_R   0.878621 0.717387 0.678115 0.143805
C20   C     C_R   0.780471 0.776724 0.595428 -0.175326
C21   C     C_R   0.791190 0.719817 0.564666 -0.161377
C22   C     C_R   0.892740 0.660086 0.645278 -0.234352
H1    H     H_    0.933852 0.613434 0.661827 0.113549
H2    H     H_    0.753969 0.721237 0.521601 0.113294
H3    H     H_    0.762235 0.878475 0.661137 0.133678
H4    H     H_    0.099692 0.679974 0.927383 0.168297
H5    H     H_    0.082826 0.780316 0.978760 0.115533
H6    H     H_    0.881996 0.884037 0.838989 0.092691
H7    H     H_    0.979407 0.615230 0.745121 0.176263
H8    H     H_    0.824377 0.881856 0.756303 0.127451
H9    H     H_    0.736441 0.821443 0.575294 0.121567
C23   C     C_R   0.729931 0.269218 0.731021 -0.163404
H10   H     H_    0.587961 0.283526 0.716718 0.119993
C24   C     C_R   0.894300 0.295075 0.706502 0.179995
C25   C     C_R   0.076592 0.275597 0.725853 -0.160477
H11   H     H_    0.205235 0.294910 0.707494 0.121289
C26   C     C_R   0.094299 0.230941 0.769084 -0.168219
H12   H     H_    0.236269 0.216627 0.783382 0.118896
C27   C     C_R   0.929930 0.205069 0.793592 0.180172
C28   C     C_R   0.747637 0.224562 0.774252 -0.170183
C29   C     C_1   0.876374 0.341101 0.661482 -0.014598
C30   C     C_1   0.947855 0.158976 0.838565 -0.024098
C31   C     C_1   0.961056 0.120731 0.876315 -0.289463
C32   C     C_1   0.863175 0.379280 0.623685 -0.281895
H13   H     H_    0.698938 0.702083 0.296164 0.120477
C33   C     C_R   0.596707 0.767320 0.233276 -0.166234
H14   H     H_    0.740586 0.779989 0.220724 0.120813
C34   C     C_R   0.436085 0.795113 0.206727 0.177675
C35   C     C_R   0.251292 0.777582 0.223973 -0.159570
H15   H     H_    0.125233 0.798314 0.204110 0.124488
C36   C     C_R   0.227463 0.733082 0.267003 -0.174955
H16   H     H_    0.083583 0.720405 0.279548 0.118679
C37   C     C_R   0.388085 0.705279 0.293545 0.180562
C38   C     C_R   0.572877 0.722821 0.276306 -0.174554
C39   C     C_1   0.459857 0.841091 0.161802 -0.008730
C40   C     C_1   0.364323 0.659240 0.338429 -0.025754
C41   C     C_1   0.348960 0.621003 0.376156 -0.292389
C42   C     C_1   0.475248 0.879255 0.124024 -0.265756
C43   C     C_R   0.473564 0.162031 0.088818 -0.135226
C44   C     C_R   0.347676 0.338501 0.410494 -0.106124
C45   C     C_R   0.555215 0.275963 0.095661 -0.152803
C46   C     C_R   0.541475 0.219009 0.065046 -0.140914
C47   C     C_R   0.415887 0.162862 0.143769 -0.114794
C48   C     C_R   0.417790 0.221424 0.175158 0.139197
C49   C     C_R   0.498747 0.277245 0.150555 0.180076
C50   C     C_R   0.354435 0.225594 0.230975 -0.105755
C51   C     C_R   0.403756 0.281954 0.263160 0.043908
C52   C     C_R   0.489919 0.335108 0.236653 -0.156439
C53   C     C_R   0.530043 0.333405 0.181258 -0.211488
C54   C     C_R   0.241622 0.176417 0.255813 0.332719
C55   C     C_R   0.216192 0.176592 0.312296 -0.326302
C56   C     C_R   0.275293 0.228811 0.344623 0.119741
C57   C     C_R   0.362259 0.283804 0.320551 0.113238
C58   C     C_R   0.233994 0.228098 0.400625 -0.130525
C59   C     C_R   0.268187 0.282555 0.433015 -0.163720
C60   C     C_R   0.398417 0.338794 0.354928 -0.228643
H17   H     H_    0.593955 0.375871 0.162701 0.135110
H18   H     H_    0.455907 0.383610 0.339491 0.101456
H19   H     H_    0.225774 0.281924 0.475497 0.109727
H20   H     H_    0.134886 0.137625 0.330702 0.181188
H21   H     H_    0.614533 0.318895 0.076655 0.130016
H22   H     H_    0.589023 0.218899 0.023015 0.118655
H23   H     H_    0.527687 0.379423 0.257535 0.124438
H24   H     H_    0.167154 0.186100 0.419047 0.119114
O11   O     O_R   0.323320 0.942780 0.056240 -0.587257
O12   O     O_R   0.647300 0.077050 0.046060 -0.578369
O13   O     O_R   0.813840 0.057330 0.943840 -0.592862
C61   C     C_R   0.478739 0.100971 0.056929 0.941184
O14   O     O_R   0.653250 0.944380 0.062400 -0.586401
O15   O     O_R   0.819830 0.923720 0.960300 -0.592609
C62   C     C_R   0.485190 0.924463 0.078317 0.982620
O16   O     O_R   0.317330 0.076390 0.039790 -0.579956
O17   O     O_3   0.483830 0.993470 0.966560 -0.280396
V3    V     V_3+5 0.760140 0.001210 0.006210 1.194846
O18   O     O_R   0.149290 0.922840 0.953850 -0.594259
C63   C     C_R   0.980969 0.898935 0.943305 0.916454
O19   O     O_R   0.143340 0.055500 0.937510 -0.593954
C64   C     C_R   0.973652 0.075527 0.921800 0.976818
V4    V     V_3+5 0.259690 0.998600 0.993650 1.182797
O20   O     O_3   0.986130 0.006520 0.033440 -0.253678
N1    N     N_R   0.048978 0.601554 0.847539 0.236285
O21   O     O_R   0.166868 0.560368 0.824793 -0.374678
O22   O     O_R   0.946410 0.582413 0.888612 -0.382728
H25   H     H_    0.618994 0.205244 0.792607 0.119754
H26   H     H_    0.381643 0.116601 0.161865 0.141206
N2    N     N_R   0.127408 0.131782 0.224276 0.225675
O23   O     O_R   0.021524 0.153343 0.183977 -0.402489
O24   O     O_R   0.103718 0.072348 0.241136 -0.404043

loop_
_geom_bond_atom_site_label_1
_geom_bond_atom_site_label_2
_geom_bond_distance
_ccdc_geom_bond_type
C13   C19   1.439461 A    
C43   C47   1.407304 A    
C36   C37   1.405116 A    
C59   H19   1.083727 S    
C45   C46   1.391347 A    
C4    C6    1.473537 S    
O2    C1    1.304501 A    
C7    C8    1.389713 A    
C47   H26   1.078362 S    
C45   H21   1.083981 S    
H13   C38   1.083294 S    
C1    O6    1.297678 A    
C21   H2    1.083609 S    
C25   C26   1.405771 A    
V3    O20   1.705701 S    
C55   H20   1.084658 S    
C14   C15   1.394562 A    
C16   C17   1.387224 A    
C56   C58   1.403416 A    
O19   V4    1.969925 S    
O5    C3    1.297857 A    
C18   C19   1.419326 A    
O11   V4    1.960789 S    
C29   C32   1.216442 T    
C33   C34   1.405100 A    
V2    O10   2.150195 S    
C61   O16   1.300080 A    
C5    C8    1.391728 A    
C22   H1    1.076641 S    
C35   C36   1.407822 A    
C46   H22   1.083628 S    
N2    O23   1.301885 A    
C30   C31   1.216453 T    
O8    V2    1.969705 S    
C56   C57   1.417275 A    
C33   C38   1.407811 A    
C25   H11   1.083244 S    
C34   C39   1.462405 S    
C40   C41   1.219536 T    
C26   C27   1.404452 A    
O18   C63   1.296461 A    
O15   C63   1.298845 A    
O1    V2    1.986786 S    
C11   C15   1.409782 A    
O7    V1    2.151702 S    
C53   H17   1.084423 S    
C23   C28   1.405768 A    
O17   V4    1.702078 S    
O14   C62   1.304513 A    
O1    C2    1.301555 A    
O9    C4    1.296339 A    
C1    C41   1.457972 S    
C44   C60   1.408483 A    
C23   C24   1.404446 A    
C28   H25   1.083244 S    
C27   C28   1.404828 A    
C12   C13   1.434782 A    
C5    C63   1.473959 S    
C2    C44   1.477387 S    
O4    C2    1.296050 A    
C8    H5    1.083797 S    
C50   C51   1.440709 A    
C13   C14   1.408620 A    
O13   C64   1.297863 A    
C5    C9    1.403918 A    
C51   C52   1.411443 A    
C34   C35   1.406190 A    
C7    C11   1.410756 A    
C47   C48   1.425975 A    
C17   C18   1.392696 A    
C7    H4    1.081041 S    
C43   C46   1.395571 A    
C50   C54   1.424440 A    
C55   C56   1.393793 A    
C49   C53   1.392796 A    
C37   C40   1.462437 S    
C19   C22   1.427060 A    
C3    C32   1.452797 S    
C48   C49   1.418895 A    
C52   H23   1.076091 S    
C6    C22   1.406303 A    
O11   C62   1.297679 A    
O3    C4    1.298782 A    
C58   H24   1.084038 S    
C15   N1    1.437642 S    
C60   H18   1.076954 S    
C37   C38   1.406193 A    
O6    V2    1.960240 S    
O12   C61   1.297191 A    
O9    V2    1.989418 S    
C31   C64   1.452810 S    
C26   H12   1.083210 S    
C10   C12   1.437726 A    
C54   N2    1.436765 S    
O2    V1    1.960937 S    
C51   C57   1.437225 A    
C44   C59   1.395675 A    
C23   H10   1.083210 S    
C58   C59   1.390367 A    
N1    O21   1.301353 A    
O17   V3    2.151676 S    
C57   C60   1.429493 A    
O14   V3    1.961133 S    
O13   V3    1.955418 S    
C24   C25   1.404824 A    
V4    O20   2.150261 S    
C42   C62   1.457925 S    
O18   V4    1.989502 S    
C12   C16   1.412531 A    
C48   C50   1.441733 A    
C52   C53   1.387311 A    
O5    V1    1.955496 S    
O16   V4    1.995738 S    
O8    C3    1.301740 A    
C43   C61   1.476163 S    
O12   V3    1.995612 S    
C39   C42   1.219512 T    
C20   C21   1.390915 A    
C27   C30   1.457296 S    
C33   H14   1.083250 S    
O4    V1    1.995567 S    
O3    V1    1.989970 S    
V1    O10   1.705632 S    
O19   C64   1.301735 A    
C18   C20   1.403679 A    
C9    H6    1.076335 S    
C24   C29   1.457278 S    
C16   H8    1.075506 S    
C20   H9    1.083965 S    
O15   V3    1.989763 S    
O7    V2    1.704859 S    
C35   H15   1.083296 S    
C6    C21   1.394767 A    
N2    O24   1.301519 A    
C36   H16   1.083248 S    
C54   C55   1.395570 A    
C17   H3    1.084427 S    
C45   C49   1.403610 A    
C10   C11   1.424881 A    
C9    C10   1.427681 A    
C14   H7    1.075411 S    
N1    O22   1.301374 A    
