data_mof_unit_10557.cif
_audit_creation_date              2012-12-10T17:14:40-0500
_audit_creation_method            fapswitch 2.2
_symmetry_space_group_name_H-M    P1
_symmetry_Int_Tables_number       1
_space_group_crystal_system       triclinic
_cell_length_a                    10.666582
_cell_length_b                    12.949338
_cell_length_c                    11.805616
_cell_angle_alpha                 99.570406
_cell_angle_beta                  92.954623
_cell_angle_gamma                 93.717085
_cell_volume                      1601.35319657

loop_
_atom_site_label
_atom_site_type_symbol
_atom_type_description
_atom_site_fract_x
_atom_site_fract_y
_atom_site_fract_z
_atom_type_partial_charge
C1    C     C_R   0.511757 0.300173 0.478319 0.818067
C2    C     C_R   0.490451 0.700346 0.521779 0.818932
C3    C     C_R   0.531170 0.138563 0.563257 0.078900
C4    C     C_R   0.450524 0.859239 0.434876 0.090166
C5    C     C_R   0.490514 0.031800 0.551607 0.010972
C6    C     C_R   0.483181 0.967788 0.441322 0.005821
C7    C     C_R   0.371387 0.405767 0.027581 -0.383994
C8    C     C_R   0.630257 0.591981 0.972580 -0.380504
C9    C     C_R   0.386037 0.412745 0.147313 0.346395
C10   C     C_R   0.616918 0.584380 0.852801 0.345117
C11   C     C_R   0.557472 0.541862 0.154555 0.310430
C12   C     C_R   0.441662 0.458738 0.845573 0.312415
C13   C     C_R   0.547436 0.533726 0.032206 0.010902
C14   C     C_R   0.452400 0.465867 0.967926 0.011947
C15   C     C_R   0.260420 0.502908 0.501049 0.837890
C16   C     C_R   0.739627 0.496982 0.498897 0.835030
C17   C     C_3   0.037068 0.401686 0.484713 0.128496
C18   C     C_3   0.963181 0.598047 0.514969 0.128586
C19   C     C_3   0.951861 0.446404 0.397420 0.118906
C20   C     C_3   0.048391 0.553322 0.602306 0.115417
C21   C     C_3   0.875556 0.496284 0.497368 -0.114245
C22   C     C_3   0.124574 0.503404 0.502364 -0.115646
C23   C     C_3   0.960897 0.452063 0.583686 0.132220
C24   C     C_3   0.039320 0.547597 0.416057 0.132423
C25   C     C_R   0.469475 0.814053 0.534896 -0.139946
C26   C     C_R   0.530178 0.186280 0.464980 -0.134529
C27   C     C_R   0.518397 0.012581 0.343684 0.192227
C28   C     C_R   0.455536 0.987449 0.648238 0.203681
C29   C     C_R   0.543934 0.123172 0.356463 0.135254
C30   C     C_R   0.460576 0.878468 0.644008 0.114505
Cu1   Cu    Cu3+1 0.509400 0.507730 0.615930 0.945316
Cu2   Cu    Cu3+1 0.490600 0.492270 0.384070 0.944764
H1    H     H_    0.295774 0.352204 0.983438 0.158809
H2    H     H_    0.707131 0.644073 0.016860 0.158077
N1    N     N_R   0.523540 0.519360 0.790140 -0.173741
N2    N     N_R   0.476460 0.480640 0.209860 -0.175130
O1    O     O_R   0.506670 0.354460 0.582000 -0.590762
O2    O     O_R   0.493330 0.645540 0.418000 -0.590621
O3    O     O_R   0.490800 0.341410 0.386200 -0.556585
O4    O     O_R   0.509200 0.658590 0.613800 -0.558628
O5    O     O_R   0.324790 0.506500 0.597880 -0.596108
O6    O     O_R   0.675210 0.493500 0.402120 -0.601731
O7    O     O_R   0.308910 0.493440 0.402080 -0.554317
O8    O     O_R   0.691090 0.506560 0.597920 -0.552513
C31   C     C_3   0.900867 0.385462 0.281088 -0.859424
H3    H     H_    0.980168 0.364788 0.226547 0.222889
H4    H     H_    0.847942 0.312210 0.293581 0.235245
H5    H     H_    0.838101 0.433638 0.237460 0.244979
C32   C     C_3   0.101091 0.614728 0.717913 -0.851694
H6    H     H_    0.022634 0.641486 0.770791 0.222396
H7    H     H_    0.158080 0.564410 0.764111 0.241876
H8    H     H_    0.160906 0.684175 0.703914 0.234790
C33   C     C_3   0.080329 0.290791 0.469646 -0.846605
H9    H     H_    0.997169 0.233235 0.460303 0.245670
H10   H     H_    0.134540 0.275998 0.391550 0.238507
H11   H     H_    0.141172 0.281657 0.545943 0.221298
C34   C     C_3   0.920096 0.708981 0.529939 -0.847304
H12   H     H_    0.003351 0.766452 0.539405 0.246043
H13   H     H_    0.859455 0.718153 0.453534 0.221236
H14   H     H_    0.865725 0.723839 0.607929 0.237912
N3    N     N_3   0.917072 0.397380 0.674251 -0.588402
H15   H     H_    0.996491 0.374109 0.716096 0.217807
H16   H     H_    0.877286 0.451920 0.734634 0.229076
N4    N     N_3   0.083224 0.601584 0.324997 -0.593235
H17   H     H_    0.003817 0.624133 0.282457 0.218997
H18   H     H_    0.123701 0.546743 0.265357 0.232306
C35   C     C_3   0.366183 0.798874 0.335161 -0.780334
H19   H     H_    0.299973 0.741174 0.365635 0.249710
H20   H     H_    0.305578 0.852401 0.297080 0.218822
H21   H     H_    0.421964 0.755852 0.268463 0.246712
C36   C     C_3   0.605416 0.193467 0.672519 -0.776661
H22   H     H_    0.684361 0.245791 0.651303 0.245922
H23   H     H_    0.545040 0.240895 0.731030 0.246770
H24   H     H_    0.649388 0.135877 0.719068 0.222333
C37   C     C_3   0.450926 0.832379 0.753644 -0.805392
H25   H     H_    0.435725 0.889962 0.831071 0.220421
H26   H     H_    0.371827 0.770926 0.743338 0.235673
H27   H     H_    0.540529 0.799515 0.774121 0.245224
C38   C     C_3   0.598826 0.170818 0.258815 -0.823379
H28   H     H_    0.684360 0.131633 0.231457 0.212183
H29   H     H_    0.527955 0.163220 0.185082 0.233658
H30   H     H_    0.635366 0.253544 0.283321 0.245677
C39   C     C_3   0.537442 0.942196 0.229873 -0.859909
H31   H     H_    0.591900 0.979658 0.168763 0.229156
H32   H     H_    0.590892 0.874954 0.246066 0.229479
H33   H     H_    0.445514 0.914624 0.183196 0.230310
C40   C     C_3   0.399936 0.053742 0.748862 -0.882636
H34   H     H_    0.313843 0.011868 0.773094 0.233611
H35   H     H_    0.469467 0.072180 0.823991 0.232509
H36   H     H_    0.367485 0.127274 0.725233 0.233760
C41   C     C_3   0.339085 0.381643 0.780718 -0.823336
H37   H     H_    0.337730 0.368365 0.687570 0.281315
H38   H     H_    0.349725 0.302905 0.803340 0.186278
H39   H     H_    0.245437 0.407252 0.805046 0.195551
C42   C     C_3   0.658819 0.620145 0.219576 -0.817060
H40   H     H_    0.661522 0.632091 0.312700 0.281031
H41   H     H_    0.752979 0.595996 0.194893 0.192574
H42   H     H_    0.645828 0.698944 0.197737 0.188931
N5    N     N_3   0.704171 0.643778 0.796284 -0.531073
H43   H     H_    0.707980 0.722282 0.836287 0.176222
H44   H     H_    0.793418 0.617803 0.810534 0.187584
N6    N     N_3   0.305488 0.347911 0.204000 -0.523315
H45   H     H_    0.316088 0.269475 0.169369 0.192314
H46   H     H_    0.212392 0.363330 0.185242 0.182333

loop_
_geom_bond_atom_site_label_1
_geom_bond_atom_site_label_2
_ccdc_geom_bond_type
C40   H34   S    
C16   C21   S    
C16   O6    A    
C27   C29   A    
C18   C21   S    
C12   C41   S    
C42   H40   S    
C4    C25   A    
C42   H42   S    
C15   C22   S    
C31   H3    S    
C17   C23   S    
C39   H31   S    
C18   C24   S    
Cu2   N2    S    
C11   N2    A    
C19   C21   S    
C5    C6    A    
C31   H5    S    
C41   H38   S    
Cu1   O4    S    
Cu2   O3    S    
N3    H16   S    
C36   H24   S    
N6    H45   S    
C7    C14   A    
Cu1   Cu2   S    
C9    N6    S    
C32   H7    S    
C9    N2    A    
C10   N1    A    
Cu2   O2    S    
C16   O8    A    
C18   C20   S    
C1    O1    A    
C31   H4    S    
C24   N4    S    
C13   C14   A    
C7    H1    S    
C10   N5    S    
C33   H10   S    
Cu1   O8    S    
C35   H19   S    
C15   O5    A    
C4    C6    A    
C41   H37   S    
C38   H29   S    
C34   H14   S    
C33   H9    S    
Cu1   O1    S    
C35   H20   S    
N4    H18   S    
C3    C36   S    
C37   H25   S    
C20   C32   S    
C4    C35   S    
C5    C28   A    
C2    O2    A    
C18   C34   S    
C6    C27   A    
C29   C38   S    
C20   C23   S    
C32   H8    S    
C28   C40   S    
C19   C31   S    
C8    H2    S    
C12   N1    A    
N6    H46   S    
C37   H26   S    
C39   H32   S    
C12   C14   A    
C21   C23   S    
C1    C26   S    
C22   C24   S    
C17   C33   S    
C36   H23   S    
C33   H11   S    
C11   C42   S    
C25   C30   A    
C7    C9    A    
Cu1   O5    S    
N5    H44   S    
C3    C26   A    
C20   C22   S    
C3    C5    A    
C38   H30   S    
C42   H41   S    
C17   C22   S    
N5    H43   S    
C35   H21   S    
N4    H17   S    
C28   C30   A    
C19   C24   S    
C15   O7    A    
C36   H22   S    
C41   H39   S    
C30   C37   S    
C11   C13   A    
C34   H12   S    
C27   C39   S    
C17   C19   S    
Cu2   O7    S    
C2    C25   S    
Cu1   N1    S    
N3    H15   S    
C37   H27   S    
C34   H13   S    
C1    O3    A    
C38   H28   S    
C8    C13   A    
C2    O4    A    
C23   N3    S    
C39   H33   S    
C26   C29   A    
C8    C10   A    
C32   H6    S    
C40   H36   S    
C40   H35   S    
Cu2   O6    S    
