data_mof_unit_16509.cif
_audit_creation_date              2012-10-26T21:23:31-0400
_audit_creation_method            fapswitch 2.2
_symmetry_space_group_name_H-M    P1
_symmetry_Int_Tables_number       1
_space_group_crystal_system       triclinic
_cell_length_a                    27.844342
_cell_length_b                    10.922319
_cell_length_c                    9.67165
_cell_angle_alpha                 89.99304
_cell_angle_beta                  89.705459
_cell_angle_gamma                 90.418903
_cell_volume                      2941.27096693

loop_
_atom_site_label
_atom_site_type_symbol
_atom_type_description
_atom_site_fract_x
_atom_site_fract_y
_atom_site_fract_z
_atom_type_partial_charge
C1    C     C_R   0.499156 0.265278 0.500094 0.544088
C2    C     C_R   0.973886 0.398744 0.469529 0.036977
C3    C     C_R   0.974287 0.604191 0.573479 0.018097
C4    C     C_R   0.407324 0.499667 0.500471 0.571208
C5    C     C_R   0.948852 0.501683 0.521033 0.030011
C6    C     C_R   0.947566 0.308790 0.396751 -0.100845
C7    C     C_R   0.897716 0.311378 0.391358 -0.116872
C8    C     C_R   0.872411 0.406214 0.454864 0.024421
C9    C     C_R   0.897910 0.502690 0.518167 -0.028276
C10   C     C_R   0.872459 0.600616 0.577426 0.025535
C11   C     C_R   0.822043 0.598895 0.574913 0.407304
C12   C     C_R   0.277459 0.465368 0.386821 -0.062748
C13   C     C_R   0.822053 0.408789 0.453372 0.406691
C14   C     C_R   0.719914 0.472153 0.626220 -0.060776
C15   C     C_R   0.669921 0.471762 0.621373 -0.167164
C16   C     C_R   0.500417 0.734737 0.500076 0.549452
C17   C     C_R   0.673203 0.539309 0.381564 0.220048
C18   C     C_R   0.723301 0.538578 0.387721 -0.011785
C19   C     C_R   0.746652 0.505036 0.509314 0.196999
C20   C     C_R   0.024493 0.391915 0.486385 0.041124
C21   C     C_R   0.050159 0.500475 0.521827 -0.017509
C22   C     C_R   0.025139 0.607641 0.561557 -0.021707
C23   C     C_R   0.252794 0.499217 0.506800 0.144377
C24   C     C_R   0.050030 0.280077 0.472130 0.247520
C25   C     C_R   0.101612 0.718671 0.577652 0.247845
C26   C     C_R   0.947765 0.700145 0.634835 -0.144953
C27   C     C_R   0.897805 0.697803 0.637359 -0.106805
C28   C     C_R   0.592625 0.502093 0.499475 0.582459
C29   C     C_R   0.051755 0.715421 0.586951 -0.113152
C30   C     C_2   0.496900 0.932923 0.386745 -0.146284
C31   C     C_2   0.502373 0.866800 0.502193 -0.109841
C32   C     C_2   0.499051 0.066946 0.386350 -0.157193
C33   C     C_2   0.496117 0.133299 0.502504 -0.116500
C34   C     C_R   0.101120 0.501562 0.518837 -0.079458
C35   C     C_2   0.470367 0.434146 0.922448 0.003805
C36   C     C_2   0.471674 0.430499 0.078221 0.001127
C37   C     C_R   0.176369 0.393522 0.489625 0.409462
C38   C     C_R   0.177926 0.608168 0.534631 0.430355
C39   C     C_R   0.278509 0.532366 0.624643 -0.066838
C40   C     C_R   0.328763 0.538056 0.622059 0.199802
C41   C     C_R   0.327800 0.459340 0.385254 0.210534
C42   C     C_3   0.342683 0.295708 0.241016 -0.011670
C43   C     C_3   0.374011 0.214569 0.331619 -0.383046
C44   C     C_3   0.042973 0.079549 0.390150 -0.020845
C45   C     C_R   0.126014 0.392344 0.492158 -0.011980
C46   C     C_3   0.004375 0.982484 0.366061 -0.357036
C47   C     C_3   0.346216 0.699072 0.768024 -0.004007
C48   C     C_3   0.389702 0.772921 0.719251 -0.355376
C49   C     C_R   0.100521 0.282709 0.474852 -0.090144
C50   C     C_R   0.127218 0.611183 0.543993 0.041353
C51   C     C_R   0.354033 0.499319 0.502344 0.017024
C52   C     C_R   0.645762 0.504499 0.499402 0.010986
Cl1   Cl    Cl    0.128883 0.861492 0.614626 -0.544863
Cl2   Cl    Cl    0.647496 0.589228 0.225316 -0.570781
Cu1   Cu    Cu3+1 0.500010 0.500020 0.638630 0.967467
Cu2   Cu    Cu3+1 0.499990 0.499980 0.361370 1.015307
H1    H     H_    0.259315 0.556232 0.718452 0.154749
H2    H     H_    0.490319 0.092275 0.603067 0.102825
H3    H     H_    0.443579 0.377836 0.871295 0.151877
H4    H     H_    0.526091 0.548839 0.893643 0.218511
H5    H     H_    0.447352 0.367375 0.129932 0.149142
H6    H     H_    0.521334 0.562042 0.105687 0.228881
H7    H     H_    0.120202 0.198021 0.467777 0.178717
H8    H     H_    0.650154 0.444735 0.713301 0.159867
H9    H     H_    0.737933 0.446102 0.720599 0.153858
H10   H     H_    0.879139 0.239174 0.335951 0.168584
H11   H     H_    0.965063 0.238612 0.337195 0.160707
H12   H     H_    0.964667 0.777025 0.685358 0.118666
H13   H     H_    0.352116 0.277087 0.131358 0.149017
H14   H     H_    0.304248 0.269001 0.253371 0.149839
H15   H     H_    0.364757 0.227040 0.442487 0.148277
H16   H     H_    0.368188 0.116967 0.303872 0.115188
H17   H     H_    0.412409 0.237799 0.315185 0.163375
H18   H     H_    0.074305 0.033037 0.436676 0.199024
H19   H     H_    0.053289 0.119459 0.287981 0.128166
H20   H     H_    0.973735 0.022128 0.308875 0.145102
H21   H     H_    0.019473 0.905982 0.304384 0.123753
H22   H     H_    0.991093 0.945971 0.466434 0.170625
H23   H     H_    0.879106 0.773375 0.685572 0.172952
H24   H     H_    0.342704 0.710619 0.881693 0.163001
H25   H     H_    0.313128 0.738557 0.721739 0.147074
H26   H     H_    0.422521 0.739791 0.771659 0.188196
H27   H     H_    0.394183 0.763649 0.605595 0.148706
H28   H     H_    0.384695 0.871137 0.744740 0.096128
H29   H     H_    0.744352 0.565043 0.297922 0.163606
H30   H     H_    0.034517 0.800865 0.610754 0.139772
H31   H     H_    0.491637 0.887940 0.287737 0.156541
H32   H     H_    0.509406 0.908051 0.601782 0.107673
H33   H     H_    0.502639 0.111683 0.286451 0.152957
H34   H     H_    0.257353 0.442201 0.294775 0.149322
N1    N     N_R   0.201155 0.500401 0.509361 -0.398667
N2    N     N_R   0.798045 0.503879 0.513478 -0.399961
N3    N     N_2   0.499480 0.498660 0.846910 -0.347738
N4    N     N_2   0.499460 0.498630 0.153040 -0.336014
O1    O     O_R   0.500010 0.321960 0.617040 -0.499830
O2    O     O_R   0.569740 0.500000 0.617090 -0.506137
O3    O     O_R   0.569730 0.499960 0.382940 -0.427214
O4    O     O_2   0.200493 0.288322 0.468505 -0.489721
O5    O     O_3   0.351644 0.421611 0.266573 -0.543857
O6    O     O_3   0.025076 0.169209 0.482289 -0.558432
O7    O     O_3   0.353195 0.572964 0.740362 -0.540509
O8    O     O_2   0.797219 0.316902 0.392899 -0.476164
O9    O     O_2   0.204175 0.711483 0.548976 -0.421493
O10   O     O_2   0.797185 0.691773 0.632162 -0.473359
O11   O     O_R   0.499990 0.321920 0.382900 -0.508041
O12   O     O_R   0.430270 0.500040 0.617060 -0.461481
O13   O     O_R   0.430260 0.500000 0.382910 -0.459516
O14   O     O_R   0.500010 0.678080 0.617100 -0.509999
O15   O     O_R   0.499990 0.678040 0.382960 -0.489470

loop_
_geom_bond_atom_site_label_1
_geom_bond_atom_site_label_2
_ccdc_geom_bond_type
C28   O3    A    
C10   C27   A    
Cu1   Cu2   S    
C43   H17   S    
C8    C13   A    
C47   O7    S    
C22   C29   A    
C28   C52   S    
C35   C36   S    
Cu1   N3    S    
C46   H20   S    
C1    C33   S    
C7    C8    A    
C16   C31   S    
Cu2   N4    S    
C12   C23   A    
C26   C27   A    
C33   H2    S    
C49   H7    S    
C47   H24   S    
C12   H34   S    
C25   Cl1   S    
C27   H23   S    
C30   C31   D    
C39   H1    S    
C42   H14   S    
C35   H3    S    
C18   C19   A    
C25   C50   A    
C19   N2    S    
C40   O7    S    
C11   N2    A    
C20   C24   A    
C8    C9    A    
C15   H8    S    
C41   O5    S    
C11   O10   S    
C9    C10   A    
H4    N3    S    
C21   C22   A    
C2    C6    A    
Cu2   O3    S    
C17   C52   A    
C37   O4    S    
C44   C46   S    
C16   O15   A    
C35   N3    D    
C25   C29   A    
C4    O13   A    
C34   C50   A    
C18   H29   S    
C37   N1    A    
C4    C51   S    
C2    C20   A    
C47   C48   S    
Cu1   O1    S    
C39   C40   A    
C46   H22   S    
C21   C34   A    
Cu1   O12   S    
C4    O12   A    
C38   N1    A    
C42   H13   S    
C48   H28   S    
C44   H19   S    
Cu2   O13   S    
C5    C9    A    
C38   O9    S    
C32   H33   S    
C45   C49   A    
C1    O1    A    
C17   C18   A    
C34   C45   A    
C15   C52   A    
C44   H18   S    
C29   H30   S    
C6    H11   S    
H6    N4    S    
C13   N2    A    
C23   N1    S    
C2    C5    A    
C42   C43   S    
C37   C45   A    
C36   H5    S    
Cu2   O15   S    
C12   C41   A    
C24   C49   A    
C43   H16   S    
C43   H15   S    
C31   H32   S    
C24   O6    S    
C14   C19   A    
C3    C26   A    
Cu1   O2    S    
C3    C5    A    
C46   H21   S    
C6    C7    A    
C38   C50   A    
C40   C51   A    
C48   H27   S    
Cu1   O14   S    
C28   O2    A    
C26   H12   S    
C32   C33   D    
C13   O8    S    
C42   O5    S    
C7    H10   S    
C30   C32   S    
C44   O6    S    
C23   C39   A    
C14   H9    S    
C48   H26   S    
C47   H25   S    
Cu2   O11   S    
C10   C11   A    
C16   O14   A    
C36   N4    D    
C20   C21   A    
C14   C15   A    
C3    C22   A    
C30   H31   S    
C17   Cl2   S    
C41   C51   A    
C1    O11   A    
