data_mof_unit_68493.cif
_audit_creation_date              2012-12-11T17:48:51-0500
_audit_creation_method            fapswitch 2.2
_symmetry_space_group_name_H-M    P1
_symmetry_Int_Tables_number       1
_space_group_crystal_system       triclinic
_cell_length_a                    8.174009
_cell_length_b                    12.884923
_cell_length_c                    14.943722
_cell_angle_alpha                 97.517339
_cell_angle_beta                  97.525644
_cell_angle_gamma                 98.828658
_cell_volume                      1523.44217499

loop_
_atom_site_label
_atom_site_type_symbol
_atom_type_description
_atom_site_fract_x
_atom_site_fract_y
_atom_site_fract_z
_atom_type_partial_charge
Ba1   Ba    Ba6+2 0.843750 0.550210 0.455600 1.656802
Ba2   Ba    Ba6+2 0.346090 0.449880 0.544410 1.662936
C1    C     C_3   0.492391 0.883045 0.161525 -0.385154
C2    C     C_R   0.892932 0.447517 0.923908 -0.040523
C3    C     C_R   0.036720 0.459291 0.110580 -0.034858
C4    C     C_3   0.068659 0.762612 0.199537 0.359499
C5    C     C_R   0.874393 0.403576 0.076734 -0.034445
C6    C     C_R   0.801583 0.402199 0.986904 -0.111864
C7    C     C_R   0.107181 0.469811 0.204894 0.053550
C8    C     C_R   0.270776 0.524648 0.232693 -0.299415
C9    C     C_R   0.085103 0.532098 0.796100 0.058446
C10   C     C_R   0.155084 0.545110 0.890742 -0.031438
C11   C     C_R   0.060089 0.499247 0.953943 0.006469
C12   C     C_3   0.575899 0.825578 0.232635 0.314934
C13   C     C_R   0.316617 0.602261 0.924659 -0.022165
C14   C     C_R   0.387707 0.607203 0.015471 -0.112820
C15   C     C_R   0.297435 0.560147 0.078121 -0.040678
C16   C     C_3   0.029078 0.786068 0.102546 -0.342100
C17   C     C_R   0.131145 0.506738 0.047786 0.007264
C18   C     C_R   0.367639 0.566345 0.170598 -0.002894
C19   C     C_R   0.921746 0.477650 0.768435 -0.300015
C20   C     C_R   0.767506 0.179485 0.536675 -0.276626
C21   C     C_R   0.421693 0.808479 0.459795 -0.249623
C22   C     C_R   0.393710 0.982288 0.421156 -0.076093
C23   C     C_3   0.408254 0.287343 0.268281 0.288109
C24   C     C_R   0.326479 0.875520 0.418031 0.042565
C25   C     C_R   0.581167 0.847480 0.510310 0.042839
C26   C     C_R   0.648440 0.958615 0.517429 -0.055496
C27   C     C_R   0.552028 0.026352 0.472177 -0.053196
C28   C     C_3   0.269679 0.784511 0.674931 0.263444
C29   C     C_R   0.613734 0.137474 0.482542 0.022458
C30   C     C_R   0.869344 0.113942 0.574083 0.005297
C31   C     C_R   0.808360 0.004755 0.567555 -0.060422
C32   C     C_3   0.320783 0.900085 0.718402 -0.213929
C33   C     C_3   0.865406 0.211296 0.311535 0.265021
C34   C     C_3   0.342131 0.254297 0.166879 -0.377400
C35   C     C_3   0.753761 0.115857 0.250051 -0.271527
C36   C     C_3   0.775987 0.700522 0.730481 0.302514
C37   C     C_3   0.809861 0.733109 0.833776 -0.396854
C38   C     C_2   0.335279 0.966506 0.646046 0.360085
C39   C     C_2   0.191979 0.933321 0.774949 0.587130
C40   C     C_2   0.978512 0.177469 0.384408 0.466359
C41   C     C_2   0.687458 0.129651 0.961444 0.512179
C42   C     C_3   0.135036 0.236066 0.795160 0.358290
C43   C     C_3   0.147945 0.205633 0.890471 -0.337510
C44   C     C_3   0.666816 0.193218 0.809639 0.247669
C45   C     C_3   0.634149 0.098766 0.860322 -0.212063
C46   C     C_R   0.823580 0.439713 0.830998 -0.008545
H1    H     H_    0.671039 0.883713 0.281654 0.085323
H2    H     H_    0.914427 0.801747 0.852955 0.147297
H3    H     H_    0.844242 0.666339 0.867733 0.060896
H4    H     H_    0.695896 0.755821 0.858404 0.124505
H5    H     H_    0.479962 0.792543 0.272321 -0.060468
H6    H     H_    0.426343 0.942844 0.195049 0.099914
H7    H     H_    0.308373 0.317618 0.302164 0.039009
H8    H     H_    0.518591 0.351722 0.276243 0.054322
H9    H     H_    0.439645 0.223689 0.131254 0.165221
H10   H     H_    0.400336 0.825152 0.110653 0.118001
H11   H     H_    0.058664 0.722121 0.053170 0.069230
H12   H     H_    0.444722 0.908131 0.761499 0.062938
H13   H     H_    0.011249 0.259086 0.777318 -0.098646
H14   H     H_    0.274147 0.186860 0.911481 0.186392
H15   H     H_    0.127376 0.272636 0.940072 0.055318
H16   H     H_    0.051647 0.135037 0.891258 0.117664
H17   H     H_    0.790986 0.238770 0.841043 -0.048472
H18   H     H_    0.669435 0.164163 0.736538 -0.002455
H19   H     H_    0.704187 0.036317 0.835209 0.006125
H20   H     H_    0.498720 0.066915 0.846609 0.163692
H21   H     H_    0.799079 0.361606 0.119142 0.114483
H22   H     H_    0.673119 0.362689 0.967452 0.108066
H23   H     H_    0.784307 0.261114 0.343771 -0.030675
H24   H     H_    0.514533 0.649499 0.035633 0.104366
H25   H     H_    0.392193 0.642937 0.881629 0.117974
H26   H     H_    0.326398 0.530591 0.303355 0.073360
H27   H     H_    0.867035 0.469275 0.697358 0.068253
H28   H     H_    0.316398 0.031225 0.387968 0.136046
H29   H     H_    0.888088 0.957204 0.600596 0.110423
H30   H     H_    0.814645 0.263858 0.543741 0.042311
H31   H     H_    0.201793 0.753179 0.212123 -0.099587
H32   H     H_    0.894257 0.790659 0.086040 0.148780
H33   H     H_    0.153638 0.772310 0.624076 0.075535
H34   H     H_    0.671244 0.143596 0.196625 0.150242
H35   H     H_    0.438513 0.031977 0.652005 0.037254
H36   H     H_    0.066838 0.936832 0.742067 0.000583
H37   H     H_    0.036253 0.236362 0.442599 0.027194
H38   H     H_    0.229197 0.191407 0.156863 0.151956
H39   H     H_    0.308624 0.323389 0.136109 0.049078
H40   H     H_    0.232244 0.306152 0.795818 0.115845
H41   H     H_    0.817218 0.163050 0.988826 -0.024760
H42   H     H_    0.988078 0.686963 0.205255 0.090595
H43   H     H_    0.367223 0.725908 0.457094 0.057779
H44   H     H_    0.104794 0.862932 0.095331 0.133066
H45   H     H_    0.674741 0.069686 0.291128 0.051074
H46   H     H_    0.373366 0.757876 0.642000 -0.009513
H47   H     H_    0.830518 0.063496 0.215706 0.145125
H48   H     H_    0.891163 0.679820 0.706863 0.000194
H49   H     H_    0.674032 0.630207 0.713857 0.071789
H50   H     H_    0.587680 0.923485 0.125238 0.154289
O1    O     O_2   0.827880 0.435260 0.277750 -0.476772
O2    O     O_2   0.210103 0.130438 0.562882 -0.385372
O3    O     O_3   0.159217 0.150546 0.732495 -0.610626
O4    O     O_3   0.100280 0.438960 0.391170 -0.503678
O5    O     O_3   0.587780 0.631850 0.546230 -0.491211
O6    O     O_2   0.332590 0.233690 0.456160 -0.439618
O7    O     O_3   0.453845 0.199016 0.304769 -0.650805
O8    O     O_2   0.485495 0.448385 0.824055 -0.500267
O9    O     O_3   0.538928 0.254101 0.816419 -0.589444
O10   O     O_3   0.625580 0.634130 0.333250 -0.472683
O11   O     O_2   0.707143 0.554105 0.176366 -0.493537
O12   O     O_3   0.730064 0.786211 0.690396 -0.651113
O13   O     O_3   0.964773 0.265618 0.257873 -0.659681
O14   O     O_3   0.658111 0.750022 0.188583 -0.591410
O15   O     O_2   0.857130 0.766340 0.543890 -0.468523
O16   O     O_3   0.056550 0.691050 0.379010 -0.501675
O17   O     O_2   0.987077 0.879409 0.430673 -0.385414
O18   O     O_2   0.225216 0.948041 0.580173 -0.579222
O19   O     O_2   0.225409 0.953373 0.858070 -0.584857
O20   O     O_2   0.007812 0.086952 0.379181 -0.570013
O21   O     O_2   0.585767 0.116332 0.013565 -0.596567
O22   O     O_3   0.037135 0.846523 0.261289 -0.576180
O23   O     O_2   0.361830 0.564780 0.722310 -0.464639
O24   O     O_3   0.089430 0.561130 0.608830 -0.503966
O25   O     O_3   0.564130 0.365960 0.666760 -0.460971
O26   O     O_3   0.240127 0.730511 0.746144 -0.648994
O27   O     O_3   0.601940 0.368240 0.453770 -0.487480
O28   O     O_3   0.133170 0.309040 0.621000 -0.498918
P1    P     P_3+3 0.998730 0.403530 0.291970 0.952234
P2    P     P_3+3 0.687380 0.751030 0.571310 0.962832
P3    P     P_3+3 0.103140 0.825492 0.372773 1.059469
P4    P     P_3+3 0.190990 0.596560 0.708040 0.966952
P5    P     P_3+3 0.089035 0.173580 0.622430 1.003695
P6    P     P_3+3 0.588340 0.624217 0.215267 0.956627
P7    P     P_3+3 0.506398 0.232846 0.423514 0.936415
P8    P     P_3+3 0.604761 0.378372 0.785417 0.952279

loop_
_geom_bond_atom_site_label_1
_geom_bond_atom_site_label_2
_ccdc_geom_bond_type
C37   H3    S    
C14   H24   S    
Ba1   P2    S    
O23   P4    D    
C29   P7    S    
Ba1   O1    S    
O2    P5    D    
C23   O7    S    
C5    C6    A    
O15   P2    D    
Ba2   O25   S    
C12   O14   S    
C41   H41   S    
C20   C30   A    
C32   C38   S    
O28   P5    S    
C46   P8    S    
C26   C27   A    
C33   C35   S    
C22   C24   A    
C44   H18   S    
O9    P8    S    
O17   P3    D    
C36   C37   S    
C1    H6    S    
C12   H1    S    
Ba2   O4    S    
C13   C14   A    
C43   H14   S    
C15   C18   A    
C35   H47   S    
Ba1   Ba2   S    
C21   C24   A    
C4    O22   S    
C2    C11   A    
C33   C40   S    
C22   C27   A    
Ba2   P4    S    
Ba1   O24   S    
C8    C18   A    
C14   C15   A    
C23   H8    S    
C21   C25   A    
C36   O12   S    
C7    C8    A    
Ba1   O5    S    
C2    C6    A    
C19   C46   A    
C37   H4    S    
C33   H23   S    
C32   H12   S    
C38   H35   S    
C32   C39   S    
Ba1   O15   S    
C18   P6    S    
C36   H49   S    
C45   H19   S    
Ba2   O24   S    
C34   H39   S    
C4    C16   S    
C41   O21   D    
C20   C29   A    
C28   C32   S    
O25   P8    S    
O26   P4    S    
O22   P3    S    
Ba1   P1    S    
C20   H30   S    
C44   H17   S    
O4    P1    S    
O6    P7    D    
C3    C5    A    
C11   C17   A    
C40   O20   D    
O1    P1    D    
Ba1   O10   S    
C34   H38   S    
C4    H42   S    
C39   H36   S    
C9    C19   A    
C1    H10   S    
C3    C7    A    
C25   P2    S    
C10   C13   A    
Ba2   O6    S    
C9    C10   A    
C44   O9    S    
C12   H5    S    
O11   P6    D    
C35   H45   S    
C40   H37   S    
C7    P1    S    
O14   P6    S    
O5    P2    S    
C24   P3    S    
C1    C12   S    
O3    P5    S    
C13   H25   S    
C28   O26   S    
C26   C31   A    
C34   H9    S    
O13   P1    S    
O16   P3    S    
C21   H43   S    
C35   H34   S    
Ba1   O16   S    
C36   H48   S    
C9    P4    S    
Ba2   O28   S    
C45   H20   S    
C33   O13   S    
C42   C43   S    
O7    P7    S    
C2    C46   A    
Ba2   O23   S    
O27   P7    S    
C44   C45   S    
C22   H28   S    
C23   H7    S    
Ba1   O27   S    
C5    H21   S    
C42   O3    S    
C3    C17   A    
C42   H13   S    
C19   H27   S    
C43   H16   S    
C6    H22   S    
C16   H44   S    
C30   C31   A    
C28   H33   S    
C27   C29   A    
C8    H26   S    
C1    H50   S    
C31   H29   S    
C4    H31   S    
C38   O18   D    
Ba2   O5    S    
C15   C17   A    
C43   H15   S    
O10   P6    S    
C23   C34   S    
Ba2   O27   S    
C16   H11   S    
O8    P8    D    
C37   H2    S    
C10   C11   A    
C16   H32   S    
C28   H46   S    
C25   C26   A    
C39   O19   D    
C42   H40   S    
C41   C45   S    
Ba1   O4    S    
O24   P4    S    
C30   P5    S    
O12   P2    S    
