data_mof_unit_33690.cif
_audit_creation_date              2012-12-10T18:47:09-0500
_audit_creation_method            fapswitch 2.2
_symmetry_space_group_name_H-M    P1
_symmetry_Int_Tables_number       1
_space_group_crystal_system       triclinic
_cell_length_a                    10.759637
_cell_length_b                    10.015452
_cell_length_c                    15.004579
_cell_angle_alpha                 91.324983
_cell_angle_beta                  90.890641
_cell_angle_gamma                 90.106336
_cell_volume                      1616.30126412

loop_
_atom_site_label
_atom_site_type_symbol
_atom_type_description
_atom_site_fract_x
_atom_site_fract_y
_atom_site_fract_z
_atom_type_partial_charge
C1    C     C_R   0.260717 0.500084 0.508825 1.037139
C2    C     C_R   0.126953 0.499721 0.519397 -0.188204
C3    C     C_R   0.573793 0.073061 0.558493 0.184404
C4    C     C_R   0.424786 0.926472 0.442069 0.175432
C5    C     C_R   0.425563 0.069367 0.441680 0.170019
C6    C     C_R   0.574710 0.930595 0.557582 0.162158
C7    C     C_R   0.498977 0.498696 0.327346 0.937069
C8    C     C_R   0.503662 0.501948 0.672928 0.946797
C9    C     C_R   0.617501 0.538494 0.816467 -0.068737
C10   C     C_R   0.383350 0.503124 0.184196 -0.080360
C11   C     C_R   0.505168 0.509866 0.769559 -0.182853
C12   C     C_R   0.739594 0.499528 0.491774 0.987060
C13   C     C_R   0.497684 0.497287 0.231279 -0.198498
C14   C     C_R   0.390831 0.506267 0.813881 -0.062751
C15   C     C_R   0.611482 0.503328 0.187149 -0.034008
C16   C     C_R   0.387666 0.535683 0.906014 -0.022999
C17   C     C_R   0.611421 0.504880 0.093962 -0.017657
C18   C     C_R   0.500261 0.536271 0.954367 0.045855
C19   C     C_R   0.498524 0.526591 0.047500 0.036987
C20   C     C_R   0.615121 0.546064 0.910322 -0.033233
C21   C     C_R   0.384392 0.532730 0.092832 0.005273
C22   C     C_R   0.277135 0.569071 0.951618 -0.093573
C23   C     C_R   0.276921 0.573613 0.045281 0.136549
C24   C     C_R   0.722273 0.494387 0.045160 -0.121796
C25   C     C_2   0.737035 0.550007 0.768114 0.926219
C26   C     C_2   0.265995 0.461491 0.227138 0.970132
C27   C     C_2   0.277323 0.458191 0.766029 0.899471
C28   C     C_2   0.729678 0.522068 0.237866 0.895794
C29   C     C_2   0.166118 0.614355 0.902445 0.992205
C30   C     C_2   0.824769 0.402579 0.069712 0.962566
C31   C     C_R   0.724782 0.552909 0.962384 0.167552
C32   C     C_R   0.062247 0.377459 0.517012 0.112873
C33   C     C_R   0.939200 0.619939 0.487849 0.129400
C34   C     C_R   0.938471 0.375859 0.490524 0.142606
C35   C     C_R   0.062098 0.621132 0.515853 0.164462
C36   C     C_R   0.873971 0.498120 0.484787 -0.292323
H1    H     H_    0.851961 0.477471 0.674435 0.343507
H2    H     H_    0.107204 0.354461 0.216102 0.365563
H3    H     H_    0.133221 0.329116 0.763630 0.374811
H4    H     H_    0.863582 0.436566 0.310435 0.348484
H5    H     H_    0.995508 0.567554 0.856680 0.385210
H6    H     H_    0.003029 0.347547 0.052751 0.388131
I1    I     I_    0.128966 0.679961 0.110765 -0.093535
I2    I     I_    0.695994 0.832134 0.646623 -0.112001
I3    I     I_    0.810316 0.744190 0.975462 -0.052176
I4    I     I_    0.136519 0.199964 0.575390 -0.168553
I5    I     I_    0.870771 0.795178 0.424218 -0.103479
I6    I     I_    0.866822 0.190575 0.435215 -0.114949
I7    I     I_    0.132313 0.801333 0.578266 -0.077504
I8    I     I_    0.689598 0.174029 0.654483 -0.111520
I9    I     I_    0.302787 0.822342 0.350588 -0.116347
I10   I     I_    0.307577 0.167738 0.348758 -0.138144
N1    N     N_R   0.500000 0.857200 0.500000 -0.161934
N2    N     N_R   0.500000 0.142800 0.500000 -0.159870
O1    O     O_R   0.316770 0.614620 0.499990 -0.583922
O2    O     O_R   0.766718 0.460199 0.699691 -0.789980
O3    O     O_2   0.240499 0.501659 0.302139 -0.633193
O4    O     O_R   0.184202 0.375198 0.180774 -0.762067
O5    O     O_2   0.236103 0.519300 0.702762 -0.644779
O6    O     O_R   0.214288 0.346799 0.797120 -0.728939
O7    O     O_2   0.791798 0.622783 0.227692 -0.567690
O8    O     O_R   0.773859 0.420652 0.291660 -0.761850
O9    O     O_2   0.169064 0.718349 0.861389 -0.547761
O10   O     O_R   0.060549 0.533818 0.899546 -0.714831
O11   O     O_2   0.804621 0.307311 0.116995 -0.564869
O12   O     O_R   0.683230 0.385380 0.500010 -0.566268
O13   O     O_R   0.942597 0.419698 0.034296 -0.713347
O14   O     O_R   0.683230 0.614620 0.500010 -0.601994
O15   O     O_R   0.316770 0.385380 0.499990 -0.599075
O16   O     O_R   0.499980 0.614680 0.367850 -0.599310
O17   O     O_R   0.500020 0.385320 0.632150 -0.587415
O18   O     O_R   0.500020 0.614680 0.632150 -0.598293
O19   O     O_R   0.499980 0.385320 0.367850 -0.580406
O20   O     O_2   0.808669 0.641137 0.786440 -0.587152
Zn1   Zn    Zn3+2 0.500000 0.653120 0.500000 1.067707
Zn2   Zn    Zn3+2 0.500000 0.346880 0.500000 1.078713

loop_
_geom_bond_atom_site_label_1
_geom_bond_atom_site_label_2
_ccdc_geom_bond_type
C2    C35   A    
C29   O9    D    
C22   C29   S    
C4    N1    A    
C25   O2    S    
C3    C6    A    
C7    O16   A    
C9    C25   S    
C7    O19   A    
O14   Zn1   S    
C12   O14   A    
C19   C21   A    
C25   O20   D    
C27   O6    S    
O17   Zn2   S    
C3    N2    A    
C33   C36   A    
H4    O8    S    
O15   Zn2   S    
C2    C32   A    
C1    C2    S    
C17   C19   A    
H2    O4    S    
H1    O2    S    
C35   I7    S    
C5    I10   S    
C14   C27   S    
C12   C36   S    
C34   C36   A    
C30   O13   S    
O1    Zn1   S    
C28   O7    D    
C10   C26   S    
C29   O10   S    
C6    I2    S    
N1    Zn1   S    
O18   Zn1   S    
C3    I8    S    
C10   C21   A    
C8    O18   A    
C17   C24   A    
C4    I9    S    
C5    N2    A    
C11   C14   A    
C18   C19   A    
C12   O12   A    
C1    O15   A    
C32   C34   A    
C26   O4    S    
C9    C20   A    
O12   Zn2   S    
C9    C11   A    
N2    Zn2   S    
C21   C23   A    
H6    O13   S    
C33   I5    S    
O19   Zn2   S    
C14   C16   A    
C34   I6    S    
C6    N1    A    
C15   C17   A    
C8    O17   A    
C16   C22   A    
C23   I1    S    
C32   I4    S    
C4    C5    A    
C10   C13   A    
C13   C15   A    
C1    O1    A    
C24   C31   A    
C27   O5    D    
C15   C28   S    
C8    C11   S    
H3    O6    S    
C33   C35   A    
C18   C20   A    
C26   O3    D    
C24   C30   S    
C30   O11   D    
C7    C13   S    
C16   C18   A    
C31   I3    S    
O16   Zn1   S    
C22   C23   A    
H5    O10   S    
C20   C31   A    
C28   O8    S    
