data_mof_unit_45867.cif
_audit_creation_date              2012-12-11T17:45:31-0500
_audit_creation_method            fapswitch 2.2
_symmetry_space_group_name_H-M    P1
_symmetry_Int_Tables_number       1
_space_group_crystal_system       triclinic
_cell_length_a                    14.966509
_cell_length_b                    14.854105
_cell_length_c                    15.063972
_cell_angle_alpha                 110.294032
_cell_angle_beta                  108.788617
_cell_angle_gamma                 108.79863
_cell_volume                      2594.36249977

loop_
_atom_site_label
_atom_site_type_symbol
_atom_type_description
_atom_site_fract_x
_atom_site_fract_y
_atom_site_fract_z
_atom_type_partial_charge
C1    C     C_R   0.977381 0.252260 0.065362 -0.116212
C2    C     C_R   0.321598 0.786010 0.324367 0.045768
C3    C     C_R   0.299299 0.500164 0.929694 0.009900
C4    C     C_R   0.938667 0.502880 0.302958 0.062479
C5    C     C_R   0.686741 0.408326 0.935125 -0.126896
C6    C     C_R   0.022269 0.593538 0.782453 -0.109476
C7    C     C_R   0.792097 0.195329 0.700426 -0.125692
C8    C     C_R   0.000122 0.803562 0.096142 -0.137974
C9    C     C_R   0.090797 0.804944 0.005052 -0.150473
C10   C     C_R   0.705208 0.195806 0.795603 -0.139482
C11   C     C_R   0.776995 0.592868 0.027232 -0.146272
C12   C     C_R   0.314061 0.758070 0.223257 -0.140828
C13   C     C_R   0.941215 0.409970 0.686029 -0.135445
C14   C     C_R   0.675463 0.500801 0.951991 0.021176
C15   C     C_R   0.958374 0.504739 0.679328 0.042025
C16   C     C_R   0.702544 0.132681 0.702430 0.058830
C17   C     C_R   0.058816 0.868403 0.066899 0.060192
C18   C     C_R   0.616658 0.255867 0.094450 -0.143713
C19   C     C_R   0.690410 0.345827 0.198828 -0.163050
C20   C     C_R   0.744370 0.330079 0.282957 0.121024
C21   C     C_R   0.715631 0.221988 0.262523 -0.158837
C22   C     C_R   0.637867 0.132049 0.158927 -0.106221
C23   C     C_R   0.208657 0.408837 0.901918 -0.159519
C24   C     C_R   0.589716 0.149162 0.074579 -0.096153
C25   C     C_R   0.848361 0.429560 0.484753 -0.246044
C26   C     C_R   0.940565 0.514087 0.583611 0.073151
C27   C     C_R   0.019716 0.602380 0.588231 0.016639
C28   C     C_R   0.005652 0.601706 0.493843 -0.244292
C29   C     C_R   0.921671 0.510797 0.393984 0.063405
C30   C     C_R   0.838030 0.425638 0.387922 0.026120
C31   C     C_R   0.148690 0.798752 0.735609 -0.183261
C32   C     C_R   0.245745 0.878530 0.831768 -0.127076
C33   C     C_R   0.321300 0.849672 0.877143 -0.118411
C34   C     C_R   0.994816 0.592760 0.297940 -0.160376
C35   C     C_R   0.301107 0.741524 0.825592 -0.113535
C36   C     C_R   0.204311 0.661157 0.729599 -0.121956
C37   C     C_R   0.126131 0.688779 0.685536 0.109027
C38   C     C_R   0.186161 0.003391 0.398585 -0.118915
C39   C     C_R   0.279824 0.994944 0.417019 -0.111420
C40   C     C_R   0.320029 0.963752 0.492297 0.112816
C41   C     C_R   0.267435 0.944378 0.551252 -0.198495
C42   C     C_R   0.172713 0.951297 0.531202 -0.123243
C43   C     C_R   0.132095 0.980948 0.455076 -0.108842
C44   C     C_R   0.509942 0.027063 0.600952 -0.232995
C45   C     C_R   0.298742 0.591347 0.994609 -0.140802
C46   C     C_R   0.608044 0.030660 0.614460 0.059789
C47   C     C_R   0.611064 0.947033 0.536435 0.016252
C48   C     C_R   0.514411 0.864508 0.442285 -0.242885
C49   C     C_R   0.417930 0.866227 0.426688 0.068860
C50   C     C_R   0.415545 0.948317 0.507166 0.017093
C51   C     C_R   0.743448 0.927046 0.474604 -0.183364
C52   C     C_R   0.825549 0.899787 0.480825 -0.116668
C53   C     C_R   0.873105 0.880957 0.563965 -0.092336
C54   C     C_R   0.840818 0.892401 0.642760 -0.112572
C55   C     C_R   0.760415 0.921976 0.638256 -0.132414
C56   C     C_R   0.910687 0.409914 0.211816 -0.137923
C57   C     C_R   0.709718 0.937474 0.552932 0.124834
C58   C     C_3   0.472154 0.392690 0.834539 0.061561
C59   C     C_3   0.367938 0.396368 0.826000 -0.487005
C60   C     C_3   0.566447 0.505460 0.039487 -0.450113
C61   C     C_3   0.572168 0.602504 0.932812 -0.416201
C62   C     C_3   0.573224 0.500141 0.937370 0.300674
C63   C     C_3   0.396460 0.500375 0.926746 0.380603
C64   C     C_3   0.462386 0.504182 0.032370 -0.390746
C65   C     C_3   0.466300 0.601238 0.923487 -0.422200
C66   C     C_R   0.157527 0.069955 0.798045 -0.120133
C67   C     C_R   0.218999 0.747029 0.311910 -0.106128
C68   C     C_R   0.126144 0.069078 0.875445 -0.213224
C69   C     C_R   0.200702 0.139863 0.986573 0.042661
C70   C     C_R   0.308904 0.210345 0.020005 0.202260
C71   C     C_R   0.339995 0.206950 0.940834 -0.237830
C72   C     C_R   0.264853 0.137171 0.830617 -0.152271
C73   C     C_R   0.168372 0.041031 0.080099 -0.227973
C74   C     C_R   0.093990 0.986169 0.105676 0.041111
C75   C     C_R   0.047360 0.042990 0.154650 0.000586
C76   C     C_R   0.072242 0.146943 0.167750 -0.222128
C77   C     C_R   0.107886 0.175581 0.101426 0.057663
C78   C     C_R   0.072642 0.258065 0.977850 -0.142835
C79   C     C_R   0.165806 0.127114 0.064454 0.084827
C80   C     C_R   0.850009 0.921334 0.071201 -0.132540
C81   C     C_R   0.755623 0.891120 0.079255 -0.152059
C82   C     C_R   0.761777 0.927465 0.180995 -0.098966
C83   C     C_R   0.862458 0.997678 0.274952 -0.115738
C84   C     C_R   0.956912 0.031621 0.267165 -0.186446
C85   C     C_R   0.951667 0.991588 0.165224 0.114991
C86   C     C_R   0.058459 0.230357 0.053083 0.047601
H1    H     H_    0.943500 0.239731 0.115904 0.097272
H2    H     H_    0.046030 0.678439 0.807224 0.118998
H3    H     H_    0.818996 0.168171 0.642664 0.099560
H4    H     H_    0.980054 0.830679 0.159661 0.111017
H5    H     H_    0.149749 0.832633 0.980601 0.104680
H6    H     H_    0.653988 0.168607 0.828179 0.091403
H7    H     H_    0.797444 0.678324 0.064195 0.108769
H8    H     H_    0.895523 0.325681 0.620236 0.096864
H9    H     H_    0.532817 0.080079 0.993399 0.101267
H10   H     H_    0.582739 0.269071 0.028318 0.095807
H11   H     H_    0.710777 0.428026 0.212284 0.116556
H12   H     H_    0.379246 0.778347 0.204556 0.095600
H13   H     H_    0.756408 0.207238 0.325301 0.107590
H14   H     H_    0.617445 0.049245 0.143264 0.102935
H15   H     H_    0.787013 0.364332 0.482988 0.129275
H16   H     H_    0.070508 0.666824 0.499113 0.131111
H17   H     H_    0.089713 0.821607 0.702196 0.113731
H18   H     H_    0.262074 0.962393 0.872393 0.143925
H19   H     H_    0.395336 0.910880 0.952581 0.098514
H20   H     H_    0.360107 0.720151 0.861139 0.095851
H21   H     H_    0.188736 0.577053 0.691449 0.108114
H22   H     H_    0.058623 0.986029 0.439746 0.103224
H23   H     H_    0.178981 0.323853 0.845285 0.109040
H24   H     H_    0.155495 0.026268 0.339616 0.115350
H25   H     H_    0.319986 0.010754 0.371480 0.112870
H26   H     H_    0.297597 0.920178 0.609591 0.127417
H27   H     H_    0.130069 0.932093 0.573525 0.101593
H28   H     H_    0.507146 0.092362 0.659311 0.126215
H29   H     H_    0.514120 0.798821 0.380821 0.132421
H30   H     H_    0.704235 0.937204 0.407349 0.104498
H31   H     H_    0.850229 0.890200 0.419545 0.105220
H32   H     H_    0.933805 0.855906 0.566355 0.088572
H33   H     H_    0.875681 0.875061 0.705461 0.100591
H34   H     H_    0.015778 0.677100 0.347416 0.103455
H35   H     H_    0.733788 0.927087 0.697865 0.107584
H36   H     H_    0.468641 0.321753 0.845893 0.100873
H37   H     H_    0.323272 0.396571 0.751052 0.164195
H38   H     H_    0.313982 0.320543 0.819561 0.160898
H39   H     H_    0.569674 0.435192 0.048318 0.148808
H40   H     H_    0.413746 0.432026 0.035377 0.182618
H41   H     H_    0.639761 0.677756 0.008985 0.169314
H42   H     H_    0.583510 0.607264 0.864916 0.150176
H43   H     H_    0.421003 0.596438 0.845791 0.152589
H44   H     H_    0.353124 0.676639 0.025599 0.083900
H45   H     H_    0.487194 0.679912 0.991014 0.147114
H46   H     H_    0.636595 0.581762 0.114288 0.175225
H47   H     H_    0.482954 0.579081 0.104670 0.161666
H48   H     H_    0.289824 0.135651 0.770431 0.132186
H49   H     H_    0.099110 0.017033 0.712982 0.113455
H50   H     H_    0.043647 0.013583 0.849539 0.129885
H51   H     H_    0.422069 0.259607 0.964313 0.110093
H52   H     H_    0.213545 0.005773 0.052166 0.122050
H53   H     H_    0.039026 0.190894 0.207948 0.129297
H54   H     H_    0.859832 0.325140 0.185400 0.120109
H55   H     H_    0.843781 0.894640 0.991742 0.111847
H56   H     H_    0.677561 0.841139 0.006412 0.112461
H57   H     H_    0.688486 0.903369 0.186943 0.090033
H58   H     H_    0.867118 0.028892 0.353689 0.102062
H59   H     H_    0.033478 0.092278 0.340217 0.109258
H60   H     H_    0.195900 0.752055 0.373495 0.115329
H61   H     H_    0.131672 0.259342 0.952356 0.128661
H62   H     H_    0.624636 0.323101 0.886832 0.088998
N1    N     N_R   0.947080 0.293830 0.002870 -0.042314
N2    N     N_R   0.054040 0.556820 0.847890 -0.041070
N3    N     N_R   0.848290 0.293830 0.791110 -0.039812
N4    N     N_R   0.995680 0.706170 0.053910 -0.038785
N5    N     N_R   0.052920 0.706170 0.997130 -0.040947
N6    N     N_R   0.791050 0.293830 0.847890 -0.036437
N7    N     N_R   0.846330 0.556820 0.053910 -0.038482
N8    N     N_R   0.997640 0.443180 0.791110 -0.040561
N9    N     N_R   0.208950 0.706170 0.152110 -0.039935
N10   N     N_R   0.153670 0.443180 0.946090 -0.038791
N11   N     N_R   0.002360 0.556820 0.208890 -0.039098
N12   N     N_R   0.210070 0.556820 0.002870 -0.032685
N13   N     N_R   0.945960 0.443180 0.152110 -0.040906
N14   N     N_R   0.151710 0.706170 0.208890 -0.042680
N15   N     N_R   0.004320 0.293830 0.946090 -0.041329
N16   N     N_R   0.789930 0.443180 0.997130 -0.038102
Ni1   Ni    Ni4+2 0.869690 0.369690 0.000000 0.214817
Ni2   Ni    Ni4+2 0.130310 0.630310 0.000000 0.215681
Ni3   Ni    Ni4+2 0.000970 0.369690 0.869780 0.214757
Ni4   Ni    Ni4+2 0.999030 0.630310 0.130220 0.215013
N17   N     N_2   0.478678 0.376097 0.736096 -0.106750
H63   H     H_    0.476232 0.434619 0.715002 0.179888
C87   C     C_3   0.410960 0.264961 0.644623 -0.917017
H64   H     H_    0.431203 0.259068 0.578819 0.254917
H65   H     H_    0.324253 0.242295 0.613294 0.253833
H66   H     H_    0.424808 0.205927 0.668565 0.248586
N18   N     N_2   0.387236 0.280753 0.132093 -0.113550
H67   H     H_    0.466305 0.303455 0.149783 0.180068
C88   C     C_3   0.373703 0.370552 0.192743 -0.933611
H68   H     H_    0.445925 0.450596 0.226986 0.243156
H69   H     H_    0.364828 0.362975 0.260545 0.265244
H70   H     H_    0.301645 0.371175 0.141430 0.251602

loop_
_geom_bond_atom_site_label_1
_geom_bond_atom_site_label_2
_ccdc_geom_bond_type
C58   C62   S    
C66   C68   A    
C87   H64   S    
C55   H35   S    
C1    H1    S    
N5    Ni2   S    
C18   H10   S    
C73   C74   A    
C3    C23   A    
C35   C36   A    
C2    C12   A    
C60   H46   S    
C63   C65   S    
C81   C82   A    
C19   H11   S    
C10   C16   A    
N18   C88   S    
C20   C30   S    
C53   C54   A    
C87   H65   S    
C26   C27   A    
C80   C85   A    
C83   C84   A    
C18   C24   A    
C28   C29   A    
C8    N4    A    
C83   H58   S    
C56   H54   S    
C11   C14   A    
C40   C50   S    
C9    N5    A    
C73   H52   S    
C14   C62   S    
C23   N10   A    
C1    C86   A    
C6    H2    S    
N11   Ni4   S    
C60   C62   S    
C18   C19   A    
C41   C42   A    
N3    N6    A    
C7    H3    S    
C65   H45   S    
C6    C15   A    
C46   C47   A    
N10   N12   A    
C66   C72   A    
N18   H67   S    
C68   C69   A    
C88   H69   S    
C41   H26   S    
C32   H18   S    
N6    Ni1   S    
C1    N1    A    
C70   C71   A    
C51   C57   A    
N12   Ni2   S    
C12   N9    A    
C38   H24   S    
C70   N18   S    
C12   H12   S    
C4    C29   S    
C11   N7    A    
C34   N11   A    
C78   C86   A    
C39   H25   S    
C10   H6    S    
C45   H44   S    
C5    H62   S    
N2    N8    A    
C21   C22   A    
C4    C56   A    
C36   H21   S    
C34   H34   S    
N17   C87   S    
C9    H5    S    
C61   C62   S    
C45   N12   A    
N4    Ni4   S    
C44   C46   A    
N10   Ni3   S    
C77   C79   A    
C59   H37   S    
C23   H23   S    
C87   H66   S    
C4    C34   A    
C58   H36   S    
C22   H14   S    
C74   C75   A    
C51   C52   A    
C5    N16   A    
C68   H50   S    
C58   N17   S    
N1    Ni1   S    
C84   C85   A    
C71   H51   S    
C2    C67   A    
C24   H9    S    
C16   C46   S    
C39   C40   A    
C11   H7    S    
C21   H13   S    
C53   H32   S    
C82   H57   S    
C15   C26   S    
N8    Ni3   S    
C58   C59   S    
C84   H59   S    
C56   N13   A    
C3    C45   A    
C31   C37   A    
C31   H17   S    
N15   Ni3   S    
C75   C76   A    
C13   N8    A    
C29   C30   A    
N16   Ni1   S    
C2    C49   S    
C28   H16   S    
C47   C57   S    
C42   H27   S    
C72   H48   S    
C47   C48   A    
N7    Ni4   S    
C88   H70   S    
C67   H60   S    
N11   N13   A    
C73   C79   A    
C33   H19   S    
C61   H41   S    
N17   H63   S    
C76   C77   A    
C5    C14   A    
C78   H61   S    
C48   H29   S    
C7    N3    A    
C9    C17   A    
C48   C49   A    
C77   C86   S    
C49   C50   A    
C64   H40   S    
C55   C57   A    
C17   C74   S    
C59   H38   S    
C22   C24   A    
C69   C79   S    
C8    H4    S    
C42   C43   A    
C66   H49   S    
C52   C53   A    
C75   C85   S    
C64   H47   S    
C76   H53   S    
C44   C50   A    
C25   C30   A    
C54   C55   A    
C60   H39   S    
C31   C32   A    
C7    C16   A    
C51   H30   S    
C80   C81   A    
N9    Ni2   S    
C65   H43   S    
N1    N15   A    
C3    C63   S    
N7    N16   A    
C59   C63   S    
C8    C17   A    
C13   H8    S    
C60   C64   S    
C32   C33   A    
C19   C20   A    
C13   C15   A    
C25   C26   A    
C38   C43   A    
C35   H20   S    
C81   H56   S    
C52   H31   S    
C10   N6    A    
C67   N14   A    
C25   H15   S    
C38   C39   A    
C27   C37   S    
N3    Ni3   S    
C33   C35   A    
C61   H42   S    
C43   H22   S    
C69   C70   A    
N14   Ni4   S    
C44   H28   S    
C63   C64   S    
C6    N2    A    
C61   C65   S    
C78   N15   A    
C71   C72   A    
C20   C21   A    
C36   C37   A    
C88   H68   S    
C27   C28   A    
C40   C41   A    
N4    N5    A    
C82   C83   A    
C54   H33   S    
N9    N14   A    
C80   H55   S    
N13   Ni1   S    
N2    Ni2   S    
