data_mof_unit_12090.cif
_audit_creation_date              2012-12-11T18:11:27-0500
_audit_creation_method            fapswitch 2.2
_symmetry_space_group_name_H-M    P1
_symmetry_Int_Tables_number       1
_space_group_crystal_system       triclinic
_cell_length_a                    8.478275
_cell_length_b                    13.433213
_cell_length_c                    18.76611
_cell_angle_alpha                 101.637782
_cell_angle_beta                  91.775538
_cell_angle_gamma                 99.185316
_cell_volume                      2062.08415933

loop_
_atom_site_label
_atom_site_type_symbol
_atom_type_description
_atom_site_fract_x
_atom_site_fract_y
_atom_site_fract_z
_atom_type_partial_charge
Ba1   Ba    Ba6+2 0.852780 0.548340 0.465070 1.642542
Ba2   Ba    Ba6+2 0.337060 0.451750 0.534940 1.637120
C1    C     C_3   0.812330 0.823126 0.185796 -0.344805
C2    C     C_R   0.877657 0.433194 0.100019 -0.084414
C3    C     C_R   0.753244 0.466380 0.960098 -0.111197
C4    C     C_3   0.175857 0.741811 0.266908 0.315847
C5    C     C_R   0.916808 0.493199 0.983389 0.017932
C6    C     C_R   0.702185 0.459269 0.887987 -0.103822
C7    C     C_R   0.811642 0.479009 0.835910 -0.039728
C8    C     C_R   0.972061 0.522146 0.859429 -0.010160
C9    C     C_R   0.025268 0.528521 0.933712 0.024187
C10   C     C_R   0.765993 0.453752 0.760986 -0.019717
C11   C     C_R   0.879548 0.477514 0.710268 -0.241140
C12   C     C_3   0.741315 0.772787 0.247034 0.727917
C13   C     C_R   0.030254 0.539531 0.732580 0.094129
C14   C     C_R   0.078912 0.558275 0.808959 -0.043924
C15   C     C_R   0.138601 0.517301 0.075905 0.022513
C16   C     C_3   0.203928 0.769357 0.192699 -0.387761
C17   C     C_R   0.196823 0.509634 0.147020 -0.008792
C18   C     C_R   0.093359 0.464670 0.195137 -0.063311
C19   C     C_R   0.936915 0.421361 0.167592 -0.030080
C20   C     C_R   0.230959 0.611231 0.837302 -0.032265
C21   C     C_R   0.285373 0.613332 0.908817 -0.102453
C22   C     C_R   0.187434 0.566349 0.956880 0.005169
C23   C     C_3   0.524149 0.262424 0.314228 0.326333
C24   C     C_R   0.245417 0.557285 0.027221 0.012474
C25   C     C_R   0.409597 0.579944 0.048615 -0.126973
C26   C     C_R   0.360392 0.544061 0.168835 -0.025421
C27   C     C_R   0.465343 0.572092 0.117081 -0.080337
C28   C     C_3   0.239458 0.806269 0.662881 0.326481
C29   C     C_R   0.414514 0.548212 0.241320 0.061796
C30   C     C_R   0.311575 0.507395 0.289023 -0.257285
C31   C     C_R   0.153159 0.461460 0.267461 0.021836
C32   C     C_R   0.766000 0.172721 0.528113 0.195700
C33   C     C_R   0.436726 0.811494 0.468512 -0.307134
C34   C     C_3   0.520794 0.216215 0.232854 0.240319
C35   C     C_R   0.398009 0.980017 0.447350 0.338384
C36   C     C_R   0.338875 0.874195 0.443395 -0.053647
C37   C     C_R   0.582469 0.850973 0.509511 0.073551
C38   C     C_R   0.641464 0.961678 0.519225 -0.074282
C39   C     C_R   0.548483 0.026128 0.486854 -0.112162
C40   C     C_3   0.199941 0.909726 0.698655 0.322271
C41   C     C_R   0.612885 0.134462 0.492963 0.044703
C42   C     C_R   0.856364 0.115815 0.563213 -0.081170
C43   C     C_R   0.794064 0.008911 0.556262 -0.190403
C44   C     C_3   0.074355 0.201099 0.271378 0.325751
C45   C     C_3   0.003167 0.238505 0.742301 0.488403
C46   C     C_3   0.109360 0.223887 0.195964 -0.397346
C47   C     C_3   0.766890 0.745024 0.698487 0.358116
C48   C     C_3   0.786652 0.811038 0.778807 -0.132746
C49   C     C_3   0.991689 0.996346 0.710039 0.126618
C50   C     C_3   0.990484 0.088464 0.258239 -0.344888
C51   C     C_3   0.648971 0.650186 0.701934 -0.339089
C52   C     C_3   0.907286 0.781412 0.829455 -0.467426
C53   C     C_3   0.572669 0.882989 0.298025 0.048777
C54   C     C_3   0.504778 0.250027 0.117577 0.139852
C55   C     C_3   0.917379 0.253824 0.871681 -0.466851
C56   C     C_3   0.060180 0.269892 0.824346 0.391462
C57   C     C_3   0.267208 0.261882 0.906507 0.196369
C58   C     C_3   0.597907 0.048083 0.769167 -0.550376
C59   C     C_3   0.839074 0.429550 0.632455 -0.232086
C60   C     C_3   0.175096 0.040892 0.403953 0.302423
C61   C     C_3   0.910853 0.247951 0.449995 0.322681
C62   C     C_3   0.413577 0.813751 0.671250 -0.353545
C63   C     C_3   0.182712 0.778795 0.582591 -0.186546
C64   C     C_3   0.538967 0.210143 0.733137 0.397125
C65   C     C_3   0.505267 0.136590 0.785009 -0.184744
C66   C     C_R   0.974910 0.483589 0.053621 -0.000825
H1    H     H_    0.813343 0.807736 0.299302 0.049651
H2    H     H_    0.670844 0.806450 0.805215 0.054484
H3    H     H_    0.817932 0.893817 0.781410 0.141358
H4    H     H_    0.745251 0.882938 0.173806 0.085448
H5    H     H_    0.428098 0.309766 0.325563 -0.035035
H6    H     H_    0.640797 0.311981 0.330547 0.082323
H7    H     H_    0.415692 0.152928 0.218508 0.022924
H8    H     H_    0.632431 0.183289 0.221862 0.026988
H9    H     H_    0.808849 0.764850 0.134225 0.107171
H10   H     H_    0.307212 0.737405 0.168661 0.133509
H11   H     H_    0.965448 0.305830 0.725699 -0.099576
H12   H     H_    0.245267 0.929949 0.757067 0.032137
H13   H     H_    0.898706 0.175833 0.733249 -0.173061
H14   H     H_    0.112799 0.353271 0.834726 0.017370
H15   H     H_    0.669924 0.234585 0.733291 -0.101214
H16   H     H_    0.491618 0.170443 0.676906 0.040903
H17   H     H_    0.375471 0.105286 0.780210 0.159132
H18   H     H_    0.093993 0.666839 0.259106 0.071319
H19   H     H_    0.539406 0.179239 0.841823 0.108388
H20   H     H_    0.576085 0.434363 0.873453 0.098086
H21   H     H_    0.859071 0.374406 0.196604 0.145015
H22   H     H_    0.312384 0.649127 0.804272 0.106776
H23   H     H_    0.259000 0.969909 0.670105 -0.034845
H24   H     H_    0.592855 0.586553 0.127389 0.117014
H25   H     H_    0.358813 0.506796 0.343178 0.062478
H26   H     H_    0.661529 0.448323 0.996219 0.057495
H27   H     H_    0.755822 0.397331 0.083871 0.063146
H28   H     H_    0.405352 0.653829 0.925339 0.063368
H29   H     H_    0.292401 0.734191 0.292173 0.004405
H30   H     H_    0.499536 0.601163 0.012528 0.074352
H31   H     H_    0.868539 0.960624 0.574879 0.135702
H32   H     H_    0.395205 0.729153 0.457652 0.070429
H33   H     H_    0.097176 0.736971 0.154512 0.102385
H34   H     H_    0.187021 0.209796 0.304915 0.027122
H35   H     H_    0.230520 0.854322 0.198019 0.128191
H36   H     H_    0.040336 0.034934 0.668623 0.078681
H37   H     H_    0.032110 0.037726 0.766645 0.094111
H38   H     H_    0.861132 0.989573 0.701632 0.072768
H39   H     H_    0.893544 0.072336 0.214121 0.103239
H40   H     H_    0.078261 0.036042 0.242506 0.080364
H41   H     H_    0.932186 0.071176 0.307282 0.088290
H42   H     H_    0.699398 0.613369 0.741409 0.034846
H43   H     H_    0.542354 0.672708 0.727778 0.131318
H44   H     H_    0.620837 0.594907 0.649709 0.147147
H45   H     H_    0.998928 0.234235 0.167332 0.101797
H46   H     H_    0.871122 0.700928 0.835357 0.121833
H47   H     H_    0.028902 0.792547 0.809839 0.186058
H48   H     H_    0.911355 0.831779 0.884465 0.121097
H49   H     H_    0.649196 0.948284 0.281087 0.039403
H50   H     H_    0.608772 0.881792 0.355097 0.044459
H51   H     H_    0.448742 0.898446 0.295724 0.131467
H52   H     H_    0.403975 0.184449 0.100757 0.017106
H53   H     H_    0.620143 0.224770 0.102385 0.022433
H54   H     H_    0.484757 0.309768 0.086792 0.059299
H55   H     H_    0.890912 0.172313 0.877086 0.129743
H56   H     H_    0.154270 0.158372 0.161315 0.088341
H57   H     H_    0.945029 0.300981 0.927376 0.113538
H58   H     H_    0.809763 0.275643 0.848519 0.086433
H59   H     H_    0.192031 0.277684 0.953480 0.011948
H60   H     H_    0.341850 0.334654 0.899620 0.051354
H61   H     H_    0.347578 0.210757 0.921156 0.030219
H62   H     H_    0.723485 0.074268 0.789852 0.138878
H63   H     H_    0.547066 0.987292 0.798042 0.134700
H64   H     H_    0.594463 0.017713 0.709794 0.138900
H65   H     H_    0.764868 0.473579 0.605452 0.124919
H66   H     H_    0.940714 0.421382 0.601152 0.197864
H67   H     H_    0.205637 0.290621 0.200012 0.112877
H68   H     H_    0.786855 0.348363 0.630368 0.094373
H69   H     H_    0.130740 0.033983 0.457505 0.049656
H70   H     H_    0.098289 0.987960 0.359895 0.057381
H71   H     H_    0.155903 0.115508 0.393430 0.034073
H72   H     H_    0.041274 0.275827 0.458292 0.110636
H73   H     H_    0.892185 0.166548 0.418557 -0.142239
H74   H     H_    0.852706 0.293397 0.418150 0.097223
H75   H     H_    0.455643 0.829522 0.729522 0.093036
H76   H     H_    0.437343 0.738039 0.644029 0.132181
H77   H     H_    0.470713 0.874308 0.643695 0.049217
H78   H     H_    0.880106 0.721735 0.679915 0.093883
H79   H     H_    0.250013 0.723014 0.550969 0.030233
H80   H     H_    0.063102 0.736676 0.579459 0.182372
H81   H     H_    0.184379 0.848278 0.559261 0.038180
H82   H     H_    0.937505 0.860912 0.201613 0.085748
O1    O     O_2   0.873090 0.425890 0.325140 -0.451024
O2    O     O_2   0.204787 0.139045 0.569597 -0.505090
O3    O     O_3   0.125420 0.205354 0.699680 -0.561483
O4    O     O_3   0.122420 0.434370 0.414380 -0.514780
O5    O     O_3   0.578370 0.633800 0.536380 -0.514912
O6    O     O_2   0.341510 0.231850 0.465510 -0.467365
O7    O     O_3   0.504771 0.181670 0.351779 -0.644183
O8    O     O_2   0.445992 0.480826 0.753714 -0.472645
O9    O     O_3   0.460001 0.293419 0.757228 -0.558748
O10   O     O_3   0.659500 0.627100 0.368810 -0.472576
O11   O     O_2   0.685857 0.487595 0.255763 -0.444418
O12   O     O_3   0.711353 0.805066 0.651975 -0.626127
O13   O     O_3   0.969550 0.260900 0.309972 -0.651868
O14   O     O_3   0.757170 0.667549 0.229470 -0.621634
O15   O     O_2   0.848200 0.768190 0.534530 -0.463335
O16   O     O_3   0.081160 0.685950 0.404810 -0.473649
O17   O     O_2   0.997005 0.862278 0.440042 -0.504357
O18   O     O_3   0.033092 0.899233 0.695082 -0.650028
O19   O     O_3   0.579510 0.786666 0.251898 -0.707147
O20   O     O_3   0.509945 0.293382 0.192760 -0.651921
O21   O     O_3   0.175777 0.211191 0.841087 -0.628339
O22   O     O_3   0.337169 0.029412 0.396692 -0.649788
O23   O     O_3   0.104760 0.818225 0.310174 -0.620762
O24   O     O_3   0.842422 0.264690 0.517054 -0.714287
O25   O     O_2   0.316610 0.574140 0.674900 -0.476308
O26   O     O_3   0.067290 0.565720 0.585630 -0.536030
O27   O     O_3   0.530210 0.372990 0.631200 -0.475421
O28   O     O_3   0.167893 0.736512 0.702786 -0.655679
O29   O     O_3   0.611340 0.366290 0.463630 -0.483856
O30   O     O_3   0.108550 0.314140 0.595200 -0.437921
P1    P     P_3+3 0.041040 0.394770 0.336330 0.927264
P2    P     P_3+3 0.672880 0.754030 0.556100 0.956137
P3    P     P_3+3 0.133551 0.812714 0.401942 0.927750
P4    P     P_3+3 0.148670 0.605320 0.663680 0.918960
P5    P     P_3+3 0.066314 0.187323 0.606391 0.963101
P6    P     P_3+3 0.625381 0.590395 0.274616 1.012464
P7    P     P_3+3 0.522332 0.230329 0.446249 1.020379
P8    P     P_3+3 0.553109 0.400495 0.726310 0.962978

loop_
_geom_bond_atom_site_label_1
_geom_bond_atom_site_label_2
_ccdc_geom_bond_type
C51   H42   S    
Ba1   O26   S    
C40   H12   S    
Ba2   O5    S    
C28   C62   S    
C62   H77   S    
O13   P1    S    
C54   H52   S    
C61   H72   S    
C46   H67   S    
C56   O21   S    
C17   C18   A    
O10   P6    S    
C58   H64   S    
C35   O22   S    
C3    H26   S    
O5    P2    S    
C59   H65   S    
C25   H30   S    
C53   H51   S    
C5    C9    A    
C44   H34   S    
C24   C25   A    
C48   C52   S    
O27   P8    S    
O15   P2    D    
Ba1   O16   S    
C26   C27   A    
C22   C24   A    
C40   H23   S    
O14   P6    S    
C56   H14   S    
C55   H57   S    
O29   P7    S    
C57   H59   S    
C13   C14   A    
C10   P8    S    
O4    P1    S    
C44   C50   S    
C9    C22   A    
C21   H28   S    
Ba1   Ba2   S    
Ba1   O5    S    
C34   H8    S    
Ba2   O26   S    
C64   H15   S    
O17   P3    D    
C50   H39   S    
C6    C7    A    
C15   C66   A    
C52   H48   S    
Ba2   O6    S    
C21   C22   A    
Ba2   O27   S    
C45   H11   S    
C60   H71   S    
C63   H79   S    
C7    C8    A    
C16   H10   S    
C42   P5    S    
C51   H43   S    
C30   H25   S    
C5    C66   A    
Ba2   O4    S    
C13   P4    S    
C12   O14   S    
C39   C41   A    
C49   O18   S    
Ba2   O30   S    
C12   O19   S    
C57   O21   S    
C58   H63   S    
C64   O9    S    
C40   O18   S    
C59   H66   S    
O1    P1    D    
C26   C29   A    
C61   H73   S    
C38   C43   A    
C4    C16   S    
C44   C46   S    
C65   H17   S    
O16   P3    S    
C28   C63   S    
C4    H29   S    
C33   C36   A    
C32   C42   A    
C58   C65   S    
C43   H31   S    
C58   H62   S    
C37   C38   A    
C3    C5    A    
Ba1   P1    S    
C19   H21   S    
C62   H76   S    
C49   H36   S    
C36   P3    S    
C6    H20   S    
C16   H33   S    
C54   H54   S    
O9    P8    S    
C33   C37   A    
C48   H3    S    
C35   C36   A    
C32   O24   S    
C34   H7    S    
Ba2   O25   S    
C55   H55   S    
C2    H27   S    
C20   H22   S    
C29   C30   A    
C41   P7    S    
C49   H37   S    
C52   H47   S    
C18   C19   A    
C28   O28   S    
Ba2   P4    S    
C60   H70   S    
C63   H80   S    
C17   C26   A    
C50   H40   S    
C47   O12   S    
C1    C12   S    
C18   C31   A    
C51   H44   S    
C38   C39   A    
C4    O23   S    
C44   O13   S    
C11   C13   A    
C31   P1    S    
C12   H1    S    
Ba2   O29   S    
C15   C24   A    
C33   H32   S    
C1    H9    S    
C55   H58   S    
C60   O22   S    
C42   C43   A    
C61   O24   S    
C2    C66   A    
C53   H49   S    
O6    P7    D    
O26   P4    S    
C57   H61   S    
C1    H82   S    
C14   C20   A    
C54   O20   S    
Ba1   O15   S    
C65   H19   S    
Ba1   O10   S    
C32   C41   A    
O7    P7    S    
O2    P5    D    
O8    P8    D    
C46   H56   S    
C3    C6    A    
Ba1   P2    S    
O12   P2    S    
C62   H75   S    
C45   O3    S    
C34   O20   S    
C4    H18   S    
C23   H6    S    
C8    C9    A    
C54   H53   S    
C1    H4    S    
C57   H60   S    
C8    C14   A    
C64   C65   S    
C30   C31   A    
C45   C56   S    
C23   O7    S    
C2    C19   A    
Ba1   O29   S    
C55   C56   S    
C48   H2    S    
O3    P5    S    
C50   H41   S    
C49   H38   S    
C47   C51   S    
C52   H46   S    
C29   P6    S    
C15   C17   A    
C61   H74   S    
C47   H78   S    
Ba1   O1    S    
C23   H5    S    
C16   H35   S    
C45   H13   S    
C60   H69   S    
C35   C39   A    
Ba1   O4    S    
C7    C10   A    
C37   P2    S    
O30   P5    S    
C23   C34   S    
C64   H16   S    
C53   H50   S    
C11   C59   S    
C10   C11   A    
O23   P3    S    
C47   C48   S    
C25   C27   A    
C63   H81   S    
C20   C21   A    
C28   C40   S    
C53   O19   S    
C27   H24   S    
O28   P4    S    
C59   H68   S    
C46   H45   S    
O25   P4    D    
O11   P6    D    
