data_mof_unit_42846.cif
_audit_creation_date              2012-12-10T19:14:03-0500
_audit_creation_method            fapswitch 2.2
_symmetry_space_group_name_H-M    P1
_symmetry_Int_Tables_number       1
_space_group_crystal_system       triclinic
_cell_length_a                    13.044776
_cell_length_b                    15.996405
_cell_length_c                    14.748393
_cell_angle_alpha                 90.020706
_cell_angle_beta                  95.897614
_cell_angle_gamma                 90.001262
_cell_volume                      3061.25076174

loop_
_atom_site_label
_atom_site_type_symbol
_atom_type_description
_atom_site_fract_x
_atom_site_fract_y
_atom_site_fract_z
_atom_type_partial_charge
C1    C     C_R   0.500027 0.340857 0.499969 0.822391
C2    C     C_R   0.499990 0.659153 0.500025 0.793399
C3    C     C_R   0.519092 0.956341 0.420988 0.528695
C4    C     C_R   0.481461 0.043720 0.578965 0.537797
C5    C     C_1   0.500150 0.823234 0.500016 0.261285
C6    C     C_1   0.500224 0.176813 0.499928 0.263772
C7    C     C_1   0.500133 0.251821 0.499939 -0.040492
C8    C     C_1   0.500069 0.748214 0.500035 -0.060799
C9    C     C_R   0.484493 0.573961 0.950655 0.285113
C10   C     C_R   0.511380 0.421442 0.049303 0.297665
C11   C     C_R   0.492997 0.497811 0.902481 -0.318254
C12   C     C_R   0.505353 0.498250 0.097329 -0.305726
C13   C     C_R   0.500436 0.421027 0.951334 0.227706
C14   C     C_R   0.499338 0.574682 0.048166 0.291170
C15   C     C_1   0.497359 0.499015 0.802420 0.500678
C16   C     C_1   0.501987 0.499134 0.197502 0.514591
C17   C     C_R   0.299853 0.498392 0.483443 0.898999
C18   C     C_R   0.700056 0.498841 0.516585 0.920023
C19   C     C_R   0.812875 0.501510 0.525860 -0.349207
C20   C     C_R   0.186824 0.500193 0.474134 -0.380451
C21   C     C_R   0.025238 0.521169 0.378817 0.383199
C22   C     C_R   0.973891 0.530727 0.618735 0.389314
C23   C     C_R   0.132816 0.520089 0.389222 0.537617
C24   C     C_R   0.866351 0.528311 0.608527 0.524994
C25   C     C_R   0.132161 0.488493 0.551121 0.349058
C26   C     C_R   0.867553 0.484114 0.450208 0.390034
C27   C     C_R   0.027191 0.509117 0.543348 -0.251171
C28   C     C_R   0.972248 0.505466 0.455940 -0.271437
C29   C     C_R   0.481441 0.956441 0.578990 0.531539
C30   C     C_R   0.519133 0.043625 0.420970 0.530179
C31   C     C_R   0.500238 0.912747 0.499998 -0.354845
C32   C     C_R   0.500294 0.087310 0.499955 -0.360203
Cu1   Cu    Cu3+1 0.500030 0.500000 0.589220 1.175900
Cu2   Cu    Cu3+1 0.499970 0.500000 0.410780 1.144234
N1    N     N_1   0.500030 0.499980 0.276710 -0.110886
N2    N     N_1   0.499970 0.500020 0.723290 -0.099615
O1    O     O_R   0.500050 0.380310 0.575330 -0.530506
O2    O     O_R   0.499950 0.619690 0.424670 -0.570848
O3    O     O_R   0.500000 0.380310 0.424640 -0.560511
O4    O     O_R   0.500000 0.619690 0.575360 -0.549771
O5    O     O_R   0.349020 0.499990 0.563110 -0.522561
O6    O     O_R   0.650980 0.500010 0.436890 -0.537505
O7    O     O_R   0.348970 0.499990 0.412410 -0.529832
O8    O     O_R   0.651030 0.500010 0.587590 -0.530800
S1    S     S_3+6 0.818932 0.408637 0.367429 0.115766
O9    O     O_2   0.754516 0.450624 0.290233 -0.170686
O10   O     O_2   0.906443 0.362760 0.330776 -0.218889
O11   O     O_3   0.745655 0.338811 0.416660 -0.536546
H1    H     H_    0.720831 0.299582 0.367248 0.407601
S2    S     S_3+6 0.181032 0.419703 0.640841 0.099353
O12   O     O_2   0.245105 0.467594 0.713765 -0.185718
O13   O     O_2   0.094147 0.377316 0.682274 -0.215883
O14   O     O_3   0.255287 0.345647 0.599664 -0.496996
H2    H     H_    0.209831 0.317329 0.551160 0.348070
F1    F     F_    0.814138 0.550880 0.679841 -0.562614
F2    F     F_    0.184447 0.536743 0.315800 -0.562362
S3    S     S_3+6 0.962135 0.562213 0.275788 0.149374
O15   O     O_2   0.945404 0.493650 0.206162 -0.155743
O16   O     O_2   0.860468 0.600594 0.292176 -0.241002
O17   O     O_3   0.036090 0.636634 0.234971 -0.427253
H3    H     H_    0.997847 0.654509 0.176699 0.397370
S4    S     S_3+6 0.036217 0.580203 0.717399 0.151972
O18   O     O_2   0.053565 0.517744 0.793509 -0.159719
O19   O     O_2   0.137496 0.617114 0.697509 -0.229231
O20   O     O_3   0.961201 0.657664 0.750553 -0.431263
H4    H     H_    0.999194 0.680517 0.806738 0.396487
F3    F     F_    0.463160 0.085699 0.655729 -0.523655
F4    F     F_    0.537356 0.914362 0.344215 -0.549547
F5    F     F_    0.463134 0.914564 0.655783 -0.536264
F6    F     F_    0.537455 0.085515 0.344188 -0.546448
S5    S     S_3+6 0.518856 0.670204 0.110923 0.127233
O21   O     O_2   0.563940 0.736996 0.055428 -0.143402
O22   O     O_2   0.417061 0.699311 0.138703 -0.200230
O23   O     O_3   0.600956 0.655197 0.205240 -0.502078
H5    H     H_    0.595051 0.706206 0.242457 0.399888
S6    S     S_3+6 0.491065 0.325359 0.887400 0.141652
O24   O     O_2   0.597427 0.299210 0.868488 -0.153657
O25   O     O_2   0.443286 0.256320 0.937815 -0.151694
O26   O     O_3   0.418758 0.337268 0.787085 -0.461678
H6    H     H_    0.346872 0.339911 0.802924 0.400023
S7    S     S_3+6 0.446999 0.666449 0.887329 0.126756
O27   O     O_2   0.542283 0.710927 0.863876 -0.194351
O28   O     O_2   0.381555 0.644853 0.800564 -0.240026
O29   O     O_3   0.377559 0.730685 0.947483 -0.410327
H7    H     H_    0.368768 0.782428 0.910631 0.410361
S8    S     S_3+6 0.538458 0.327058 0.112964 0.124262
O30   O     O_2   0.590870 0.344351 0.206569 -0.262223
O31   O     O_2   0.438614 0.282581 0.122430 -0.200702
O32   O     O_3   0.616872 0.264321 0.059953 -0.401169
H8    H     H_    0.618428 0.210952 0.094108 0.411254

loop_
_geom_bond_atom_site_label_1
_geom_bond_atom_site_label_2
_ccdc_geom_bond_type
C6    C32   S    
C14   S5    S    
C3    F4    S    
Cu2   O6    S    
S6    O26   S    
Cu1   N2    S    
S7    O27   D    
C23   F2    S    
O14   H2    S    
C24   F1    S    
S6    O25   D    
C18   C19   S    
C18   O6    A    
C16   N1    T    
S8    O31   D    
S3    O16   D    
C20   C25   A    
C17   C20   S    
Cu2   N1    S    
C19   C26   A    
C25   S2    S    
S4    O19   D    
C26   S1    S    
C30   F6    S    
C11   C15   S    
C12   C16   S    
S2    O13   D    
C13   S6    S    
C4    C29   A    
C1    O1    A    
C1    C7    S    
S7    O28   D    
Cu1   Cu2   S    
C29   F5    S    
S1    O10   D    
Cu1   O4    S    
O23   H5    S    
Cu2   O3    S    
S2    O14   S    
S6    O24   D    
S5    O22   D    
S8    O30   D    
S3    O17   S    
S1    O9    D    
C10   C13   A    
Cu1   O1    S    
O17   H3    S    
C3    C30   A    
C9    C14   A    
C17   O7    A    
C21   S3    S    
S4    O18   D    
C18   O8    A    
C22   S4    S    
C2    O2    A    
C20   C23   A    
S2    O12   D    
O29   H7    S    
C3    C31   A    
C9    C11   A    
C4    C32   A    
C10   C12   A    
O11   H1    S    
C21   C28   A    
C12   C14   A    
C22   C27   A    
C21   C23   A    
C22   C24   A    
C5    C8    T    
C15   N2    T    
S7    O29   S    
S1    O11   S    
C10   S8    S    
S4    O20   S    
Cu2   O2    S    
Cu1   O8    S    
C2    C8    S    
Cu2   O7    S    
S8    O32   S    
S5    O23   S    
C6    C7    T    
C25   C27   A    
C26   C28   A    
Cu1   O5    S    
C19   C24   A    
S5    O21   D    
C29   C31   A    
C30   C32   A    
C11   C13   A    
S3    O15   D    
C17   O5    A    
C1    O3    A    
O26   H6    S    
C2    O4    A    
O20   H4    S    
C27   C28   A    
O32   H8    S    
C4    F3    S    
C9    S7    S    
C5    C31   S    
