data_mof_unit_5342.cif
_audit_creation_date              2013-03-05T15:41:27-0500
_audit_creation_method            fapswitch 2.2
_symmetry_space_group_name_H-M    P1
_symmetry_Int_Tables_number       1
_space_group_crystal_system       triclinic
_cell_length_a                    8.24362
_cell_length_b                    14.909883
_cell_length_c                    15.056368
_cell_angle_alpha                 97.258225
_cell_angle_beta                  99.330552
_cell_angle_gamma                 97.847804
_cell_volume                      1788.02208376

loop_
_atom_site_label
_atom_site_type_symbol
_atom_site_description
_atom_site_fract_x
_atom_site_fract_y
_atom_site_fract_z
_atom_type_partial_charge
P1    P     P_3+3 0.004160 0.709210 0.580280 0.478490
O1    O     O_2   0.174040 0.723040 0.553850 -0.361728
O2    O     O_3   0.901550 0.609570 0.550800 -0.399416
O3    O     O_3   0.370320 0.665070 0.388210 -0.385729
O4    O     O_2   0.273454 0.824515 0.437429 -0.439077
O5    O     O_3   0.050318 0.733538 0.699435 -0.561165
O6    O     O_3   0.383006 0.807267 0.281428 -0.500688
H1    H     H_    0.217197 0.688047 0.233531 0.100808
C1    C     C_3   0.309160 0.740500 0.121163 0.059054
H2    H     H_    0.263641 0.673832 0.075598 0.067620
H3    H     H_    0.212711 0.784359 0.107672 0.182415
P2    P     P_3+3 0.305010 0.425580 0.290930 0.466942
P3    P     P_3+3 0.888157 0.610566 0.221474 0.448479
O7    O     O_2   0.134800 0.452800 0.278160 -0.363018
O8    O     O_3   0.937630 0.618610 0.340820 -0.369783
O9    O     O_2   0.000508 0.549649 0.177994 -0.425540
O10   O     O_3   0.264260 0.306030 0.262767 -0.558035
O11   O     O_3   0.936109 0.717117 0.183578 -0.611326
C2    C     C_3   0.942160 0.791624 0.252729 0.786899
H4    H     H_    0.019706 0.782305 0.317201 0.081032
C3    C     C_3   0.021946 0.880483 0.224752 -0.947937
H5    H     H_    0.154141 0.880199 0.221179 0.255524
H6    H     H_    0.955362 0.890197 0.157211 0.285131
C4    C     C_3   0.716921 0.337993 0.261720 0.422806
H7    H     H_    0.605403 0.357448 0.286025 0.092802
H8    H     H_    0.820283 0.396988 0.278283 0.122359
C5    C     C_3   0.675714 0.309770 0.158855 -0.949636
H9    H     H_    0.569652 0.252230 0.140544 0.273689
H10   H     H_    0.641184 0.367744 0.124860 0.220734
H11   H     H_    0.785673 0.287789 0.133681 0.271108
Ba1   Ba    Ba6+2 0.154720 0.543770 0.458160 1.561362
C6    C     C_3   0.078136 0.654612 0.736899 0.296839
H12   H     H_    0.192814 0.633272 0.718784 0.074715
H13   H     H_    0.972655 0.597731 0.712272 0.093067
C7    C     C_3   0.096557 0.676318 0.840289 0.004661
H14   H     H_    0.108066 0.613490 0.871825 0.059263
H15   H     H_    0.982609 0.701258 0.857197 0.183054
C8    C     C_3   0.220809 0.266541 0.336809 0.435290
H16   H     H_    0.107294 0.290316 0.354496 0.094877
H17   H     H_    0.323646 0.283858 0.396709 0.128034
C9    C     C_3   0.185966 0.162893 0.309707 -0.972757
H18   H     H_    0.079862 0.143352 0.251582 0.278668
H19   H     H_    0.154367 0.129068 0.367437 0.220633
H20   H     H_    0.297892 0.138197 0.289574 0.265941
P4    P     P_3+3 0.806120 0.290780 0.419650 0.457364
O12   O     O_2   0.636250 0.276900 0.446120 -0.379073
O13   O     O_3   0.908740 0.390420 0.449120 -0.405668
O14   O     O_3   0.439970 0.334920 0.611710 -0.387242
O15   O     O_3   0.762884 0.263125 0.300873 -0.562273
P5    P     P_3+3 0.915921 0.381354 0.776727 0.438742
O16   O     O_3   0.402050 0.547860 0.609740 -0.386236
O17   O     O_3   0.872650 0.381380 0.659100 -0.390077
O18   O     O_2   0.798418 0.438940 0.820139 -0.391246
O19   O     O_3   0.856405 0.270436 0.799310 -0.518449
Ba2   Ba    Ba6+2 0.655440 0.456220 0.541760 1.549377
P6    P     P_3+3 0.410697 0.783744 0.394298 0.481175
C10   C     C_3   0.333877 0.724239 0.220504 0.367292
H21   H     H_    0.426391 0.677847 0.228954 0.100261
O20   O     O_3   0.408230 0.452130 0.390190 -0.406035
C11   C     C_3   0.590858 0.737845 0.684811 0.301810
H22   H     H_    0.706443 0.714163 0.669200 0.065449
H23   H     H_    0.492157 0.721985 0.622816 0.062601
C12   C     C_3   0.625917 0.841653 0.713380 0.035623
H24   H     H_    0.659079 0.876265 0.656020 0.024243
H25   H     H_    0.511519 0.865487 0.730955 0.182807
P7    P     P_3+3 0.500595 0.577362 0.723709 0.441108
O21   O     O_2   0.675480 0.547140 0.721810 -0.367776
O22   O     O_3   0.537987 0.696382 0.755976 -0.549362
H26   H     H_    0.017067 0.940107 0.276103 0.242417
C13   C     C_3   0.885746 0.207335 0.728382 0.449184
H27   H     H_    0.799831 0.209615 0.664064 0.150924
H28   H     H_    0.016450 0.221450 0.717912 0.015949
C14   C     C_3   0.854315 0.111131 0.752321 -0.885505
H29   H     H_    0.723575 0.094198 0.762091 0.289743
H30   H     H_    0.876214 0.060636 0.696495 0.211890
H31   H     H_    0.939934 0.106321 0.815975 0.262360
P8    P     P_3+3 0.395667 0.216802 0.607379 0.437679
C15   C     C_3   0.426736 0.259728 0.780630 0.472176
H32   H     H_    0.295337 0.270963 0.765865 0.012898
O23   O     O_2   0.511159 0.173537 0.549207 -0.398809
O24   O     O_3   0.457775 0.190096 0.716434 -0.523079
H33   H     H_    0.510979 0.324700 0.781172 0.153215
H34   H     H_    0.436936 0.287661 0.926263 0.221939
C16   C     C_3   0.459531 0.232467 0.875077 -0.920193
H35   H     H_    0.590778 0.221471 0.892506 0.289496
H36   H     H_    0.375065 0.168335 0.877261 0.260094
C17   C     C_R   0.623635 0.831927 0.458393 0.288558
H37   H     H_    0.661767 0.698473 0.489172 0.173459
H38   H     H_    0.482933 0.966599 0.385952 0.170350
C18   C     C_R   0.886784 0.794659 0.530855 0.292879
C19   C     C_R   0.077065 0.235255 0.523818 -0.526608
C20   C     C_R   0.175886 0.174178 0.557697 0.250321
C21   C     C_R   0.110135 0.081851 0.551281 -0.311702
C22   C     C_R   0.943389 0.047464 0.508259 0.049563
C23   C     C_R   0.847027 0.109780 0.467516 -0.026380
C24   C     C_R   0.870201 0.953125 0.503452 0.042035
C25   C     C_R   0.699654 0.924027 0.461458 -0.004126
C26   C     C_R   0.611017 0.986310 0.420134 -0.086162
C27   C     C_R   0.684950 0.075705 0.420075 -0.075682
C28   C     C_R   0.960844 0.886360 0.538216 -0.302673
C29   C     C_R   0.718576 0.769097 0.493436 -0.449749
C30   C     C_R   0.915484 0.204667 0.475778 0.252985
H39   H     H_    0.089605 0.902785 0.570821 0.163703
H40   H     H_    0.130175 0.306766 0.530286 0.176344
H41   H     H_    0.192919 0.039154 0.580602 0.160217
H42   H     H_    0.610297 0.117955 0.383520 0.170513
C31   C     C_R   0.233378 0.464043 0.764729 -0.519475
C32   C     C_R   0.134857 0.430203 0.823704 0.240811
C33   C     C_R   0.199698 0.440205 0.917146 -0.283191
C34   C     C_R   0.362578 0.488878 0.953532 0.097061
C35   C     C_R   0.453247 0.528312 0.891973 -0.273939
C36   C     C_R   0.389993 0.515184 0.799041 0.275735
C37   C     C_R   0.603624 0.544209 0.087300 -0.336442
C38   C     C_R   0.670951 0.557849 0.179959 0.340758
C39   C     C_R   0.413728 0.482460 0.211286 0.285778
C40   C     C_R   0.343343 0.470132 0.118518 -0.281611
C41   C     C_R   0.436094 0.501881 0.054031 0.058494
C42   C     C_R   0.575206 0.528676 0.241884 -0.466039
H43   H     H_    0.687378 0.565509 0.043389 0.164280
H44   H     H_    0.119156 0.411245 0.959342 0.152119
H45   H     H_    0.217854 0.433818 0.098791 0.163789
H46   H     H_    0.571113 0.572675 0.913893 0.148337
H47   H     H_    0.629494 0.537630 0.313481 0.181877
H48   H     H_    0.183375 0.456525 0.692669 0.172469
O25   O     O_3   0.234419 0.744525 0.876354 -0.641983
H49   H     H_    0.333794 0.713418 0.882544 0.351154
O26   O     O_3   0.457893 0.782643 0.100237 -0.608290
H50   H     H_    0.527738 0.734101 0.091784 0.336905
O27   O     O_3   0.754307 0.866054 0.789618 -0.654314
H51   H     H_    0.860203 0.861556 0.767125 0.344973
N1    N     N_R   0.774720 0.799824 0.268188 0.213898
O28   O     O_R   0.705280 0.870658 0.251017 -0.354087
O29   O     O_R   0.696504 0.736400 0.303766 -0.490163

loop_
_geom_bond_atom_site_label_1
_geom_bond_atom_site_label_2
_geom_bond_distance
_ccdc_geom_bond_type
O14   Ba2   2.783135 S    
P7    O22   1.750535 S    
C12   H25   1.111009 S    
P8    C20   1.836300 S    
C21   C22   1.416632 A    
Ba2   O20   2.790626 S    
C5    H10   1.105398 S    
C14   H30   1.110097 S    
C14   H29   1.110609 S    
O4    P6    1.548410 D    
O5    C6    1.398226 S    
C2    H4    1.107860 S    
C4    C5    1.522112 S    
C19   H40   1.081868 S    
C25   C26   1.402591 A    
P4    O12   1.511719 D    
C40   C41   1.417556 A    
C1    O26   1.400818 S    
P3    O11   1.770976 S    
C11   C12   1.527561 S    
C31   H48   1.082243 S    
C2    C3    1.535648 S    
C4    H8    1.110371 S    
O11   C2    1.412925 S    
C8    H16   1.104437 S    
C23   C27   1.402487 A    
C39   C40   1.401624 A    
P1    Ba1   3.381689 S    
C32   C33   1.403101 A    
C11   H23   1.111136 S    
P1    O1    1.511506 D    
C9    H18   1.110676 S    
Ba1   O20   2.898550 S    
C7    O25   1.401926 S    
C34   C35   1.416240 A    
C21   H41   1.076045 S    
C37   H43   1.075114 S    
P2    O20   1.568575 S    
O2    Ba2   2.815583 S    
C35   C36   1.390808 A    
O12   Ba2   2.843371 S    
P5    O17   1.749052 S    
C31   C32   1.392047 A    
C13   H27   1.110434 S    
P4    O15   1.749882 S    
C1    H2    1.114392 S    
O7    Ba1   2.842108 S    
O16   Ba2   2.897774 S    
P3    C38   1.828445 S    
O17   Ba2   2.755112 S    
C42   H47   1.082144 S    
P2    C39   1.832572 S    
P7    O21   1.571574 D    
C17   C29   1.399901 A    
C3    H5    1.100330 S    
O3    P6    1.743069 S    
C35   H46   1.075116 S    
P5    C32   1.839856 S    
C9    H19   1.107267 S    
O6    P6    1.763472 S    
C34   C41   1.513580 S    
C18   C28   1.402220 A    
H37   C29   1.082017 S    
P4    O13   1.577375 S    
C2    N1    1.455150 S    
P5    O18   1.547043 D    
C13   H28   1.109782 S    
C40   H45   1.076245 S    
P1    O5    1.752562 S    
C6    C7    1.527629 S    
C4    H7    1.103768 S    
C8    C9    1.522716 S    
Ba1   O16   2.791318 S    
C19   C20   1.392239 A    
C5    H11   1.110810 S    
C15   H32   1.109821 S    
P6    C17   1.860081 S    
C28   H39   1.075787 S    
C3    H26   1.111684 S    
C11   H22   1.109655 S    
P1    O2    1.577358 S    
C7    H14   1.110866 S    
C6    H13   1.107907 S    
O14   P8    1.739768 S    
P2    O10   1.751912 S    
C22   C24   1.440872 A    
C18   C29   1.390517 A    
H1    C10   1.095910 S    
C15   H33   1.110513 S    
H34   C16   1.110853 S    
O19   C13   1.405754 S    
P8    O24   1.750738 S    
C39   C42   1.389064 A    
C24   C25   1.428463 A    
C13   C14   1.521168 S    
C31   C36   1.389437 A    
P5    O19   1.750965 S    
C16   H35   1.110681 S    
O2    Ba1   2.901904 S    
C1    H3    1.106442 S    
C11   O22   1.401944 S    
C38   C42   1.388817 A    
C37   C41   1.419260 A    
P2    O7    1.502747 D    
P3    O8    1.761866 S    
P2    Ba1   3.386235 S    
O25   H49   0.992388 S    
C9    H20   1.110883 S    
C19   C30   1.394192 A    
O26   H50   0.992881 S    
P1    C18   1.859014 S    
O13   Ba2   2.902811 S    
C37   C38   1.393606 A    
P8    O23   1.544349 D    
C4    O15   1.395166 S    
C27   H42   1.078023 S    
C7    H15   1.111068 S    
C16   H36   1.110762 S    
N1    O29   1.292447 A    
Ba2   O21   2.842351 S    
C23   C30   1.431861 A    
O8    Ba1   2.754516 S    
H38   C26   1.080255 S    
Ba1   Ba2   4.566905 S    
C6    H12   1.101437 S    
C3    H6    1.110996 S    
O27   H51   0.993661 S    
C33   C34   1.422884 A    
C8    H17   1.110040 S    
C15   O24   1.405970 S    
C10   H21   1.100501 S    
C24   C28   1.425204 A    
C20   C21   1.394190 A    
C14   H31   1.110719 S    
O6    C10   1.411963 S    
C1    C10   1.530941 S    
O10   C8    1.398385 S    
C12   O27   1.401974 S    
C22   C23   1.434624 A    
O3    Ba1   2.783789 S    
P4    C30   1.875815 S    
C12   H24   1.112458 S    
C15   C16   1.520478 S    
P4    Ba2   3.382163 S    
C26   C27   1.388026 A    
P3    O9    1.545122 D    
C5    H9    1.110734 S    
O1    Ba1   2.842841 S    
Ba1   O13   2.814939 S    
P7    C36   1.829604 S    
O16   P7    1.748610 S    
N1    O28   1.302316 A    
C33   H44   1.076432 S    
C17   C25   1.421321 A    
