data_mof_unit_43371.cif
_audit_creation_date              2012-10-26T20:58:59-0400
_audit_creation_method            fapswitch 2.2
_symmetry_space_group_name_H-M    P1
_symmetry_Int_Tables_number       1
_space_group_crystal_system       triclinic
_cell_length_a                    27.814583
_cell_length_b                    10.629619
_cell_length_c                    9.409763
_cell_angle_alpha                 90.250695
_cell_angle_beta                  89.755334
_cell_angle_gamma                 90.109384
_cell_volume                      2782.01869339

loop_
_atom_site_label
_atom_site_type_symbol
_atom_type_description
_atom_site_fract_x
_atom_site_fract_y
_atom_site_fract_z
_atom_type_partial_charge
C1    C     C_R   0.499861 0.259553 0.499592 0.559744
C2    C     C_R   0.872431 0.389409 0.535291 0.024062
C3    C     C_R   0.354584 0.501072 0.500776 0.009343
C4    C     C_R   0.645435 0.498966 0.499251 0.009425
C5    C     C_R   0.974482 0.387419 0.533316 0.018492
C6    C     C_R   0.025614 0.613570 0.471823 0.018775
C7    C     C_R   0.974533 0.611973 0.466121 0.018437
C8    C     C_R   0.025594 0.386756 0.528731 0.018725
C9    C     C_R   0.949261 0.499471 0.499460 0.034342
C10   C     C_R   0.050850 0.500391 0.500537 0.034349
C11   C     C_R   0.947426 0.279685 0.571650 -0.140748
C12   C     C_R   0.500136 0.740447 0.500408 0.559706
C13   C     C_R   0.052619 0.725066 0.450634 -0.140240
C14   C     C_R   0.897510 0.280875 0.572224 -0.110971
C15   C     C_R   0.102530 0.724458 0.452563 -0.110808
C16   C     C_R   0.407518 0.500326 0.500252 0.555310
C17   C     C_R   0.592488 0.499686 0.499752 0.555409
C18   C     C_R   0.052615 0.275761 0.550554 -0.140369
C19   C     C_R   0.947562 0.719204 0.427146 -0.140880
C20   C     C_3   0.539173 0.041984 0.564186 -0.010186
C21   C     C_3   0.460820 0.958014 0.435814 -0.009977
C22   C     C_3   0.539449 0.957743 0.430597 -0.139118
C23   C     C_R   0.101996 0.500848 0.501032 -0.026898
C24   C     C_3   0.460544 0.042256 0.569402 -0.138934
C25   C     C_3   0.500166 0.877140 0.501281 0.019243
C26   C     C_3   0.499828 0.122858 0.498718 0.019259
C27   C     C_3   0.500534 0.959871 0.636060 -0.132206
C28   C     C_3   0.499459 0.040127 0.363939 -0.132206
C29   C     C_3   0.485219 0.606834 0.051158 -0.005076
C30   C     C_3   0.514780 0.393166 0.948841 -0.005111
C31   C     C_3   0.457255 0.519747 0.950121 -0.006169
C32   C     C_3   0.542744 0.480253 0.049876 -0.005822
C33   C     C_3   0.528000 0.587051 0.949484 -0.009056
C34   C     C_R   0.898114 0.499026 0.498968 -0.026801
C35   C     C_3   0.471999 0.412949 0.050515 -0.009296
C36   C     C_R   0.178111 0.391515 0.525833 0.398751
C37   C     C_R   0.822032 0.605828 0.462535 0.398796
C38   C     C_R   0.178119 0.611459 0.477314 0.399650
C39   C     C_R   0.821957 0.391020 0.534340 0.399569
C40   C     C_R   0.278812 0.487600 0.629029 -0.053361
C41   C     C_R   0.720999 0.489532 0.627101 -0.050486
C42   C     C_R   0.328943 0.487430 0.628889 -0.141207
C43   C     C_R   0.670876 0.490094 0.627616 -0.128910
C44   C     C_R   0.329157 0.515455 0.373058 -0.128311
C45   C     C_R   0.127640 0.389065 0.526066 0.024787
C46   C     C_R   0.671078 0.507106 0.370523 -0.141057
C47   C     C_R   0.279034 0.516125 0.373616 -0.050543
C48   C     C_R   0.721207 0.506787 0.370362 -0.053093
C49   C     C_R   0.253730 0.501959 0.501476 0.242142
C50   C     C_R   0.746324 0.498045 0.498576 0.241136
C51   C     C_1   0.582288 0.091266 0.634626 0.200859
C52   C     C_1   0.417706 0.908721 0.365377 0.201325
C53   C     C_R   0.872504 0.608212 0.462202 0.024917
C54   C     C_R   0.102531 0.277257 0.549571 -0.110721
C55   C     C_R   0.897654 0.717152 0.425632 -0.110856
C56   C     C_R   0.127645 0.613079 0.476442 0.024010
Cu1   Cu    Cu3+1 0.500010 0.499990 0.643150 0.940686
Cu2   Cu    Cu3+1 0.499990 0.500010 0.356850 0.940640
H1    H     H_    0.347934 0.526523 0.272805 0.135031
H2    H     H_    0.347546 0.476013 0.728848 0.122292
H3    H     H_    0.878605 0.195738 0.602186 0.169575
H4    H     H_    0.121401 0.812392 0.435338 0.168817
H5    H     H_    0.963578 0.192651 0.604348 0.109664
H6    H     H_    0.036417 0.815680 0.434385 0.107524
H7    H     H_    0.501426 0.925022 0.747099 0.122723
H8    H     H_    0.498567 0.074976 0.252900 0.122717
H9    H     H_    0.472626 0.696719 0.098785 0.119966
H10   H     H_    0.527373 0.303281 0.901214 0.120101
H11   H     H_    0.551555 0.660195 0.901910 0.106982
H12   H     H_    0.652483 0.514101 0.270015 0.122334
H13   H     H_    0.448446 0.339801 0.098088 0.107302
H14   H     H_    0.740229 0.483019 0.726609 0.132790
H15   H     H_    0.259391 0.476795 0.728222 0.131083
H16   H     H_    0.036437 0.184867 0.566571 0.107517
H17   H     H_    0.963790 0.806491 0.394677 0.109680
H18   H     H_    0.571810 0.920596 0.375257 0.126131
H19   H     H_    0.428183 0.079404 0.624742 0.126097
H20   H     H_    0.421218 0.536749 0.903916 0.107434
H21   H     H_    0.578779 0.463232 0.096067 0.106942
H22   H     H_    0.259787 0.527091 0.274663 0.131474
H23   H     H_    0.740602 0.513112 0.270612 0.132698
H24   H     H_    0.121411 0.189659 0.567168 0.168832
H25   H     H_    0.878812 0.801959 0.395296 0.169474
H26   H     H_    0.652118 0.483461 0.728413 0.134094
N1    N     N_R   0.202196 0.501675 0.501678 -0.400046
N2    N     N_R   0.797888 0.498255 0.498344 -0.399438
N3    N     N_3   0.500040 0.499970 0.858290 -0.232430
N4    N     N_3   0.499960 0.500030 0.141710 -0.232396
N5    N     N_1   0.616245 0.130420 0.690118 -0.283524
N6    N     N_1   0.383749 0.869559 0.309889 -0.284661
O1    O     O_R   0.500020 0.316850 0.620870 -0.502242
O2    O     O_2   0.797246 0.710442 0.428569 -0.488524
O3    O     O_2   0.797101 0.286048 0.568045 -0.482273
O4    O     O_2   0.202971 0.718781 0.454825 -0.480803
O5    O     O_R   0.499980 0.683150 0.379130 -0.502240
O6    O     O_R   0.500000 0.316860 0.379090 -0.504670
O7    O     O_R   0.500000 0.683140 0.620910 -0.504680
O8    O     O_R   0.430270 0.500020 0.620880 -0.508630
O9    O     O_R   0.569730 0.499980 0.379120 -0.508707
O10   O     O_R   0.430250 0.500030 0.379090 -0.499991
O11   O     O_R   0.569750 0.499970 0.620910 -0.499880
O12   O     O_2   0.202959 0.284582 0.548584 -0.486613

loop_
_geom_bond_atom_site_label_1
_geom_bond_atom_site_label_2
_ccdc_geom_bond_type
C3    C42   A    
C23   C45   A    
C52   N6    T    
C24   C27   S    
C22   H18   S    
C23   C56   A    
C47   C49   A    
C4    C46   A    
C48   H23   S    
C30   C35   S    
C24   C26   S    
C5    C11   A    
C20   C51   S    
C11   H5    S    
C11   C14   A    
C44   H1    S    
C40   C49   A    
C32   N4    S    
C29   C33   S    
C40   H15   S    
C36   O12   S    
C17   O11   A    
C39   O3    S    
C29   N4    S    
Cu2   O6    S    
C29   H9    S    
C2    C39   A    
C22   C25   S    
C12   O5    A    
C44   C47   A    
C33   H11   S    
C37   C53   A    
C2    C34   A    
C40   C42   A    
C35   H13   S    
C18   H16   S    
C22   C28   S    
C43   H26   S    
C41   C43   A    
C47   H22   S    
C53   C55   A    
C46   C48   A    
C3    C44   A    
C31   N3    S    
C38   N1    A    
C49   N1    S    
C37   N2    A    
Cu2   O10   S    
C42   H2    S    
C50   N2    S    
C16   O10   A    
C14   H3    S    
C8    C18   A    
Cu1   N3    S    
C28   H8    S    
Cu2   O5    S    
C5    C9    A    
C27   H7    S    
C35   N4    S    
Cu1   O7    S    
C38   O4    S    
C36   C45   A    
C17   O9    A    
C12   O7    A    
C41   H14   S    
C4    C17   S    
C4    C43   A    
C21   C28   S    
C20   C22   S    
C45   C54   A    
C7    C19   A    
C13   C15   A    
C9    C34   A    
C36   N1    A    
C31   C35   S    
C55   H25   S    
C41   C50   A    
C54   H24   S    
C31   H20   S    
C19   C55   A    
C7    C9    A    
C21   C25   S    
Cu1   O1    S    
C37   O2    S    
Cu2   O9    S    
Cu2   N4    S    
C6    C10   A    
C5    C8    A    
C6    C7    A    
C20   C27   S    
C10   C23   A    
C25   C27   S    
Cu1   O11   S    
C26   C28   S    
C12   C25   S    
C32   C33   S    
C19   H17   S    
C33   N3    S    
C29   C31   S    
C15   C56   A    
C32   H21   S    
C30   C32   S    
C16   O8    A    
Cu1   Cu2   S    
C1    C26   S    
C13   H6    S    
C20   C26   S    
C1    O6    A    
Cu1   O8    S    
C48   C50   A    
C15   H4    S    
C2    C14   A    
C30   H10   S    
C46   H12   S    
C18   C54   A    
C24   H19   S    
C38   C56   A    
C34   C53   A    
C8    C10   A    
C1    O1    A    
C21   C24   S    
C39   N2    A    
C30   N3    S    
C21   C52   S    
C51   N5    T    
C3    C16   S    
C6    C13   A    
