data_mof_unit_47337.cif
_audit_creation_date              2013-03-05T15:46:11-0500
_audit_creation_method            fapswitch 2.2
_symmetry_space_group_name_H-M    P1
_symmetry_Int_Tables_number       1
_space_group_crystal_system       triclinic
_cell_length_a                    10.609358
_cell_length_b                    10.723292
_cell_length_c                    17.150421
_cell_angle_alpha                 80.533872
_cell_angle_beta                  89.533398
_cell_angle_gamma                 119.47399
_cell_volume                      1666.46915192

loop_
_atom_site_label
_atom_site_type_symbol
_atom_site_description
_atom_site_fract_x
_atom_site_fract_y
_atom_site_fract_z
_atom_type_partial_charge
O1    O     O_R   0.521780 0.757110 0.108900 -0.506789
O2    O     O_R   0.275160 0.783810 0.101120 -0.498293
C1    C     C_R   0.222857 0.854483 0.128672 0.556141
O3    O     O_R   0.237900 0.972600 0.090980 -0.502984
O4    O     O_R   0.511190 0.220540 0.061620 -0.512414
C2    C     C_R   0.635926 0.278987 0.086629 0.547982
O5    O     O_R   0.736920 0.257720 0.063840 -0.516468
O6    O     O_R   0.710450 0.984050 0.081720 -0.488951
C3    C     C_R   0.640108 0.858596 0.125445 0.563726
O7    O     O_R   0.524090 0.765520 0.933110 -0.539594
O8    O     O_R   0.277300 0.791600 0.938160 -0.522952
C4    C     C_R   0.217454 0.858529 0.902029 0.580133
O9    O     O_R   0.240210 0.981010 0.915190 -0.462802
O10   O     O_R   0.513330 0.228330 0.898660 -0.521208
C5    C     C_R   0.637293 0.283505 0.860797 0.537513
O11   O     O_R   0.739230 0.266130 0.888050 -0.513301
O12   O     O_R   0.712580 0.991850 0.918770 -0.473706
C6    C     C_R   0.645980 0.868406 0.898751 0.591533
Cr1   Cr    Cr6+3 0.402240 0.783890 0.019450 1.021571
Cr2   Cr    Cr6+3 0.382360 0.097900 0.991800 1.033652
Cr3   Cr    Cr6+3 0.715380 0.118170 0.988700 1.052952
O13   O     O_3   0.499990 0.999980 0.999980 -0.270047
C7    C     C_R   0.525207 0.301273 0.206624 -0.126251
H1    H     H_    0.418122 0.250090 0.186028 0.145736
C8    C     C_R   0.535860 0.317179 0.285340 -0.131224
H2    H     H_    0.438760 0.284589 0.323631 0.137350
C9    C     C_R   0.671522 0.370200 0.314627 0.034087
C10   C     C_R   0.797741 0.419546 0.263482 -0.126453
H3    H     H_    0.905106 0.469100 0.283903 0.143880
C11   C     C_R   0.787541 0.405846 0.185160 -0.130097
H4    H     H_    0.885643 0.438409 0.147735 0.139608
C12   C     C_R   0.650724 0.339510 0.157511 0.029787
C13   C     C_1   0.668770 0.848708 0.205428 -0.025609
C14   C     C_1   0.680734 0.839128 0.274740 -0.026427
C15   C     C_1   0.180379 0.825863 0.211147 -0.044232
C16   C     C_1   0.150896 0.819782 0.279688 -0.043372
C17   C     C_1   0.644134 0.322039 0.777991 -0.017102
C18   C     C_1   0.650987 0.344228 0.707476 0.015742
C19   C     C_R   0.632121 0.720410 0.804534 -0.118303
H5    H     H_    0.593755 0.627040 0.852584 0.141598
C20   C     C_R   0.610464 0.699599 0.727640 0.199206
C21   C     C_R   0.664856 0.822629 0.664826 -0.000507
C22   C     C_R   0.732661 0.964949 0.680837 0.134900
C23   C     C_R   0.737616 0.981325 0.759542 -0.084559
H6    H     H_    0.776533 0.089118 0.772704 0.182369
C24   C     C_R   0.685431 0.858663 0.820898 0.005995
C25   C     C_R   0.074958 0.875463 0.791590 0.197776
C26   C     C_R   0.060800 0.873494 0.711660 -0.110812
H7    H     H_    0.004752 0.925514 0.681072 0.176611
C27   C     C_R   0.115037 0.803018 0.671566 -0.004386
C28   C     C_R   0.173577 0.724020 0.712914 -0.150075
H8    H     H_    0.209154 0.663882 0.682811 0.130570
C29   C     C_R   0.192436 0.729011 0.792495 -0.178644
H9    H     H_    0.250091 0.678263 0.822006 0.136606
C30   C     C_R   0.150311 0.811113 0.831021 0.017544
O14   O     O_R   0.083770 0.911170 0.376030 -0.507291
O15   O     O_R   0.808770 0.880340 0.383890 -0.489522
C31   C     C_R   0.686980 0.809635 0.357108 0.556805
O16   O     O_R   0.584340 0.689460 0.394160 -0.511767
O17   O     O_R   0.614320 0.443940 0.423590 -0.510173
C32   C     C_R   0.689960 0.397074 0.394479 0.560219
O18   O     O_R   0.805020 0.410040 0.421340 -0.486981
O19   O     O_R   0.049240 0.685450 0.403290 -0.504876
C33   C     C_R   0.103343 0.810217 0.359118 0.545555
O20   O     O_R   0.077520 0.903010 0.551800 -0.515338
O21   O     O_R   0.802980 0.872780 0.546830 -0.473914
C34   C     C_R   0.677333 0.799098 0.585633 0.611938
O22   O     O_R   0.578090 0.681300 0.569920 -0.485184
O23   O     O_R   0.608530 0.436370 0.586530 -0.477999
C35   C     C_R   0.678627 0.382464 0.624395 0.585839
O24   O     O_R   0.798770 0.401880 0.597100 -0.445872
O25   O     O_R   0.043450 0.677890 0.566230 -0.497196
C36   C     C_R   0.089469 0.798724 0.589328 0.547250
Cr4   Cr    Cr6+3 0.936650 0.882420 0.465510 1.076296
Cr5   Cr    Cr6+3 0.605770 0.565620 0.493360 1.060806
Cr6   Cr    Cr6+3 0.921340 0.550490 0.496380 1.098874
O26   O     O_3   0.821250 0.666180 0.485090 -0.292910
O27   O     O_3   0.536760 0.557923 0.714268 -0.551872
C37   C     C_3   0.385219 0.496649 0.734950 0.017649
H10   H     H_    0.326872 0.449134 0.684516 0.179116
H11   H     H_    0.353587 0.578375 0.744479 0.105352
C38   C     C_3   0.332147 0.374220 0.808619 -0.244400
H12   H     H_    0.311684 0.271641 0.790346 0.207226
H13   H     H_    0.416423 0.401116 0.850507 0.174621
C39   C     C_3   0.194081 0.350258 0.852815 -0.408136
H14   H     H_    0.219335 0.444934 0.880990 0.121275
H15   H     H_    0.150174 0.251224 0.900422 0.197637
H16   H     H_    0.110070 0.336433 0.811469 0.198947
N1    N     N_R   0.793330 0.092327 0.618593 0.080713
O28   O     O_R   0.727191 0.094222 0.555204 -0.336672
O29   O     O_R   0.911716 0.209909 0.627070 -0.320928
N2    N     N_R   0.019871 0.949931 0.830532 0.068600
O30   O     O_R   0.029432 0.070102 0.792662 -0.389777
O31   O     O_R   0.957108 0.896527 0.903031 -0.350913

loop_
_geom_bond_atom_site_label_1
_geom_bond_atom_site_label_2
_geom_bond_distance
_ccdc_geom_bond_type
C2    C12   1.444308 S    
C18   C35   1.402523 S    
O11   Cr3   2.063508 S    
C20   C21   1.416776 A    
C15   C16   1.196925 T    
O25   Cr6   1.949811 S    
C19   C20   1.375869 A    
O4    Cr2   1.951238 S    
C29   H9    1.080960 S    
O22   Cr5   2.058402 S    
O8    Cr1   1.951300 S    
C22   N1    1.436535 S    
C10   H3    1.083785 S    
C39   H14   1.109860 S    
O4    C2    1.268688 A    
O19   Cr6   1.938264 S    
C5    O11   1.265177 A    
O21   Cr4   1.934697 S    
O20   C36   1.258957 A    
C25   N2    1.433050 S    
C5    C17   1.403076 S    
C9    C32   1.440687 S    
O6    C3    1.264979 A    
Cr4   O26   1.982942 S    
C7    H1    1.083255 S    
O14   C33   1.273836 A    
C35   O24   1.258683 A    
N1    O29   1.301278 A    
C26   C27   1.402679 A    
O21   C34   1.272898 A    
Cr3   O13   1.981858 S    
C3    C13   1.405729 S    
O18   Cr6   2.069290 S    
C32   O18   1.258925 A    
C6    C24   1.431324 S    
C23   C24   1.400918 A    
C13   C14   1.189491 T    
C29   C30   1.408945 A    
O1    Cr1   2.071127 S    
O14   Cr4   2.053823 S    
C39   H15   1.110502 S    
C34   O22   1.258827 A    
O10   Cr2   1.937812 S    
Cr1   O13   1.982798 S    
O1    C3    1.266403 A    
Cr6   O26   1.981118 S    
C27   C36   1.442326 S    
C20   O27   1.385863 S    
C37   H11   1.114901 S    
O27   C37   1.420180 S    
C27   C28   1.390507 A    
C31   O16   1.260446 A    
O5    Cr3   2.062725 S    
O12   Cr3   1.941513 S    
O20   Cr4   2.071549 S    
C28   H8    1.082024 S    
O17   C32   1.272274 A    
C28   C29   1.386943 A    
O15   Cr4   1.952462 S    
C22   C23   1.387671 A    
C17   C18   1.188003 T    
C25   C26   1.382728 A    
C1    C15   1.417310 S    
O7    Cr1   2.053787 S    
N2    O31   1.301698 A    
O12   C6    1.265871 A    
Cr5   O26   1.981848 S    
C19   C24   1.382333 A    
C26   H7    1.084074 S    
Cr2   O13   1.980808 S    
C38   H13   1.106154 S    
C21   C34   1.438252 S    
C37   H10   1.110985 S    
C21   C22   1.408084 A    
C1    O3    1.256076 A    
O16   Cr5   2.066390 S    
C19   H5    1.081375 S    
C23   H6    1.084086 S    
C25   C30   1.403844 A    
C39   H16   1.110891 S    
O9    Cr2   2.070182 S    
O2    Cr1   1.935806 S    
O25   C36   1.274234 A    
O6    Cr3   1.945809 S    
C37   C38   1.533717 S    
O8    C4    1.269149 A    
C2    O5    1.271138 A    
C8    C9    1.395536 A    
C38   C39   1.527632 S    
O17   Cr5   1.941865 S    
C7    C12   1.407743 A    
C10   C11   1.374503 A    
O2    C1    1.277835 A    
C8    H2    1.083440 S    
C11   C12   1.394243 A    
C11   H4    1.083933 S    
O15   C31   1.271051 A    
O24   Cr6   2.057455 S    
O7    C6    1.267485 A    
N2    O30   1.299114 A    
O23   Cr5   1.946108 S    
C7    C8    1.386962 A    
O23   C35   1.271355 A    
C4    C30   1.452737 S    
O19   C33   1.263812 A    
O3    Cr2   2.055952 S    
C4    O9    1.273038 A    
C38   H12   1.111211 S    
C9    C10   1.404824 A    
C14   C31   1.405398 S    
O10   C5    1.263090 A    
N1    O28   1.301488 A    
C16   C33   1.418706 S    
