data_mof_unit_21983.cif
_audit_creation_date              2012-12-11T15:23:58-0500
_audit_creation_method            fapswitch 2.2
_symmetry_space_group_name_H-M    P1
_symmetry_Int_Tables_number       1
_space_group_crystal_system       triclinic
_cell_length_a                    17.443713
_cell_length_b                    24.645985
_cell_length_c                    14.982497
_cell_angle_alpha                 90.198553
_cell_angle_beta                  126.057583
_cell_angle_gamma                 89.601506
_cell_volume                      5207.13540182

loop_
_atom_site_label
_atom_site_type_symbol
_atom_type_description
_atom_site_fract_x
_atom_site_fract_y
_atom_site_fract_z
_atom_type_partial_charge
C1    C     C_R   0.335882 0.355550 0.905489 -0.149252
C2    C     C_R   0.438103 0.498246 0.634237 0.119508
C3    C     C_3   0.261120 0.855332 0.867013 -0.860108
C4    C     C_3   0.325188 0.679374 0.771212 0.238627
C5    C     C_3   0.264798 0.711952 0.664973 -0.905204
C6    C     C_3   0.645435 0.673112 0.231747 0.265569
C7    C     C_3   0.696360 0.704230 0.339937 -0.923186
C8    C     C_3   0.801021 0.181680 0.776011 0.249420
C9    C     C_3   0.731071 0.212797 0.670024 -0.929999
C10   C     C_3   0.150879 0.166128 0.242818 0.260691
C11   C     C_3   0.200262 0.199063 0.348766 -0.914758
C12   C     C_R   0.062550 0.997858 0.366999 0.131968
C13   C     C_R   0.053011 0.999033 0.729043 0.108108
C14   C     C_R   0.187927 0.498470 0.643451 0.116306
C15   C     C_R   0.822563 0.497881 0.268238 0.126136
C16   C     C_R   0.690533 0.998601 0.639774 0.108001
C17   C     C_R   0.322369 0.997820 0.267163 0.127780
C18   C     C_2   0.976942 0.453948 0.362487 -0.118364
C19   C     C_2   0.074564 0.457640 0.462299 -0.112762
C20   C     C_2   0.476747 0.953758 0.360822 -0.111928
C21   C     C_R   0.647950 0.348378 0.090903 -0.148985
C22   C     C_2   0.575181 0.957165 0.459433 -0.117468
C23   C     C_2   0.923308 0.498542 0.316324 -0.190306
C24   C     C_2   0.100907 0.499332 0.532511 -0.193483
C25   C     C_2   0.423040 0.998366 0.314549 -0.194802
C26   C     C_2   0.604349 0.999835 0.527907 -0.188185
C27   C     C_R   0.177693 0.694939 0.920318 -0.115373
C28   C     C_R   0.766745 0.737292 0.092915 -0.112850
C29   C     C_R   0.656889 0.186913 0.903900 -0.131576
C30   C     C_R   0.282481 0.213940 0.079930 -0.125939
C31   C     C_R   0.609605 0.232412 0.903656 -0.204181
C32   C     C_R   0.813026 0.873158 0.909150 -0.126429
C33   C     C_R   0.339632 0.248778 0.074060 -0.211666
C34   C     C_R   0.121719 0.732396 0.925494 -0.215538
C35   C     C_R   0.809423 0.784098 0.096992 -0.215560
C36   C     C_R   0.647578 0.261117 0.002093 0.148736
C37   C     C_R   0.297597 0.288314 0.992524 0.156218
C38   C     C_R   0.165718 0.771021 0.009280 0.148528
C39   C     C_R   0.761516 0.820409 0.008205 0.153121
C40   C     C_R   0.722061 0.238337 0.102506 -0.182380
C41   C     C_R   0.199182 0.293293 0.915573 -0.195072
C42   C     C_R   0.263936 0.771944 0.089283 -0.184163
C43   C     C_R   0.143531 0.848204 0.092330 -0.158085
C44   C     C_R   0.667224 0.811498 0.918777 -0.183047
C45   C     C_R   0.319178 0.735998 0.082226 -0.194105
C46   C     C_R   0.622773 0.764500 0.916359 -0.185979
C47   C     C_R   0.769683 0.193529 0.102413 -0.168596
C48   C     C_R   0.141767 0.258472 0.921812 -0.194052
C49   C     C_R   0.415954 0.638420 0.089970 -0.286299
C50   C     C_R   0.567760 0.646530 0.907809 -0.264408
C51   C     C_R   0.901576 0.123544 0.091014 -0.267135
C52   C     C_R   0.062475 0.148829 0.909230 -0.284716
C53   C     C_R   0.276029 0.697864 0.997961 0.194485
C54   C     C_R   0.334351 0.658833 0.997011 -0.073043
C55   C     C_R   0.674037 0.727035 0.002731 0.176357
C56   C     C_R   0.743450 0.171385 0.001855 0.158164
C57   C     C_R   0.183978 0.219296 0.004255 0.199970
C58   C     C_R   0.405526 0.548313 0.473821 -0.232731
C59   C     C_R   0.408275 0.549791 0.384075 -0.239644
C60   C     C_R   0.099320 0.048123 0.624275 -0.219862
C61   C     C_R   0.098329 0.046818 0.531503 -0.226870
C62   C     C_R   0.409183 0.501305 0.336285 -0.049984
C63   C     C_R   0.406752 0.498337 0.519224 -0.045866
C64   C     C_R   0.093149 0.997088 0.482358 -0.077810
C65   C     C_R   0.635297 0.675609 0.999836 -0.076675
C66   C     C_R   0.098303 0.999622 0.671743 -0.106717
C67   C     C_R   0.380616 0.453443 0.358890 0.345071
C68   C     C_R   0.388743 0.450063 0.457683 0.369905
C69   C     C_R   0.108038 0.948259 0.541288 0.419733
C70   C     C_R   0.121065 0.950875 0.642811 0.364325
C71   C     C_R   0.483883 0.454192 0.252526 -0.116334
C72   C     C_R   0.453434 0.453501 0.698446 -0.135090
C73   C     C_R   0.049331 0.953581 0.302855 -0.150334
C74   C     C_R   0.020092 0.953619 0.752208 -0.139425
C75   C     C_R   0.238536 0.544093 0.701472 -0.133406
C76   C     C_R   0.813036 0.139627 0.998916 -0.063498
C77   C     C_R   0.767845 0.543819 0.245434 -0.166359
C78   C     C_R   0.740549 0.044007 0.698996 -0.105804
C79   C     C_R   0.267635 0.043795 0.244292 -0.173047
C80   C     C_R   0.486153 0.544886 0.255067 -0.134730
C81   C     C_R   0.453396 0.544070 0.697685 -0.133588
C82   C     C_R   0.046982 0.043675 0.303486 -0.150637
C83   C     C_R   0.021994 0.044593 0.754621 -0.123919
C84   C     C_R   0.240487 0.453382 0.703265 -0.110127
C85   C     C_R   0.766365 0.452965 0.244987 -0.107027
C86   C     C_R   0.742066 0.953571 0.700821 -0.125288
C87   C     C_R   0.127881 0.177894 0.001477 -0.067002
C88   C     C_R   0.266220 0.952940 0.244381 -0.096533
C89   C     C_R   0.323453 0.637915 0.905711 0.509482
C90   C     C_R   0.655566 0.648320 0.091385 0.476946
C91   C     C_R   0.812584 0.128317 0.907354 0.514845
C92   C     C_R   0.150540 0.149798 0.091825 0.475188
C93   C     C_R   0.429725 0.353256 0.090688 -0.125641
C94   C     C_R   0.558208 0.348702 0.907531 -0.126045
C95   C     C_R   0.904542 0.876785 0.093775 -0.138143
C96   C     C_R   0.055542 0.847678 0.909192 -0.148159
C97   C     C_R   0.355037 0.328959 0.996096 0.047565
C98   C     C_R   0.454217 0.499956 0.279292 0.127229
C99   C     C_R   0.620099 0.317308 0.999782 0.053181
C100  C     C_R   0.817741 0.860450 0.002491 0.045770
C101  C     C_R   0.115412 0.817437 0.002709 0.054807
C102  C     C_3   0.253411 0.405205 0.224900 0.288820
C103  C     C_3   0.221842 0.360218 0.140628 -0.872885
C104  C     C_3   0.450356 0.365043 0.523700 0.271184
C105  C     C_3   0.431260 0.310544 0.554355 -0.918351
C106  C     C_3   0.028462 0.869423 0.460537 0.284058
C107  C     C_3   0.035589 0.813627 0.422031 -0.914131
C108  C     C_3   0.232555 0.909296 0.806011 0.281417
H1    H     H_    0.286667 0.344644 0.819441 0.095097
H2    H     H_    0.809084 0.707751 0.157739 0.155663
H3    H     H_    0.629100 0.166999 0.826225 0.174242
H4    H     H_    0.315338 0.181736 0.140817 0.139176
H5    H     H_    0.548135 0.246988 0.825516 0.119334
H6    H     H_    0.415958 0.245069 0.132715 0.121018
H7    H     H_    0.045636 0.732519 0.863247 0.123700
H8    H     H_    0.883268 0.788537 0.165375 0.122960
H9    H     H_    0.395493 0.739009 0.140958 0.116280
H10   H     H_    0.550380 0.756723 0.846526 0.115700
H11   H     H_    0.832287 0.180436 0.180873 0.111557
H12   H     H_    0.684527 0.334695 0.175165 0.085447
H13   H     H_    0.065410 0.261597 0.862666 0.117023
H14   H     H_    0.412846 0.586595 0.513179 0.143470
H15   H     H_    0.418578 0.588795 0.360173 0.145188
H16   H     H_    0.091437 0.087204 0.650916 0.142910
H17   H     H_    0.092071 0.085252 0.493356 0.142028
H18   H     H_    0.450774 0.652352 0.173521 0.121210
H19   H     H_    0.528306 0.658876 0.822304 0.124415
H20   H     H_    0.929175 0.126983 0.176709 0.133221
H21   H     H_    0.023515 0.161796 0.824148 0.125556
H22   H     H_    0.478025 0.412484 0.268303 0.150706
H23   H     H_    0.756775 0.863635 0.824318 0.095240
H24   H     H_    0.436485 0.411831 0.674254 0.157367
H25   H     H_    0.071041 0.912356 0.328622 0.162470
H26   H     H_    0.027955 0.911492 0.739665 0.156511
H27   H     H_    0.222530 0.584766 0.668838 0.150635
H28   H     H_    0.791556 0.585023 0.255287 0.156506
H29   H     H_    0.726632 0.084420 0.665431 0.143541
H30   H     H_    0.290934 0.085035 0.252689 0.152509
H31   H     H_    0.484843 0.586119 0.276554 0.092108
H32   H     H_    0.436221 0.585737 0.670590 0.084606
H33   H     H_    0.063855 0.085096 0.331921 0.079403
H34   H     H_    0.183760 0.835296 0.177663 0.096286
H35   H     H_    0.033397 0.086434 0.745774 0.099152
H36   H     H_    0.227021 0.411640 0.676039 0.086862
H37   H     H_    0.786543 0.410849 0.252808 0.090287
H38   H     H_    0.729667 0.911937 0.672962 0.085758
H39   H     H_    0.286206 0.910812 0.251655 0.085080
H40   H     H_    0.466881 0.339254 0.174865 0.097640
H41   H     H_    0.513947 0.335676 0.822470 0.084927
H42   H     H_    0.932203 0.872686 0.179485 0.097836
H43   H     H_    0.015775 0.834204 0.824340 0.100414
H44   H     H_    0.945583 0.413889 0.341454 0.118689
H45   H     H_    0.955911 0.538142 0.332139 0.133386
H46   H     H_    0.119773 0.422124 0.485857 0.128783
H47   H     H_    0.445084 0.913793 0.340825 0.115258
H48   H     H_    0.618376 0.920688 0.484397 0.118128
H49   H     H_    0.750544 0.257683 0.180911 0.107309
H50   H     H_    0.166991 0.325134 0.853846 0.123336
H51   H     H_    0.299159 0.803034 0.152280 0.116319
H52   H     H_    0.630076 0.839392 0.849682 0.119358
H53   H     H_    0.219168 0.443786 0.179245 0.084749
H54   H     H_    0.228816 0.395199 0.276621 0.133503
H55   H     H_    0.255357 0.321108 0.183123 0.272767
H56   H     H_    0.055708 0.534557 0.511782 0.137938
H57   H     H_    0.143547 0.355939 0.089776 0.206900
H58   H     H_    0.242889 0.370321 0.085732 0.260104
H59   H     H_    0.517727 0.381582 0.597235 0.070723
H60   H     H_    0.460074 0.357452 0.457799 0.145708
H61   H     H_    0.366564 0.292161 0.480757 0.269883
H62   H     H_    0.492325 0.282691 0.584831 0.215266
H63   H     H_    0.420741 0.315785 0.620077 0.240648
H64   H     H_    0.966788 0.891377 0.388739 0.063387
H65   H     H_    0.014760 0.863338 0.523528 0.138805
H66   H     H_    0.094941 0.790270 0.492879 0.273567
H67   H     H_    0.455390 0.037917 0.328857 0.131341
H68   H     H_    0.968535 0.791130 0.386614 0.215720
H69   H     H_    0.048292 0.817536 0.357935 0.238561
H70   H     H_    0.229711 0.940363 0.858108 0.096496
H71   H     H_    0.287874 0.920683 0.794345 0.097633
H72   H     H_    0.267143 0.823620 0.818593 0.259885
H73   H     H_    0.330580 0.859333 0.948822 0.204914
H74   H     H_    0.207136 0.842731 0.879502 0.260472
H75   H     H_    0.358311 0.645063 0.756681 0.093650
H76   H     H_    0.381716 0.706588 0.836279 0.097214
H77   H     H_    0.231426 0.746898 0.677296 0.269273
H78   H     H_    0.561275 0.036137 0.505919 0.137467
H79   H     H_    0.309846 0.727450 0.640861 0.211269
H80   H     H_    0.208393 0.685949 0.597545 0.251302
H81   H     H_    0.629280 0.632076 0.246666 0.111050
H82   H     H_    0.578945 0.695649 0.170022 0.097322
H83   H     H_    0.713646 0.745734 0.328405 0.261308
H84   H     H_    0.650108 0.707364 0.368058 0.205170
H85   H     H_    0.762986 0.682793 0.404113 0.260973
H86   H     H_    0.845591 0.155485 0.762535 0.093069
H87   H     H_    0.847020 0.211807 0.842212 0.097169
H88   H     H_    0.686207 0.239760 0.681517 0.260156
H89   H     H_    0.144969 0.664189 0.856445 0.142137
H90   H     H_    0.770207 0.237946 0.647930 0.211000
H91   H     H_    0.684821 0.184082 0.601518 0.252255
H92   H     H_    0.148384 0.123431 0.263660 0.110566
H93   H     H_    0.077701 0.182762 0.184825 0.098037
H94   H     H_    0.203247 0.242404 0.330954 0.261991
H95   H     H_    0.160519 0.195796 0.385264 0.205218
H96   H     H_    0.273564 0.183537 0.409212 0.261806
N1    N     N_R   0.395440 0.396300 0.944370 -0.035167
N2    N     N_R   0.474910 0.470990 0.794360 -0.048942
N3    N     N_R   0.025090 0.970990 0.205640 -0.045784
N4    N     N_R   0.974910 0.970990 0.794360 -0.049245
N5    N     N_R   0.320240 0.527820 0.794510 -0.049348
N6    N     N_R   0.679760 0.527820 0.205490 -0.047960
N7    N     N_R   0.820240 0.027820 0.794510 -0.050074
N8    N     N_R   0.179760 0.027820 0.205490 -0.049303
N9    N     N_R   0.524580 0.527810 0.205160 -0.044754
N10   N     N_R   0.475420 0.527810 0.794840 -0.038699
N11   N     N_R   0.024580 0.027810 0.205160 -0.038675
N12   N     N_R   0.604560 0.396300 0.055630 -0.037271
N13   N     N_R   0.975420 0.027810 0.794840 -0.042507
N14   N     N_R   0.320750 0.470990 0.794990 -0.044475
N15   N     N_R   0.679250 0.470990 0.205010 -0.046482
N16   N     N_R   0.820750 0.970990 0.794990 -0.044734
N17   N     N_R   0.179250 0.970990 0.205010 -0.043195
N18   N     N_R   0.393580 0.602500 0.942610 -0.102880
N19   N     N_R   0.606420 0.602500 0.057390 -0.097795
N20   N     N_R   0.893580 0.102500 0.942610 -0.104841
N21   N     N_R   0.106420 0.102500 0.057390 -0.099525
N22   N     N_R   0.451750 0.396300 0.057540 -0.038279
N23   N     N_R   0.895440 0.896300 0.944370 -0.037368
N24   N     N_R   0.548250 0.396300 0.942460 -0.038081
N25   N     N_R   0.951750 0.896300 0.057540 -0.037778
N26   N     N_R   0.048250 0.896300 0.942460 -0.037405
N27   N     N_R   0.104560 0.896300 0.055630 -0.037082
N28   N     N_R   0.449890 0.602500 0.055780 -0.069755
N29   N     N_R   0.550110 0.602500 0.944220 -0.063188
N30   N     N_R   0.949890 0.102500 0.055780 -0.080016
N31   N     N_R   0.050110 0.102500 0.944220 -0.058198
N32   N     N_R   0.525090 0.470990 0.205640 -0.053483
Ni1   Ni    Ni4+2 0.435420 0.434250 0.870220 0.210874
Ni2   Ni    Ni4+2 0.564580 0.434250 0.129780 0.206641
Ni3   Ni    Ni4+2 0.935420 0.934250 0.870220 0.207917
Ni4   Ni    Ni4+2 0.064580 0.934250 0.129780 0.214038
Ni5   Ni    Ni4+2 0.563400 0.564580 0.128670 0.199341
Ni6   Ni    Ni4+2 0.436600 0.564580 0.871330 0.196179
Ni7   Ni    Ni4+2 0.063400 0.064580 0.128670 0.195799
Ni8   Ni    Ni4+2 0.936600 0.064580 0.871330 0.193934
O1    O     O_3   0.353166 0.408926 0.290294 -0.653053
O2    O     O_3   0.373578 0.400849 0.489149 -0.640483
O3    O     O_3   0.113678 0.898139 0.503612 -0.623034
O4    O     O_3   0.143205 0.903637 0.703417 -0.641308
O5    O     O_3   0.267018 0.659872 0.800769 -0.654482
O6    O     O_3   0.704773 0.669623 0.197114 -0.667931
O7    O     O_3   0.750200 0.149922 0.803001 -0.668041
O8    O     O_3   0.202810 0.170132 0.198450 -0.660650

loop_
_geom_bond_atom_site_label_1
_geom_bond_atom_site_label_2
_ccdc_geom_bond_type
C40   C47   A    
C8    O7    S    
C20   C25   D    
N22   Ni2   S    
C20   H47   S    
C81   H32   S    
C17   C88   A    
C67   O1    S    
C36   C99   S    
C42   H51   S    
C27   H89   S    
C5    H77   S    
C65   C90   A    
C37   C97   S    
N18   Ni6   S    
C9    H88   S    
C48   C57   A    
C17   C79   A    
C74   N4    A    
C53   C54   S    
C9    H90   S    
C94   H41   S    
N24   Ni1   S    
C49   H18   S    
C90   O6    S    
C21   H12   S    
C33   H6    S    
N12   N24   A    
C89   O5    S    
C62   C67   A    
C8    H87   S    
C51   N30   A    
C56   C76   S    
N5    N14   A    
N15   Ni2   S    
C14   C84   A    
C85   H37   S    
C4    O5    S    
C52   H21   S    
C38   C101  S    
C69   C70   A    
C102  H53   S    
C12   C64   S    
C75   H27   S    
C107  H68   S    
C84   H36   S    
C49   C54   A    
C30   C57   A    
C58   C63   A    
C46   H10   S    
C93   H40   S    
C18   C19   S    
C14   C24   S    
C60   H16   S    
C31   H5    S    
N20   N30   A    
C103  H55   S    
N19   N29   A    
C1    H1    S    
C62   C98   S    
C37   C41   A    
C93   N22   A    
C106  H65   S    
C28   C35   A    
C8    C9    S    
C46   C55   A    
C60   C66   A    
N16   Ni3   S    
C8    H86   S    
C77   H28   S    
C96   N26   A    
C106  O3    S    
C7    H85   S    
N9    N32   A    
C1    N1    A    
C16   C78   A    
C18   H44   S    
C94   N24   A    
N30   Ni7   S    
C15   C85   A    
N2    N10   A    
C47   H11   S    
C73   N3    A    
N18   N28   A    
C87   C92   A    
C107  H69   S    
C16   C86   A    
C7    H83   S    
N26   Ni3   S    
N26   N27   A    
C102  O1    S    
C82   H33   S    
C2    C72   A    
C86   H38   S    
N4    Ni3   S    
C104  C105  S    
C55   C65   S    
C28   C55   A    
C44   C46   A    
C72   H24   S    
C6    C7    S    
C22   H48   S    
N8    N17   A    
C92   O8    S    
C27   C34   A    
C59   H15   S    
C79   N8    A    
C71   C98   A    
C58   H14   S    
C105  H62   S    
C6    O6    S    
N17   Ni4   S    
C108  H70   S    
C67   C68   A    
N21   N31   A    
C40   H49   S    
C36   C40   A    
C96   C101  A    
C51   C76   A    
C54   C89   A    
C10   C11   S    
C1    C97   A    
C89   N18   A    
C21   C99   A    
C95   C100  A    
N20   Ni8   S    
C91   O7    S    
C28   H2    S    
C34   H7    S    
C71   N32   A    
C43   N27   A    
C33   C37   A    
N6    N15   A    
C57   C87   S    
C108  H71   S    
C30   H4    S    
C60   C61   A    
C11   H94   S    
C35   H8    S    
C61   C64   A    
C35   C39   A    
C3    H72   S    
C43   C101  A    
C24   H56   S    
C104  H60   S    
C25   H67   S    
C13   C66   S    
C81   N10   A    
C96   H43   S    
C32   N23   A    
N7    N16   A    
C102  H54   S    
N23   Ni3   S    
C6    H82   S    
N3    N11   A    
C21   N12   A    
C12   C82   A    
N1    N22   A    
C95   H42   S    
C86   N16   A    
C64   C69   A    
C4    H76   S    
N25   Ni4   S    
N1    Ni1   S    
C3    H73   S    
C39   C44   A    
C105  H61   S    
N3    Ni4   S    
C103  H58   S    
C77   N6    A    
N23   N25   A    
C68   O2    S    
C20   C22   S    
C92   N21   A    
C11   H95   S    
C104  O2    S    
C23   H45   S    
C22   C26   D    
C44   H52   S    
C7    H84   S    
C69   O3    S    
C51   H20   S    
C50   N29   A    
C78   H29   S    
C93   C97   A    
C48   H13   S    
C2    C63   S    
C45   H9    S    
N4    N13   A    
C108  O4    S    
C63   C68   A    
C75   N5    A    
C59   C62   A    
C105  H63   S    
C30   C33   A    
C80   C98   A    
C34   C38   A    
C106  H64   S    
N7    Ni8   S    
C29   H3    S    
C52   C87   A    
C50   C65   A    
N21   Ni7   S    
C95   N25   A    
N6    Ni5   S    
C73   H25   S    
C4    C5    S    
C2    C81   A    
C16   C26   S    
C10   H92   S    
N5    Ni6   S    
C72   N2    A    
C27   C53   A    
C103  H57   S    
C80   N9    A    
C84   N14   A    
C29   C56   A    
C3    C108  S    
N8    Ni7   S    
C80   H31   S    
C13   C83   A    
N11   Ni7   S    
C5    H80   S    
N10   Ni6   S    
C17   C25   S    
C14   C75   A    
C49   N28   A    
N9    Ni5   S    
C19   C24   D    
C58   C59   A    
N13   Ni8   S    
N12   Ni2   S    
N28   Ni5   S    
C29   C31   A    
C104  H59   S    
C83   H35   S    
C82   N11   A    
C26   H78   S    
C39   C100  S    
C15   C77   A    
C94   C99   A    
N19   Ni5   S    
C18   C23   D    
C83   N13   A    
C74   H26   S    
C6    H81   S    
C15   C23   S    
C88   H39   S    
N32   Ni2   S    
C3    H74   S    
N2    Ni1   S    
C10   O8    S    
C11   H96   S    
C4    H75   S    
C85   N15   A    
C102  C103  S    
C10   H93   S    
N31   Ni8   S    
C41   C48   A    
C76   C91   A    
C45   C53   A    
C41   H50   S    
C107  H66   S    
C38   C42   A    
C32   C100  A    
N29   Ni6   S    
C90   N19   A    
C79   H30   S    
C66   C70   A    
C13   C74   A    
C106  C107  S    
C88   N17   A    
C19   H46   S    
C5    H79   S    
C31   C36   A    
N27   Ni4   S    
C43   H34   S    
C61   H17   S    
C50   H19   S    
N14   Ni1   S    
C91   N20   A    
C12   C73   A    
C78   N7    A    
C42   C45   A    
C32   H23   S    
C9    H91   S    
C52   N31   A    
C70   O4    S    
C47   C56   A    
C71   H22   S    
