data_mof_unit_54911.cif
_audit_creation_date              2012-10-26T19:55:52-0400
_audit_creation_method            fapswitch 2.2
_symmetry_space_group_name_H-M    P1
_symmetry_Int_Tables_number       1
_space_group_crystal_system       triclinic
_cell_length_a                    10.87858
_cell_length_b                    10.761382
_cell_length_c                    9.74476
_cell_angle_alpha                 88.649623
_cell_angle_beta                  90.885615
_cell_angle_gamma                 92.65322
_cell_volume                      1139.14766633

loop_
_atom_site_label
_atom_site_type_symbol
_atom_type_description
_atom_site_fract_x
_atom_site_fract_y
_atom_site_fract_z
_atom_type_partial_charge
C1    C     C_R   0.501569 0.263512 0.501582 0.506694
C2    C     C_R   0.845928 0.504389 0.988678 0.089586
C3    C     C_R   0.763018 0.401786 0.010773 -0.005522
C4    C     C_R   0.262299 0.492362 0.498846 0.564344
C5    C     C_R   0.744799 0.310580 0.911881 0.239860
C6    C     C_R   0.806258 0.325498 0.786699 -0.065232
C7    C     C_R   0.882561 0.432049 0.761489 0.006903
C8    C     C_R   0.279716 0.126938 0.582630 -0.078661
C9    C     C_R   0.170886 0.061945 0.617727 0.054369
C10   C     C_R   0.161988 0.933204 0.605252 -0.061103
C11   C     C_R   0.260849 0.869139 0.557084 0.217932
C12   C     C_R   0.198579 0.587646 0.983408 0.246173
C13   C     C_R   0.376539 0.932471 0.531182 0.006495
C14   C     C_R   0.383514 0.063848 0.540473 -0.036206
C15   C     C_R   0.494064 0.129704 0.505606 0.016464
C16   C     C_R   0.494285 0.736843 0.498968 0.567454
C17   C     C_R   0.599105 0.068051 0.473570 -0.131790
C18   C     C_R   0.595734 0.939729 0.474078 -0.146782
C19   C     C_R   0.485768 0.871307 0.497513 0.008858
C20   C     C_R   0.617711 0.698143 0.141145 -0.115092
C21   C     C_R   0.652897 0.809286 0.072608 0.180147
C22   C     C_R   0.650267 0.812163 0.931618 -0.092260
C23   C     C_R   0.930514 0.432568 0.383151 0.079781
C24   C     C_R   0.625646 0.701910 0.860730 0.228413
C25   C     C_R   0.557377 0.599726 0.925017 0.186594
C26   C     C_R   0.554986 0.599354 0.073372 0.066348
C27   C     C_R   0.448873 0.404575 0.074768 0.017177
C28   C     C_R   0.735984 0.484525 0.501560 0.540783
C29   C     C_R   0.448672 0.404732 0.927988 0.036819
C30   C     C_R   0.175713 0.673494 0.085352 -0.096326
C31   C     C_R   0.128569 0.632049 0.211447 -0.076840
C32   C     C_R   0.106499 0.504413 0.239218 0.099324
C33   C     C_R   0.129515 0.418627 0.137932 -0.098212
C34   C     C_R   0.868982 0.455997 0.504887 -0.005725
C35   C     C_R   0.173047 0.460483 0.010086 -0.065004
C36   C     C_R   0.939001 0.453556 0.627457 -0.040001
C37   C     C_R   0.066867 0.462051 0.622305 -0.109975
C38   C     C_R   0.126892 0.477173 0.497011 -0.003406
C39   C     C_R   0.056714 0.464562 0.374309 0.001063
C40   C     C_R   0.904172 0.519288 0.863271 -0.043995
Cu1   Cu    Cu3+1 0.499990 0.499990 0.640660 1.036812
Cu2   Cu    Cu3+1 0.500010 0.500010 0.359340 0.921438
H1    H     H_    0.711603 0.392278 0.104334 0.174018
H2    H     H_    0.691608 0.893352 0.879285 0.133735
H3    H     H_    0.405516 0.326320 0.875565 0.119166
H4    H     H_    0.106538 0.699654 0.286631 0.120237
H5    H     H_    0.114434 0.319782 0.157551 0.097980
H6    H     H_    0.189098 0.393114 0.932540 0.103485
H7    H     H_    0.119070 0.458323 0.717176 0.178506
H8    H     H_    0.964502 0.600599 0.843983 0.147277
H9    H     H_    0.258216 0.716957 0.855465 0.331062
H10   H     H_    0.661886 0.154982 0.859108 0.323015
H11   H     H_    0.994522 0.110134 0.594288 0.224115
H12   H     H_    0.792056 0.256910 0.707619 0.082910
H13   H     H_    0.042935 0.093335 0.759006 0.232695
H14   H     H_    0.270149 0.736483 0.434569 0.317249
H15   H     H_    0.721097 0.886254 0.236165 0.315474
H16   H     H_    0.738096 0.764167 0.716806 0.290963
H17   H     H_    0.789771 0.316506 0.315245 0.237172
H18   H     H_    0.926274 0.282439 0.263279 0.224927
H19   H     H_    0.857789 0.681611 0.053625 0.232918
H20   H     H_    0.819903 0.575489 0.178105 0.262133
H21   H     H_    0.684778 0.119599 0.451427 0.105357
H22   H     H_    0.281975 0.227110 0.590064 0.145987
H23   H     H_    0.075556 0.882962 0.626907 0.132583
H24   H     H_    0.680223 0.892958 0.458508 0.088777
H25   H     H_    0.405520 0.326062 0.129353 0.131046
H26   H     H_    0.192684 0.772324 0.066652 0.093290
H27   H     H_    0.653523 0.686196 0.242875 0.172004
N1    N     N_R   0.501190 0.501210 0.147910 -0.255976
N2    N     N_R   0.501230 0.501290 0.852040 -0.204440
N3    N     N_3   0.068273 0.128443 0.662040 -0.654378
N4    N     N_3   0.871891 0.358266 0.278639 -0.618715
N5    N     N_3   0.874899 0.592937 0.092806 -0.627396
O1    O     O_R   0.499990 0.319640 0.618810 -0.531668
O2    O     O_3   0.665741 0.209560 0.939831 -0.689914
O3    O     O_3   0.237464 0.747013 0.527528 -0.696909
O4    O     O_3   0.708185 0.909530 0.138564 -0.675205
O5    O     O_3   0.692078 0.685999 0.744511 -0.656125
O6    O     O_R   0.500000 0.319660 0.381240 -0.506581
O7    O     O_R   0.319640 0.500000 0.618780 -0.445380
O8    O     O_R   0.319650 0.500020 0.381210 -0.512228
O9    O     O_R   0.500000 0.680340 0.618760 -0.416987
O10   O     O_R   0.500010 0.680360 0.381190 -0.532325
O11   O     O_R   0.680350 0.499980 0.618790 -0.428489
O12   O     O_R   0.680360 0.500000 0.381220 -0.534581
O13   O     O_3   0.244693 0.625163 0.857410 -0.678480

loop_
_geom_bond_atom_site_label_1
_geom_bond_atom_site_label_2
_ccdc_geom_bond_type
Cu2   O6    S    
C27   C29   A    
C7    C36   S    
H18   N4    S    
Cu2   O8    S    
C9    N3    S    
C16   O10   A    
C33   H5    S    
C3    H1    S    
C5    C6    A    
C36   C37   A    
C6    H12   S    
C30   C31   A    
C23   C39   A    
Cu1   O9    S    
Cu2   O12   S    
Cu2   N1    S    
C18   C19   A    
Cu1   Cu2   S    
C32   C39   S    
C11   O3    S    
C22   H2    S    
C4    O7    A    
C8    C9    A    
C31   H4    S    
C21   O4    S    
C7    C40   A    
C25   N2    A    
C9    C10   A    
H17   N4    S    
H13   N3    S    
C2    N5    S    
Cu1   N2    S    
C28   C34   S    
C13   C14   A    
C23   N4    S    
C35   H6    S    
C13   C19   A    
C1    O1    A    
Cu2   O10   S    
C24   C25   A    
H9    O13   S    
H10   O2    S    
C25   C26   A    
C16   O9    A    
H14   O3    S    
C29   H3    S    
C37   C38   A    
Cu1   O1    S    
C37   H7    S    
C24   O5    S    
C31   C32   A    
C23   C34   A    
Cu1   O7    S    
C17   C18   A    
C12   C35   A    
C27   N1    A    
H16   O5    S    
C8    H22   S    
C1    C15   S    
C4    C38   S    
C28   O12   A    
C26   N1    A    
C22   C24   A    
C20   H27   S    
C10   H23   S    
C15   C17   A    
C8    C14   A    
C12   O13   S    
C12   C30   A    
H15   O4    S    
C3    C5    A    
C6    C7    A    
H19   N5    S    
C18   H24   S    
Cu1   O11   S    
C32   C33   A    
C5    O2    S    
C2    C3    A    
C17   H21   S    
C11   C13   A    
C38   C39   A    
C20   C26   A    
C16   C19   S    
C40   H8    S    
C33   C35   A    
C34   C36   A    
C27   H25   S    
C10   C11   A    
C2    C40   A    
C4    O8    A    
C20   C21   A    
C28   O11   A    
C1    O6    A    
C14   C15   A    
H20   N5    S    
C21   C22   A    
H11   N3    S    
C30   H26   S    
C29   N2    A    
