data_mof_unit_16636.cif
_audit_creation_date              2012-12-11T15:41:25-0500
_audit_creation_method            fapswitch 2.2
_symmetry_space_group_name_H-M    P1
_symmetry_Int_Tables_number       1
_space_group_crystal_system       triclinic
_cell_length_a                    14.832096
_cell_length_b                    14.763723
_cell_length_c                    14.802235
_cell_angle_alpha                 109.180682
_cell_angle_beta                  109.570333
_cell_angle_gamma                 109.417166
_cell_volume                      2502.69989168

loop_
_atom_site_label
_atom_site_type_symbol
_atom_type_description
_atom_site_fract_x
_atom_site_fract_y
_atom_site_fract_z
_atom_type_partial_charge
C1    C     C_R   0.252723 0.067675 0.977953 -0.100762
C2    C     C_R   0.893857 0.702665 0.952866 -0.288460
C3    C     C_R   0.381962 0.197543 0.663173 -0.143207
C4    C     C_R   0.806088 0.640165 0.961626 -0.192303
C5    C     C_R   0.342119 0.263951 0.708398 0.207261
C6    C     C_R   0.709761 0.649200 0.931072 0.232211
C7    C     C_R   0.227407 0.222350 0.658953 -0.230727
C8    C     C_R   0.703544 0.719743 0.886518 -0.186797
C9    C     C_R   0.154597 0.117359 0.565923 -0.108826
C10   C     C_R   0.791706 0.782714 0.878737 -0.151254
C11   C     C_R   0.194512 0.051995 0.520373 0.586246
C12   C     C_R   0.807060 0.009200 0.098857 -0.106706
C13   C     C_R   0.887126 0.774549 0.911264 0.601902
C14   C     C_R   0.417869 0.471836 0.809563 0.449877
C15   C     C_R   0.608941 0.497122 0.965047 0.449688
C16   C     C_R   0.748497 0.222996 0.315146 -0.113696
C17   C     C_R   0.195613 0.791995 0.699823 -0.016341
C18   C     C_R   0.511197 0.575371 0.890143 -0.045054
C19   C     C_R   0.510624 0.392861 0.901053 -0.068190
C20   C     C_R   0.612070 0.578165 0.934904 -0.130498
C21   C     C_R   0.421722 0.375966 0.807479 -0.231495
C22   C     C_R   0.871025 0.531102 0.429202 -0.128130
C23   C     C_R   0.773796 0.326748 0.325928 0.042201
C24   C     C_R   0.961095 0.524624 0.623794 -0.142430
C25   C     C_R   0.962874 0.624751 0.522927 -0.100709
C26   C     C_R   0.869245 0.430952 0.529943 -0.146567
C27   C     C_R   0.014968 0.618170 0.617088 0.114940
C28   C     C_R   0.832229 0.430716 0.429381 0.117505
C29   C     C_R   0.597132 0.927186 0.568062 -0.311426
C30   C     C_R   0.401761 0.826909 0.372098 -0.317290
C31   C     C_R   0.600595 0.917349 0.472695 0.566925
C32   C     C_R   0.398419 0.823116 0.463680 0.549204
C33   C     C_R   0.502833 0.886200 0.379807 -0.126934
C34   C     C_R   0.130877 0.698778 0.698327 0.048488
C35   C     C_R   0.496516 0.892849 0.567174 -0.125662
C36   C     C_R   0.135028 0.066501 0.170586 0.558073
C37   C     C_R   0.048364 0.174518 0.073527 0.569379
C38   C     C_R   0.040689 0.068104 0.167969 -0.409464
C39   C     C_R   0.140133 0.168850 0.072374 -0.402100
C40   C     C_R   0.410283 0.899721 0.207737 -0.114196
C41   C     C_R   0.590587 0.022623 0.775633 -0.146252
C42   C     C_R   0.989445 0.109849 0.107717 0.024389
C43   C     C_R   0.173353 0.101909 0.106636 0.053150
C44   C     C_R   0.592364 0.299851 0.994203 -0.153001
C45   C     C_R   0.502469 0.926644 0.300454 0.135393
C46   C     C_R   0.410359 0.685217 0.928756 -0.165044
C47   C     C_R   0.592260 0.995305 0.300323 -0.117789
C48   C     C_R   0.406760 0.935956 0.684296 -0.074892
C49   C     C_R   0.410902 0.214151 0.909033 0.468513
C50   C     C_R   0.592894 0.776606 0.031891 0.480084
C51   C     C_R   0.748155 0.315404 0.222205 -0.103819
C52   C     C_R   0.195170 0.699959 0.791652 -0.112886
C53   C     C_R   0.253149 0.973735 0.068405 -0.124783
C54   C     C_R   0.804249 0.097135 0.003852 -0.115611
C55   C     C_R   0.229016 0.053707 0.057544 0.117377
C56   C     C_R   0.497333 0.944908 0.671605 0.124101
C57   C     C_R   0.871497 0.072392 0.069725 0.099963
C58   C     C_R   0.503167 0.307905 0.936052 0.005546
C59   C     C_R   0.504165 0.674507 0.945535 0.038804
C60   C     C_R   0.309052 0.092628 0.569977 -0.286349
H1    H     H_    0.240646 0.121305 0.947315 0.163037
H2    H     H_    0.784856 0.836745 0.845210 0.156393
H3    H     H_    0.839198 0.535690 0.354608 0.139129
H4    H     H_    0.995095 0.518924 0.697349 0.115879
H5    H     H_    0.998266 0.697818 0.516793 0.142692
H6    H     H_    0.835849 0.356580 0.534670 0.123690
H7    H     H_    0.673741 0.963473 0.642965 0.193510
H8    H     H_    0.324708 0.784716 0.295942 0.189308
H9    H     H_    0.759062 0.200902 0.378942 0.107829
H10   H     H_    0.168525 0.826147 0.648862 0.105489
H11   H     H_    0.004227 0.029308 0.206613 0.163060
H12   H     H_    0.837791 0.992339 0.164592 0.127909
H13   H     H_    0.179270 0.209893 0.036614 0.145358
H14   H     H_    0.326367 0.836954 0.173372 0.098072
H15   H     H_    0.675719 0.051851 0.797077 0.113097
H16   H     H_    0.675605 0.344772 0.011031 0.177667
H17   H     H_    0.325822 0.621488 0.869615 0.184926
H18   H     H_    0.677659 0.025959 0.353311 0.184593
H19   H     H_    0.321322 0.889433 0.622316 0.172838
H20   H     H_    0.757700 0.378673 0.199163 0.124416
H21   H     H_    0.167708 0.648591 0.825259 0.087632
H22   H     H_    0.243223 0.937994 0.119418 0.172402
H23   H     H_    0.341883 0.043281 0.536540 0.131281
H24   H     H_    0.827570 0.155835 0.976591 0.175999
H25   H     H_    0.301187 0.405142 0.660018 0.329798
H26   H     H_    0.741801 0.604037 0.107592 0.354693
H27   H     H_    0.843846 0.885984 0.544779 0.381946
H28   H     H_    0.158738 0.548467 0.312761 0.382555
H29   H     H_    0.148696 0.005861 0.270132 0.336395
H30   H     H_    0.065063 0.278111 0.017542 0.328705
H31   H     H_    0.296261 0.247415 0.862536 0.310944
H32   H     H_    0.724435 0.859953 0.172076 0.336727
H33   H     H_    0.161273 0.915723 0.403818 0.341920
H34   H     H_    0.966438 0.693663 0.977045 0.134157
H35   H     H_    0.029320 0.815657 0.919781 0.305766
H36   H     H_    0.469784 0.227336 0.699738 0.128143
H37   H     H_    0.813928 0.582874 0.989629 0.170422
H38   H     H_    0.194169 0.270360 0.693697 0.169437
H39   H     H_    0.630015 0.726012 0.855835 0.141642
H40   H     H_    0.066626 0.086607 0.529075 0.167461
N1    N     N_R   0.293810 0.002730 0.945950 -0.042740
N2    N     N_R   0.443210 0.997250 0.791090 -0.058163
N3    N     N_R   0.443180 0.152110 0.945950 -0.077297
N4    N     N_R   0.556820 0.847890 0.054050 -0.101481
N5    N     N_R   0.706170 0.208950 0.152090 -0.041797
N6    N     N_R   0.293830 0.791050 0.847910 -0.043227
N7    N     N_R   0.293800 0.945910 0.002760 -0.063659
N8    N     N_R   0.706200 0.054090 0.997240 -0.057326
N9    N     N_R   0.706190 0.997270 0.054050 -0.057545
N10   N     N_R   0.706160 0.152130 0.208910 -0.044503
N11   N     N_R   0.293840 0.847870 0.791090 -0.045913
N12   N     N_R   0.443140 0.945920 0.152090 -0.047646
N13   N     N_R   0.556860 0.054080 0.847910 -0.053532
N14   N     N_R   0.556830 0.208940 0.002760 -0.085897
N15   N     N_R   0.443170 0.791060 0.997240 -0.075374
N16   N     N_R   0.556790 0.002750 0.208910 -0.057242
Ni1   Ni    Ni4+2 0.369690 0.999990 0.869700 0.267362
Ni2   Ni    Ni4+2 0.630310 0.000010 0.130300 0.230722
Ni3   Ni    Ni4+2 0.369670 0.869670 0.000000 0.207299
Ni4   Ni    Ni4+2 0.630330 0.130330 0.000000 0.211381
O1    O     O_3   0.330362 0.468128 0.732944 -0.757528
O2    O     O_3   0.013612 0.238287 0.037567 -0.781919
O3    O     O_3   0.302603 0.179740 0.843195 -0.778782
O4    O     O_3   0.695059 0.796127 0.099427 -0.757059
O5    O     O_3   0.119948 0.949372 0.427964 -0.748965
O6    O     O_3   0.970719 0.835321 0.898769 -0.762507
O7    O     O_3   0.693978 0.522527 0.061922 -0.774386
O8    O     O_2   0.698982 0.865359 0.355670 -0.307818
O9    O     O_2   0.806583 0.047829 0.524124 -0.345256
O10   O     O_3   0.774556 0.874649 0.545744 -0.508642
O11   O     O_2   0.299363 0.694375 0.533589 -0.290315
O12   O     O_2   0.190719 0.753681 0.425240 -0.349384
O13   O     O_3   0.227531 0.602895 0.322968 -0.509080
O14   O     O_3   0.186541 0.026429 0.230228 -0.790225
S1    S     S_3+6 0.722712 0.928191 0.471583 -0.059707
S2    S     S_3+6 0.276392 0.718564 0.439792 -0.060334

loop_
_geom_bond_atom_site_label_1
_geom_bond_atom_site_label_2
_ccdc_geom_bond_type
N1    N7    A    
N5    N10   A    
C50   N4    A    
C7    H38   S    
C46   C59   A    
C33   C45   S    
C14   C18   A    
O10   S1    S    
C24   C27   A    
C48   C56   A    
C9    H40   S    
N10   Ni2   S    
C54   H24   S    
C16   N10   A    
C40   N12   A    
N3    Ni1   S    
C15   C19   A    
C46   N15   A    
C50   C59   A    
C48   H19   S    
C19   C21   A    
C8    H39   S    
C24   C26   A    
H28   O13   S    
C38   C42   A    
H32   O4    S    
N6    Ni3   S    
C60   H23   S    
C49   O3    S    
N8    N9    A    
C15   C20   A    
C37   C42   A    
C44   H16   S    
C2    C13   A    
N8    Ni4   S    
C51   H20   S    
C22   H3    S    
O9    S1    D    
C44   C58   A    
C22   C25   A    
O13   S2    S    
C31   C33   A    
N5    Ni4   S    
H25   O1    S    
C3    H36   S    
O12   S2    D    
C3    C60   A    
C45   C47   A    
H26   O7    S    
C44   N14   A    
C17   H10   S    
C27   C34   S    
C14   O1    S    
H31   O3    S    
C4    H37   S    
H30   O2    S    
C10   H2    S    
C17   N11   A    
C42   C57   S    
N7    Ni3   S    
C12   N9    A    
C22   C28   A    
N9    Ni2   S    
N4    Ni2   S    
N6    N11   A    
C53   C55   A    
C19   C58   S    
C47   N16   A    
C37   C39   A    
C26   H6    S    
C32   C35   A    
C2    H34   S    
N3    N14   A    
C50   O4    S    
C31   S1    S    
O11   S2    D    
O8    S1    D    
C5    C7    A    
C39   C43   A    
C52   N6    A    
C49   C58   A    
C1    H1    S    
C53   H22   S    
C2    C4    A    
C41   C56   A    
C41   H15   S    
N4    N15   A    
C53   N7    A    
C23   C51   A    
C51   N5    A    
C48   N2    A    
C25   H5    S    
N14   Ni4   S    
C23   C28   S    
C9    C11   A    
N2    Ni1   S    
N16   Ni2   S    
C13   O6    S    
C4    C6    A    
C16   C23   A    
N15   Ni3   S    
C17   C34   A    
C12   C57   A    
C11   C60   A    
C1    N1    A    
N12   N16   A    
H27   O10   S    
C32   S2    S    
C43   C55   S    
C7    C9    A    
C38   H11   S    
H29   O14   S    
C30   C33   A    
C11   O5    S    
C35   C56   S    
C34   C52   A    
C8    C10   A    
C16   H9    S    
C41   N13   A    
C3    C5    A    
C10   C13   A    
C36   O14   S    
C49   N3    A    
N12   Ni3   S    
C6    C8    A    
C25   C27   A    
C46   H17   S    
C6    C20   S    
C29   C35   A    
C26   C28   A    
C54   N8    A    
N11   Ni1   S    
N1    Ni1   S    
C36   C38   A    
C1    C55   A    
C29   C31   A    
N2    N13   A    
C29   H7    S    
C30   C32   A    
H35   O6    S    
N13   Ni4   S    
C40   H14   S    
C18   C20   A    
C39   H13   S    
C12   H12   S    
C52   H21   S    
H33   O5    S    
C14   C21   A    
C37   O2    S    
C18   C59   S    
C5    C21   S    
C40   C45   A    
C24   H4    S    
C36   C43   A    
C15   O7    S    
C47   H18   S    
C30   H8    S    
C54   C57   A    
