data_mof_unit_31503.cif
_audit_creation_date              2012-12-10T17:31:54-0500
_audit_creation_method            fapswitch 2.2
_symmetry_space_group_name_H-M    P1
_symmetry_Int_Tables_number       1
_space_group_crystal_system       triclinic
_cell_length_a                    12.069307
_cell_length_b                    11.501341
_cell_length_c                    12.889732
_cell_angle_alpha                 91.082145
_cell_angle_beta                  94.351258
_cell_angle_gamma                 87.737037
_cell_volume                      1782.48976069

loop_
_atom_site_label
_atom_site_type_symbol
_atom_type_description
_atom_site_fract_x
_atom_site_fract_y
_atom_site_fract_z
_atom_type_partial_charge
C1    C     C_R   0.476930 0.502393 0.299533 0.903558
C2    C     C_R   0.522904 0.497662 0.700557 0.899644
C3    C     C_R   0.054336 0.580178 0.616632 -0.324559
C4    C     C_R   0.944660 0.425187 0.378930 -0.345182
C5    C     C_R   0.167444 0.579149 0.601660 -0.095068
C6    C     C_R   0.831335 0.426503 0.394837 -0.080626
C7    C     C_R   0.139716 0.457565 0.451118 0.574380
C8    C     C_R   0.862930 0.538079 0.550228 0.557494
C9    C     C_R   0.021568 0.469567 0.456083 -0.087419
C10   C     C_R   0.979447 0.529375 0.541920 -0.036961
C11   C     C_R   0.499216 0.282240 0.501043 0.888644
C12   C     C_R   0.501265 0.717766 0.500132 0.881233
C13   C     C_1   0.498911 0.161744 0.503214 -0.218075
C14   C     C_1   0.503764 0.838189 0.501520 -0.211356
C15   C     C_1   0.500908 0.059351 0.503774 -0.001567
C16   C     C_1   0.503349 0.940544 0.502907 -0.007952
C17   C     C_R   0.537880 0.495422 0.812792 -0.161737
C18   C     C_R   0.461270 0.504058 0.187465 -0.167045
C19   C     C_R   0.354725 0.466027 0.025420 -0.318844
C20   C     C_R   0.644711 0.530763 0.975304 -0.307868
C21   C     C_R   0.358226 0.480943 0.133218 0.485171
C22   C     C_R   0.640289 0.519473 0.867379 0.465097
C23   C     C_R   0.554807 0.524361 0.134016 -0.330942
C24   C     C_R   0.444611 0.473068 0.866170 -0.325479
C25   C     C_R   0.549872 0.513490 0.027519 0.124976
C26   C     C_R   0.449510 0.483321 0.972906 0.126277
H1    H     H_    0.366575 0.450746 0.824552 0.183568
H2    H     H_    0.633039 0.546407 0.175432 0.179931
H3    H     H_    0.278706 0.439589 0.983103 0.146390
H4    H     H_    0.721571 0.554671 0.017868 0.141890
H5    H     H_    0.773939 0.388298 0.336595 0.162589
H6    H     H_    0.223905 0.621972 0.657856 0.163966
H7    H     H_    0.026392 0.621927 0.686053 0.188882
H8    H     H_    0.970272 0.390259 0.305974 0.158674
N1    N     N_R   0.792200 0.479100 0.480660 -0.140810
N2    N     N_R   0.207800 0.520900 0.519340 -0.133451
O1    O     O_R   0.578300 0.494420 0.341180 -0.645170
O2    O     O_R   0.421700 0.505580 0.658820 -0.642325
O3    O     O_R   0.390690 0.507830 0.353590 -0.547791
O4    O     O_R   0.609310 0.492170 0.646410 -0.550485
O5    O     O_R   0.593810 0.327740 0.493800 -0.611944
O6    O     O_R   0.406190 0.672260 0.506200 -0.616169
O7    O     O_R   0.406190 0.341150 0.506220 -0.599921
O8    O     O_R   0.593810 0.658850 0.493780 -0.638517
Zn1   Zn    Zn3+2 0.625270 0.491050 0.491710 0.962207
Zn2   Zn    Zn3+2 0.374730 0.508950 0.508290 0.975054
O9    O     O_3   0.731823 0.544905 0.814916 -0.602289
C27   C     C_3   0.820268 0.462134 0.836765 0.165541
H9    H     H_    0.838831 0.418663 0.761991 0.179937
H10   H     H_    0.801846 0.391468 0.890548 0.084255
C28   C     C_3   0.922901 0.524987 0.881778 -0.340507
H11   H     H_    0.933318 0.604122 0.836172 0.242555
H12   H     H_    0.911422 0.553042 0.963329 0.194491
C29   C     C_3   0.027977 0.447147 0.879582 -1.002884
H13   H     H_    0.023306 0.372005 0.931737 0.267935
H14   H     H_    0.100963 0.498279 0.906314 0.254790
H15   H     H_    0.039472 0.414825 0.799205 0.275634
O10   O     O_3   0.265889 0.458673 0.186400 -0.599516
C30   C     C_3   0.178939 0.542835 0.163069 0.115455
H16   H     H_    0.099903 0.504112 0.181237 0.166232
H17   H     H_    0.168550 0.565674 0.079310 0.108031
C31   C     C_3   0.195133 0.653360 0.230171 -0.321702
H18   H     H_    0.203768 0.630487 0.313711 0.253819
H19   H     H_    0.272167 0.695509 0.211004 0.202683
C32   C     C_3   0.096639 0.739763 0.212220 -0.989242
H20   H     H_    0.086665 0.765568 0.129298 0.266151
H21   H     H_    0.111109 0.818853 0.261363 0.276415
H22   H     H_    0.019000 0.700525 0.233633 0.265437
O11   O     O_3   0.820944 0.603993 0.630308 -0.622665
C33   C     C_3   0.795835 0.720179 0.598358 0.177949
H23   H     H_    0.715104 0.746522 0.629328 0.196065
H24   H     H_    0.786910 0.730844 0.512106 0.118005
C34   C     C_3   0.881271 0.804969 0.645598 -0.448841
H25   H     H_    0.899442 0.787467 0.729775 0.236470
H26   H     H_    0.959168 0.794329 0.605368 0.224166
C35   C     C_3   0.838481 0.931071 0.633055 -0.930921
H27   H     H_    0.819442 0.950825 0.549408 0.266172
H28   H     H_    0.902992 0.990502 0.665815 0.265165
H29   H     H_    0.762194 0.947007 0.675136 0.267369
O12   O     O_3   0.189958 0.386439 0.378027 -0.590290
C36   C     C_3   0.149084 0.271869 0.372070 0.075409
H30   H     H_    0.105431 0.259466 0.293897 0.160791
H31   H     H_    0.091306 0.252895 0.432660 0.113462
C37   C     C_3   0.244887 0.181359 0.382640 -0.282713
H32   H     H_    0.313028 0.206501 0.335170 0.246716
H33   H     H_    0.275605 0.177245 0.465775 0.223414
C38   C     C_3   0.207649 0.060393 0.347895 -0.992811
H34   H     H_    0.139483 0.033326 0.394349 0.265545
H35   H     H_    0.278688 0.996460 0.359521 0.277314
H36   H     H_    0.178392 0.059949 0.264080 0.268645

loop_
_geom_bond_atom_site_label_1
_geom_bond_atom_site_label_2
_ccdc_geom_bond_type
C38   H34   S    
C18   C21   A    
C7    N2    A    
C24   H1    S    
C36   H30   S    
C20   H4    S    
C8    O11   S    
C19   C21   A    
C24   C26   A    
C20   C25   A    
C3    H7    S    
C15   C16   S    
C5    N2    A    
C6    N1    A    
O6    Zn2   S    
C19   C26   A    
C12   O6    A    
C27   C28   S    
C32   H21   S    
C31   H19   S    
C37   C38   S    
N2    Zn2   S    
C33   H23   S    
C9    C10   A    
C1    O1    A    
C5    H6    S    
C27   H10   S    
C6    H5    S    
C30   H16   S    
C2    C17   S    
C34   H26   S    
C36   H31   S    
C29   H14   S    
C34   H25   S    
O4    Zn1   S    
C4    H8    S    
C30   H17   S    
C17   C24   A    
C18   C23   A    
C35   H27   S    
C4    C6    A    
C25   C26   A    
C28   H11   S    
C28   H12   S    
C8    N1    A    
C31   H18   S    
C2    O2    A    
O9    C27   S    
C32   H22   S    
C33   C34   S    
C1    C18   S    
C23   H2    S    
C37   H32   S    
C11   O7    A    
O3    Zn2   S    
C27   H9    S    
C12   C14   S    
C13   C15   T    
C34   C35   S    
C14   C16   T    
C20   C22   A    
O1    Zn1   S    
N1    Zn1   S    
C36   C37   S    
O8    Zn1   S    
C7    C9    A    
C29   H13   S    
C30   C31   S    
C31   C32   S    
C35   H28   S    
O12   C36   S    
C3    C5    A    
C17   C22   A    
C28   C29   S    
C38   H35   S    
O10   C30   S    
C21   O10   S    
C12   O8    A    
C3    C10   A    
C11   C13   S    
C11   O5    A    
C23   C25   A    
O11   C33   S    
O7    Zn2   S    
C22   O9    S    
O2    Zn2   S    
C1    O3    A    
C2    O4    A    
C35   H29   S    
C8    C10   A    
C32   H20   S    
C38   H36   S    
O5    Zn1   S    
C37   H33   S    
C33   H24   S    
C4    C9    A    
C7    O12   S    
C29   H15   S    
C19   H3    S    
