data_mof_unit_11479.cif
_audit_creation_date              2012-12-10T17:28:38-0500
_audit_creation_method            fapswitch 2.2
_symmetry_space_group_name_H-M    P1
_symmetry_Int_Tables_number       1
_space_group_crystal_system       triclinic
_cell_length_a                    10.816099
_cell_length_b                    12.003398
_cell_length_c                    12.712495
_cell_angle_alpha                 91.459907
_cell_angle_beta                  90.202614
_cell_angle_gamma                 84.031786
_cell_volume                      1640.98303414

loop_
_atom_site_label
_atom_site_type_symbol
_atom_type_description
_atom_site_fract_x
_atom_site_fract_y
_atom_site_fract_z
_atom_type_partial_charge
C1    C     C_R   0.477818 0.520955 0.699418 0.924115
C2    C     C_R   0.553416 0.560778 0.125133 -0.088572
C3    C     C_R   0.490303 0.447154 0.977870 0.087176
C4    C     C_R   0.509589 0.552871 0.022115 0.087167
C5    C     C_R   0.415465 0.958585 0.379586 -0.084920
C6    C     C_R   0.584532 0.041415 0.620416 -0.084865
C7    C     C_R   0.416769 0.840565 0.394818 0.363373
C8    C     C_R   0.583230 0.159435 0.605184 0.363391
C9    C     C_R   0.531201 0.856071 0.553767 -0.050978
C10   C     C_R   0.468801 0.143928 0.446232 -0.051000
C11   C     C_R   0.528849 0.974258 0.544275 -0.056503
C12   C     C_R   0.522166 0.479049 0.300574 0.924206
C13   C     C_R   0.471152 0.025742 0.455725 -0.056494
C14   C     C_R   0.740651 0.496564 0.488309 0.887025
C15   C     C_R   0.259354 0.503436 0.511708 0.886983
C16   C     C_R   0.915396 0.286699 0.510076 -0.168285
C17   C     C_R   0.084611 0.713300 0.489960 -0.168222
C18   C     C_R   0.975905 0.202245 0.571654 -0.071236
C19   C     C_R   0.024104 0.797744 0.428367 -0.071303
C20   C     C_R   0.082572 0.226261 0.628985 -0.178144
C21   C     C_R   0.917448 0.773713 0.371029 -0.178100
C22   C     C_R   0.131547 0.328080 0.613239 -0.208496
C23   C     C_R   0.553205 0.465838 0.188399 -0.219755
C24   C     C_R   0.868479 0.671895 0.386783 -0.208474
C25   C     C_R   0.070677 0.411085 0.549458 0.101414
C26   C     C_R   0.929336 0.588908 0.450585 0.101346
C27   C     C_R   0.952559 0.395901 0.510859 0.072914
C28   C     C_R   0.047448 0.604097 0.489189 0.072932
C29   C     C_R   0.123824 0.510012 0.525974 -0.203204
C30   C     C_R   0.876185 0.489986 0.474069 -0.203222
C31   C     C_2   0.853921 0.852224 0.295280 1.016257
C32   C     C_2   0.146108 0.147729 0.704713 1.016124
C33   C     C_2   0.353630 0.013881 0.287755 0.891033
C34   C     C_R   0.446743 0.534180 0.811582 -0.219869
C35   C     C_2   0.646348 0.986118 0.712254 0.891000
C36   C     C_2   0.924760 0.091656 0.572347 0.920148
C37   C     C_2   0.075242 0.908335 0.427659 0.920150
C38   C     C_2   0.624905 0.656663 0.154126 0.882802
C39   C     C_2   0.374961 0.343428 0.845842 0.882765
C40   C     C_2   0.616520 0.255485 0.191843 0.974333
C41   C     C_2   0.383398 0.744529 0.808119 0.974364
C42   C     C_3   0.673496 0.215035 0.781635 -0.679775
C43   C     C_3   0.326572 0.784934 0.218360 -0.679848
C44   C     C_R   0.475191 0.649811 0.965464 -0.190300
C45   C     C_R   0.524660 0.350211 0.034526 -0.190488
C46   C     C_R   0.438727 0.641682 0.860797 -0.064417
C47   C     C_R   0.561174 0.358337 0.139181 -0.064455
C48   C     C_R   0.446518 0.439249 0.874842 -0.088392
H1    H     H_    0.839194 0.266227 0.460802 0.225100
H2    H     H_    0.306088 0.130092 0.622922 0.308843
H3    H     H_    0.366269 0.056291 0.136095 0.376534
H4    H     H_    0.633669 0.943690 0.863905 0.376526
H5    H     H_    0.809309 0.989252 0.504438 0.347582
H6    H     H_    0.190684 0.010754 0.495558 0.347593
H7    H     H_    0.749316 0.759200 0.106612 0.381907
H8    H     H_    0.250151 0.241218 0.893230 0.381774
H9    H     H_    0.733837 0.187646 0.302136 0.380948
H10   H     H_    0.266126 0.812361 0.697793 0.380950
H11   H     H_    0.723929 0.263293 0.632360 0.241581
H12   H     H_    0.160815 0.733778 0.539226 0.225106
H13   H     H_    0.689846 0.297200 0.818176 0.231857
H14   H     H_    0.757233 0.155764 0.796124 0.258926
H15   H     H_    0.590681 0.187288 0.819651 0.283109
H16   H     H_    0.276038 0.736735 0.367636 0.241566
H17   H     H_    0.310256 0.702756 0.181830 0.231841
H18   H     H_    0.409407 0.812684 0.180381 0.283038
H19   H     H_    0.242842 0.844195 0.203818 0.258946
H20   H     H_    0.213798 0.345589 0.655641 0.191402
H21   H     H_    0.786251 0.654363 0.344364 0.191503
H22   H     H_    0.474043 0.731730 0.003485 0.186232
H23   H     H_    0.525756 0.268294 0.996509 0.186188
H24   H     H_    0.423071 0.186508 0.380644 0.172793
H25   H     H_    0.576933 0.813490 0.619354 0.172782
H26   H     H_    0.693942 0.869902 0.377074 0.308860
N1    N     N_R   0.523130 0.207800 0.519340 -0.130404
N2    N     N_R   0.476870 0.792200 0.480660 -0.130366
N3    N     N_2   0.654377 0.228458 0.669849 -0.277730
N4    N     N_2   0.345613 0.771548 0.330158 -0.277753
O1    O     O_R   0.506170 0.421700 0.658830 -0.565054
O2    O     O_R   0.730380 0.896149 0.310002 -0.713927
O3    O     O_2   0.090600 0.122432 0.782594 -0.518294
O4    O     O_R   0.269652 0.103818 0.689984 -0.713791
O5    O     O_2   0.249847 0.063881 0.297034 -0.583134
O6    O     O_R   0.417412 0.014691 0.192531 -0.719262
O7    O     O_2   0.750141 0.936132 0.702993 -0.583133
O8    O     O_R   0.582538 0.985292 0.807463 -0.719184
O9    O     O_2   0.963373 0.019819 0.634096 -0.530900
O10   O     O_R   0.832787 0.068494 0.499733 -0.815464
O11   O     O_2   0.036624 0.980161 0.365901 -0.530912
O12   O     O_R   0.493830 0.578300 0.341170 -0.564982
O13   O     O_R   0.167213 0.931511 0.500269 -0.815477
O14   O     O_2   0.609123 0.707553 0.237847 -0.619488
O15   O     O_R   0.709058 0.690883 0.081330 -0.767287
O16   O     O_2   0.390944 0.292357 0.762229 -0.619410
O17   O     O_R   0.290502 0.309480 0.918514 -0.767258
O18   O     O_2   0.592653 0.163183 0.160058 -0.554156
O19   O     O_R   0.702053 0.263515 0.273766 -0.791979
O20   O     O_2   0.407246 0.836834 0.839912 -0.554077
O21   O     O_R   0.297903 0.736492 0.726168 -0.792013
O22   O     O_R   0.491330 0.609310 0.646410 -0.606752
O23   O     O_R   0.508670 0.390690 0.353590 -0.606759
O24   O     O_R   0.690650 0.406190 0.506220 -0.637832
O25   O     O_R   0.309350 0.593810 0.493780 -0.637803
O26   O     O_R   0.675800 0.593810 0.493800 -0.610445
O27   O     O_R   0.324200 0.406190 0.506200 -0.610492
O28   O     O_2   0.909431 0.877488 0.217389 -0.518302
Zn1   Zn    Zn3+2 0.509910 0.374730 0.508290 0.999295
Zn2   Zn    Zn3+2 0.490090 0.625270 0.491710 0.999336

loop_
_geom_bond_atom_site_label_1
_geom_bond_atom_site_label_2
_ccdc_geom_bond_type
O23   Zn1   S    
H8    O17   S    
N1    Zn1   S    
C45   H23   S    
C11   C13   A    
H7    O15   S    
H11   N3    S    
C31   O2    S    
C36   O10   S    
C43   N4    S    
C32   O3    D    
O27   Zn1   S    
C12   C23   S    
C12   O12   A    
C28   C29   A    
C19   C21   A    
C14   C30   S    
C35   O8    S    
C14   O24   A    
C33   O5    D    
C38   O14   D    
C3    C48   A    
C6    C35   S    
C19   C37   S    
C22   H20   S    
C22   C25   A    
C5    C33   S    
C1    C34   S    
C41   C46   S    
C41   O21   S    
C44   H22   S    
O25   Zn2   S    
C34   C46   A    
C9    N2    A    
C42   H14   S    
C5    C13   A    
C16   C27   A    
N2    Zn2   S    
H26   O2    S    
C27   C30   A    
C9    H25   S    
C40   O18   D    
C1    O22   A    
C44   C46   A    
C24   H21   S    
C15   C29   S    
C45   C47   A    
C36   O9    D    
C25   C29   A    
O22   Zn2   S    
C23   C47   A    
C37   O13   S    
C16   H1    S    
C6    C11   A    
C5    C7    A    
C6    C8    A    
C4    C44   A    
C40   C47   S    
C3    C45   A    
C8    N1    A    
C2    C4    A    
C39   O16   D    
C21   C31   S    
C10   N1    A    
C2    C38   S    
C14   O26   A    
C43   H17   S    
H9    O19   S    
O1    Zn1   S    
O24   Zn1   S    
C9    C11   A    
C42   H13   S    
C39   O17   S    
C7    N4    S    
C43   H19   S    
C20   C22   A    
C26   C30   A    
C8    N3    S    
C1    O1    A    
C31   O28   D    
C34   C48   A    
C3    C4    A    
O26   Zn2   S    
H2    O4    S    
C20   C32   S    
C17   C28   A    
H16   N4    S    
H10   O21   S    
C24   C26   A    
C10   C13   A    
C7    N2    A    
C25   C27   A    
C32   O4    S    
C26   C28   A    
C37   O11   D    
C15   O27   A    
H4    O8    S    
O12   Zn2   S    
C12   O23   A    
C40   O19   S    
C35   O7    D    
C43   H18   S    
H3    O6    S    
C38   O15   S    
C17   C19   A    
H5    O10   S    
C18   C20   A    
C33   O6    S    
C17   H12   S    
H6    O13   S    
C42   N3    S    
C16   C18   A    
C21   C24   A    
C2    C23   A    
C41   O20   D    
C15   O25   A    
C18   C36   S    
C42   H15   S    
C39   C48   S    
C10   H24   S    
