data_mof_unit_33062.cif
_audit_creation_date              2012-12-10T18:49:58-0500
_audit_creation_method            fapswitch 2.2
_symmetry_space_group_name_H-M    P1
_symmetry_Int_Tables_number       1
_space_group_crystal_system       triclinic
_cell_length_a                    10.572381
_cell_length_b                    9.960458
_cell_length_c                    10.681106
_cell_angle_alpha                 89.005984
_cell_angle_beta                  96.320394
_cell_angle_gamma                 89.950602
_cell_volume                      1117.77275462

loop_
_atom_site_label
_atom_site_type_symbol
_atom_type_description
_atom_site_fract_x
_atom_site_fract_y
_atom_site_fract_z
_atom_type_partial_charge
C1    C     C_R   0.265026 0.499969 0.522802 0.959287
C2    C     C_3   0.627184 0.427601 0.942711 -0.381503
C3    C     C_R   0.073806 0.380084 0.582211 0.187023
C4    C     C_R   0.071349 0.624808 0.563927 0.165398
C5    C     C_R   0.942338 0.379656 0.560223 -0.165667
C6    C     C_R   0.940553 0.622666 0.542173 -0.180280
C7    C     C_R   0.877090 0.500063 0.530545 -0.128827
C8    C     C_R   0.137486 0.501566 0.560584 -0.138274
C9    C     C_R   0.584539 0.069570 0.579572 -0.170411
C10   C     C_R   0.583812 0.927220 0.580332 -0.170021
C11   C     C_R   0.412110 0.928615 0.416540 0.347928
C12   C     C_R   0.410820 0.075391 0.417376 0.345716
C13   C     C_R   0.502677 0.500652 0.257807 0.927994
C14   C     C_R   0.741236 0.499856 0.505936 0.855462
C15   C     C_R   0.504275 0.499366 0.742337 0.777083
C16   C     C_3   0.495362 0.645186 0.066656 -0.339730
C17   C     C_3   0.389619 0.420020 0.058873 -0.314596
C18   C     C_3   0.505759 0.645690 0.926312 -0.394726
C19   C     C_3   0.386758 0.425394 0.915294 -0.445825
C20   C     C_3   0.629567 0.434776 0.087135 -0.411516
C21   C     C_3   0.504838 0.500440 0.120879 0.072394
C22   C     C_3   0.506156 0.499170 0.878702 0.187050
H1    H     H_    0.569749 0.711506 0.114495 0.200592
H2    H     H_    0.397190 0.313337 0.090950 0.249797
H3    H     H_    0.400045 0.684068 0.079446 0.243356
H4    H     H_    0.298960 0.462197 0.085164 0.173556
H5    H     H_    0.424067 0.703678 0.877289 0.190470
H6    H     H_    0.299157 0.478509 0.872895 0.160674
H7    H     H_    0.594872 0.697887 0.906944 0.182202
H8    H     H_    0.383573 0.321061 0.879388 0.194957
H9    H     H_    0.713010 0.494644 0.126586 0.168477
H10   H     H_    0.640665 0.331658 0.128772 0.194146
H11   H     H_    0.714093 0.476019 0.912802 0.156870
H12   H     H_    0.628084 0.320665 0.914218 0.184657
H13   H     H_    0.891161 0.286305 0.569001 0.166743
H14   H     H_    0.888802 0.717016 0.535006 0.175862
H15   H     H_    0.653141 0.121481 0.644044 0.156557
H16   H     H_    0.651918 0.872753 0.645304 0.157531
N1    N     N_R   0.499970 0.857200 0.499970 -0.153705
N2    N     N_R   0.499970 0.142800 0.499970 -0.158164
O1    O     O_R   0.316750 0.614620 0.499990 -0.548010
O2    O     O_R   0.316750 0.385380 0.499990 -0.545193
O3    O     O_R   0.499970 0.614670 0.314790 -0.550321
O4    O     O_R   0.499970 0.385330 0.314790 -0.558891
O5    O     O_R   0.683220 0.614710 0.500010 -0.629372
O6    O     O_R   0.683220 0.385290 0.500010 -0.628459
O7    O     O_R   0.500010 0.614660 0.685200 -0.646713
O8    O     O_R   0.500010 0.385340 0.685200 -0.640054
Zn1   Zn    Zn3+2 0.499980 0.653120 0.500000 1.002313
Zn2   Zn    Zn3+2 0.499980 0.346880 0.500000 1.002340
S1    S     S_3+6 0.307619 0.846273 0.292282 0.062561
O9    O     O_2   0.174802 0.900560 0.287613 -0.242574
O10   O     O_2   0.360658 0.884669 0.172067 -0.322320
O11   O     O_3   0.281653 0.680988 0.284780 -0.535739
H17   H     H_    0.218778 0.668241 0.210032 0.347598
S2    S     S_3+6 0.282487 0.164115 0.315844 0.074484
O12   O     O_2   0.272949 0.112439 0.184263 -0.234178
O13   O     O_2   0.160332 0.132653 0.369985 -0.306453
O14   O     O_3   0.277591 0.329512 0.288063 -0.545598
H18   H     H_    0.188289 0.350239 0.254914 0.358538
C23   C     C_3   0.140657 0.257930 0.644448 -0.806464
H19   H     H_    0.203804 0.208230 0.584090 0.291041
H20   H     H_    0.197862 0.288336 0.732455 0.208495
H21   H     H_    0.071589 0.181198 0.670568 0.224516
C24   C     C_3   0.135042 0.757206 0.596994 -0.800705
H22   H     H_    0.218810 0.741726 0.668205 0.224837
H23   H     H_    0.164158 0.807340 0.511701 0.297944
H24   H     H_    0.069345 0.825988 0.639272 0.217840

loop_
_geom_bond_atom_site_label_1
_geom_bond_atom_site_label_2
_ccdc_geom_bond_type
C10   H16   S    
C2    C22   S    
C23   H21   S    
S1    O10   D    
C11   C12   A    
C12   N2    A    
C16   C21   S    
C15   O7    A    
C16   H1    S    
C1    C8    S    
C9    C10   A    
O6    Zn2   S    
C24   H23   S    
S2    O14   S    
O5    Zn1   S    
C4    C8    A    
S1    O11   S    
C16   C18   S    
C24   H24   S    
C9    H15   S    
C7    C14   S    
C13   C21   S    
O14   H18   S    
C14   O6    A    
C18   H7    S    
C12   S2    S    
C20   C21   S    
C11   N1    A    
C19   H6    S    
C2    H12   S    
C6    C7    A    
C15   O8    A    
O2    Zn2   S    
N2    Zn2   S    
C17   H4    S    
C5    H13   S    
C2    H11   S    
O8    Zn2   S    
N1    Zn1   S    
S2    O13   D    
C3    C8    A    
C14   O5    A    
C9    N2    A    
C23   H19   S    
C17   H2    S    
C11   S1    S    
C3    C23   S    
C2    C20   S    
S1    O9    D    
C3    C5    A    
C1    O2    A    
C13   O3    A    
C19   C22   S    
S2    O12   D    
O7    Zn1   S    
C24   H22   S    
C20   H10   S    
O1    Zn1   S    
C16   H3    S    
C5    C7    A    
C4    C24   S    
O3    Zn1   S    
O4    Zn2   S    
O11   H17   S    
C17   C19   S    
C13   O4    A    
C18   C22   S    
C19   H8    S    
C4    C6    A    
C15   C22   S    
C17   C21   S    
C18   H5    S    
C1    O1    A    
C6    H14   S    
C10   N1    A    
C23   H20   S    
C20   H9    S    
