data_mof_unit_38721.cif
_audit_creation_date              2012-12-11T15:17:41-0500
_audit_creation_method            fapswitch 2.2
_symmetry_space_group_name_H-M    P1
_symmetry_Int_Tables_number       1
_space_group_crystal_system       triclinic
_cell_length_a                    15.766231
_cell_length_b                    15.694454
_cell_length_c                    34.474427
_cell_angle_alpha                 90.345982
_cell_angle_beta                  90.037801
_cell_angle_gamma                 120.047418
_cell_volume                      7383.83909423

loop_
_atom_site_label
_atom_site_type_symbol
_atom_type_description
_atom_site_fract_x
_atom_site_fract_y
_atom_site_fract_z
_atom_type_partial_charge
C1    C     C_R   0.577626 0.442078 0.554693 0.543216
C2    C     C_R   0.558459 0.136368 0.554834 0.544795
C3    C     C_R   0.863820 0.422276 0.555093 0.545789
C4    C     C_R   0.441948 0.578055 0.054877 0.545813
C5    C     C_R   0.136525 0.558629 0.054998 0.559632
C6    C     C_R   0.422244 0.864430 0.054820 0.544370
C7    C     C_R   0.082093 0.540153 0.699036 0.344342
C8    C     C_R   0.493593 0.503167 0.709301 0.349891
C9    C     C_R   0.500254 0.998219 0.710340 0.349748
C10   C     C_R   0.484035 0.952352 0.216175 0.348609
C11   C     C_R   0.467858 0.515808 0.216318 0.348712
C12   C     C_R   0.024155 0.515477 0.213821 0.347998
C13   C     C_R   0.163896 0.501065 0.836130 -0.115098
C14   C     C_R   0.561156 0.580679 0.851445 -0.117819
C15   C     C_R   0.419889 0.982766 0.852062 -0.121364
C16   C     C_R   0.428024 0.988088 0.356737 -0.117362
C17   C     C_R   0.560567 0.570587 0.356986 -0.117478
C18   C     C_R   0.998925 0.429278 0.355028 -0.117526
C19   C     C_R   0.172863 0.502771 0.876310 -0.127571
C20   C     C_R   0.551094 0.597268 0.890378 -0.128192
C21   C     C_R   0.402490 0.954521 0.890706 -0.135539
C22   C     C_R   0.443074 0.029965 0.393604 -0.132034
C23   C     C_R   0.586960 0.556139 0.393863 -0.132206
C24   C     C_R   0.963051 0.407202 0.392685 -0.130713
C25   C     C_R   0.177826 0.659379 0.879010 -0.130669
C26   C     C_R   0.383481 0.462120 0.889100 -0.137896
C27   C     C_R   0.535704 0.919429 0.889393 -0.130663
C28   C     C_R   0.611438 0.065670 0.392340 -0.132530
C29   C     C_R   0.455820 0.386134 0.391766 -0.132241
C30   C     C_R   0.929236 0.541739 0.391379 -0.132549
C31   C     C_R   0.167922 0.657306 0.838603 -0.115763
C32   C     C_R   0.393306 0.445832 0.849979 -0.120539
C33   C     C_R   0.553056 0.947585 0.850638 -0.117201
C34   C     C_R   0.596619 0.024444 0.355313 -0.119018
C35   C     C_R   0.429921 0.400331 0.354708 -0.119132
C36   C     C_R   0.964874 0.563676 0.353613 -0.118451
C37   C     C_R   0.159547 0.577336 0.816805 0.036080
C38   C     C_R   0.480807 0.508183 0.830396 0.036206
C39   C     C_R   0.492259 0.975083 0.831180 0.034992
C40   C     C_R   0.506069 0.989500 0.336480 0.034692
C41   C     C_R   0.484824 0.491548 0.336329 0.034568
C42   C     C_R   0.995494 0.504507 0.334466 0.034834
C43   C     C_R   0.178214 0.580911 0.898284 0.019802
C44   C     C_R   0.460575 0.541577 0.908913 0.024169
C45   C     C_R   0.457187 0.918192 0.909098 0.022812
C46   C     C_R   0.536085 0.073030 0.410920 0.020894
C47   C     C_R   0.537433 0.462742 0.410825 0.021160
C48   C     C_R   0.923561 0.460232 0.410415 0.021656
C49   C     C_R   0.577662 0.442117 0.445648 0.552061
C50   C     C_R   0.557664 0.135280 0.445642 0.551612
C51   C     C_R   0.864580 0.422186 0.445701 0.554192
C52   C     C_R   0.442031 0.577554 0.945532 0.542771
C53   C     C_R   0.190729 0.582168 0.940766 0.571847
C54   C     C_R   0.421814 0.863967 0.945543 0.541273
C55   C     C_R   0.929701 0.461164 0.589555 0.023625
C56   C     C_R   0.540346 0.465866 0.590161 0.027955
C57   C     C_R   0.535554 0.078372 0.590915 0.029596
C58   C     C_R   0.452064 0.914658 0.092981 0.026502
C59   C     C_R   0.461523 0.549977 0.093311 0.028653
C60   C     C_R   0.083327 0.538470 0.092276 0.020329
C61   C     C_R   0.946881 0.394179 0.610249 -0.143036
C62   C     C_R   0.604251 0.553634 0.609906 -0.151579
C63   C     C_R   0.451680 0.062179 0.611379 -0.144524
C64   C     C_R   0.377192 0.912154 0.115977 -0.140942
C65   C     C_R   0.529735 0.627223 0.117083 -0.137548
C66   C     C_R   0.069759 0.455908 0.113151 -0.141021
C67   C     C_R   0.000107 0.421371 0.644680 -0.126847
C68   C     C_R   0.585929 0.568968 0.647921 -0.127369
C69   C     C_R   0.437076 0.030041 0.649411 -0.126864
C70   C     C_R   0.389309 0.928023 0.155625 -0.126806
C71   C     C_R   0.533532 0.614666 0.156611 -0.127172
C72   C     C_R   0.045414 0.445892 0.152105 -0.126948
C73   C     C_R   0.037980 0.516612 0.659786 0.017785
C74   C     C_R   0.502284 0.497486 0.666964 0.023954
C75   C     C_R   0.505732 0.012737 0.668072 0.022667
C76   C     C_R   0.476686 0.946956 0.173545 0.021146
C77   C     C_R   0.469122 0.524510 0.173746 0.020978
C78   C     C_R   0.033569 0.517967 0.171268 0.020318
C79   C     C_R   0.026564 0.586046 0.638469 -0.107586
C80   C     C_R   0.431491 0.416114 0.645929 -0.105705
C81   C     C_R   0.583632 0.017518 0.646704 -0.107570
C82   C     C_R   0.555597 0.959931 0.150487 -0.104978
C83   C     C_R   0.406692 0.444205 0.149984 -0.103261
C84   C     C_R   0.036021 0.594880 0.149849 -0.099023
C85   C     C_R   0.973042 0.560039 0.603442 0.001401
C86   C     C_R   0.448470 0.399211 0.607425 -0.009536
C87   C     C_R   0.599466 0.049280 0.607995 -0.011409
C88   C     C_R   0.545896 0.947991 0.109919 -0.009737
C89   C     C_R   0.404317 0.454643 0.109498 -0.009015
C90   C     C_R   0.058897 0.605678 0.110001 -0.014292
C91   C     C_R   0.139743 0.569067 0.774592 0.350582
C92   C     C_R   0.486175 0.503868 0.787874 0.348706
C93   C     C_R   0.497922 0.987084 0.788811 0.348611
C94   C     C_R   0.496488 0.967184 0.294627 0.349587
C95   C     C_R   0.471729 0.501335 0.294596 0.348543
C96   C     C_R   0.012586 0.513226 0.292330 0.350149
Cr1   Cr    Cr6+3 0.522350 0.263930 0.500020 0.998693
Cr2   Cr    Cr6+3 0.736070 0.258420 0.500020 1.000940
Cr3   Cr    Cr6+3 0.741580 0.477650 0.500020 0.998192
Cr4   Cr    Cr6+3 0.263930 0.522350 0.000020 0.999887
Cr5   Cr    Cr6+3 0.258420 0.736070 0.000020 0.998154
Cr6   Cr    Cr6+3 0.477650 0.741580 0.000020 0.999235
H1    H     H_    0.916092 0.318578 0.600538 0.128681
H2    H     H_    0.672136 0.608290 0.596838 0.124825
H3    H     H_    0.399868 0.080666 0.598941 0.127573
H4    H     H_    0.305759 0.890665 0.103895 0.126774
H5    H     H_    0.576323 0.700400 0.105679 0.133980
H6    H     H_    0.084692 0.401804 0.100130 0.131916
H7    H     H_    0.175021 0.442236 0.890213 0.124365
H8    H     H_    0.612272 0.658065 0.905195 0.129975
H9    H     H_    0.342147 0.955257 0.905401 0.128405
H10   H     H_    0.383363 0.033378 0.407619 0.127946
H11   H     H_    0.649331 0.616737 0.408215 0.127500
H12   H     H_    0.960854 0.344883 0.407005 0.128192
H13   H     H_    0.008029 0.366012 0.660246 0.140729
H14   H     H_    0.640218 0.634509 0.663011 0.135642
H15   H     H_    0.374528 0.024180 0.664798 0.140647
H16   H     H_    0.328026 0.920794 0.172407 0.141329
H17   H     H_    0.584521 0.677474 0.173923 0.142794
H18   H     H_    0.040954 0.383989 0.167620 0.140249
H19   H     H_    0.057858 0.660611 0.649526 0.131803
H20   H     H_    0.364512 0.363044 0.660133 0.132642
H21   H     H_    0.634582 0.000127 0.660707 0.130842
H22   H     H_    0.624595 0.978052 0.164104 0.131156
H23   H     H_    0.358702 0.373403 0.162986 0.131728
H24   H     H_    0.023902 0.648335 0.164899 0.132713
H25   H     H_    0.158376 0.438609 0.820348 0.140187
H26   H     H_    0.630329 0.628475 0.837396 0.138466
H27   H     H_    0.373034 0.005557 0.838072 0.138246
H28   H     H_    0.356874 0.960405 0.343241 0.139404
H29   H     H_    0.603571 0.642215 0.343831 0.139167
H30   H     H_    0.023844 0.383502 0.341324 0.138875
H31   H     H_    0.184560 0.721935 0.895128 0.135182
H32   H     H_    0.313444 0.417025 0.902990 0.115997
H33   H     H_    0.579309 0.892124 0.902999 0.129869
H34   H     H_    0.683673 0.097379 0.405299 0.128664
H35   H     H_    0.415758 0.313507 0.404403 0.129146
H36   H     H_    0.900065 0.584434 0.404594 0.128470
H37   H     H_    0.165695 0.717665 0.824543 0.140167
H38   H     H_    0.330618 0.388166 0.834663 0.133977
H39   H     H_    0.610329 0.942299 0.835425 0.139294
H40   H     H_    0.657715 0.025193 0.340658 0.137489
H41   H     H_    0.370305 0.338439 0.339730 0.137206
H42   H     H_    0.962754 0.623124 0.338713 0.138225
N1    N     N_R   0.130311 0.490237 0.754417 -0.222343
N2    N     N_R   0.566053 0.573297 0.768826 -0.228094
N3    N     N_R   0.429845 0.999583 0.769652 -0.227270
N4    N     N_R   0.410226 0.938591 0.276236 -0.225979
N5    N     N_R   0.526545 0.589192 0.276917 -0.225818
N6    N     N_R   0.028701 0.447007 0.273122 -0.225704
N7    N     N_R   0.102005 0.476017 0.717483 -0.225241
N8    N     N_R   0.569876 0.572707 0.730348 -0.227363
N9    N     N_R   0.431241 0.005450 0.731234 -0.224457
N10   N     N_R   0.404071 0.930980 0.237834 -0.223952
N11   N     N_R   0.524357 0.596308 0.238615 -0.223293
N12   N     N_R   0.034771 0.448370 0.234681 -0.223880
N13   N     N_R   0.094063 0.620614 0.718845 -0.228897
N14   N     N_R   0.413396 0.433872 0.728321 -0.223714
N15   N     N_R   0.568366 0.985496 0.729463 -0.228197
N16   N     N_R   0.570001 0.978903 0.234544 -0.228719
N17   N     N_R   0.411377 0.428099 0.233990 -0.228890
N18   N     N_R   0.009032 0.582455 0.233018 -0.230318
N19   N     N_R   0.122329 0.634799 0.755903 -0.222535
N20   N     N_R   0.409480 0.434581 0.766863 -0.224401
N21   N     N_R   0.566863 0.979434 0.767962 -0.225661
N22   N     N_R   0.576184 0.986599 0.273043 -0.224754
N23   N     N_R   0.413591 0.420958 0.272399 -0.225531
N24   N     N_R   0.002797 0.580992 0.271517 -0.225919
O1    O     O_R   0.498680 0.159540 0.541860 -0.531362
O2    O     O_R   0.840460 0.339140 0.541860 -0.528041
O3    O     O_R   0.660860 0.501320 0.541860 -0.535357
O4    O     O_R   0.159540 0.498680 0.041860 -0.514040
O5    O     O_R   0.339140 0.840460 0.041860 -0.527088
O6    O     O_R   0.501320 0.660860 0.041860 -0.519988
O7    O     O_R   0.532760 0.358060 0.540030 -0.506915
O8    O     O_R   0.641940 0.174700 0.540030 -0.508366
O9    O     O_R   0.825300 0.467240 0.540030 -0.511178
O10   O     O_R   0.358060 0.532760 0.040030 -0.507311
O11   O     O_R   0.174700 0.641940 0.040030 -0.508247
O12   O     O_R   0.467240 0.825300 0.040030 -0.505734
O13   O     O_R   0.498590 0.161190 0.456930 -0.521625
O14   O     O_R   0.838810 0.337400 0.456930 -0.521526
O15   O     O_R   0.662600 0.501410 0.456930 -0.521104
O16   O     O_R   0.161190 0.498590 0.956930 -0.516467
O17   O     O_R   0.337400 0.838810 0.956930 -0.535360
O18   O     O_R   0.501410 0.662600 0.956930 -0.520566
O19   O     O_R   0.532680 0.359580 0.461300 -0.504430
O20   O     O_R   0.640420 0.173100 0.461300 -0.504550
O21   O     O_R   0.826900 0.467320 0.461300 -0.504267
O22   O     O_R   0.359580 0.532680 0.961300 -0.526565
O23   O     O_R   0.173100 0.640420 0.961300 -0.499543
O24   O     O_R   0.467320 0.826900 0.961300 -0.507145
O25   O     O_3   0.666667 0.333333 0.499990 -0.229358
O26   O     O_3   0.333333 0.666667 0.999990 -0.257097
C97   C     C_3   0.965830 0.640249 0.582108 -0.241912
C98   C     C_3   0.875067 0.646047 0.594247 -0.276288
C99   C     C_3   0.886454 0.692595 0.634384 -0.437510
H43   H     H_    0.888227 0.643865 0.657176 0.177525
H44   H     H_    0.954561 0.765476 0.635961 0.152096
H45   H     H_    0.823168 0.703305 0.640172 0.136124
H46   H     H_    0.862915 0.691370 0.572737 0.142103
H47   H     H_    0.809136 0.571477 0.594204 0.201990
H48   H     H_    0.032864 0.712752 0.587391 0.125956
H49   H     H_    0.965185 0.628827 0.550302 0.141256
C100  C     C_3   0.367949 0.308948 0.586814 -0.243497
C101  C     C_3   0.326111 0.337752 0.552309 -0.283857
C102  C     C_3   0.250375 0.246899 0.530061 -0.448389
H50   H     H_    0.284730 0.205425 0.518196 0.152766
H51   H     H_    0.188850 0.198173 0.549391 0.146857
H52   H     H_    0.220754 0.269848 0.505557 0.140675
H53   H     H_    0.290757 0.379306 0.563122 0.161073
H54   H     H_    0.385124 0.385941 0.531966 0.174346
H55   H     H_    0.394589 0.258469 0.577899 0.178614
H56   H     H_    0.306330 0.265009 0.606964 0.123478
C103  C     C_3   0.685558 0.052586 0.586870 -0.245163
C104  C     C_3   0.651124 0.979290 0.552763 -0.284959
C105  C     C_3   0.738035 0.986809 0.530373 -0.449295
H57   H     H_    0.782664 0.061771 0.518140 0.151513
H58   H     H_    0.784687 0.970858 0.549715 0.147016
H59   H     H_    0.711003 0.932553 0.506125 0.141384
H60   H     H_    0.606374 0.903178 0.563987 0.161041
H61   H     H_    0.604784 0.993057 0.532408 0.173449
H62   H     H_    0.737763 0.128536 0.577326 0.176411
H63   H     H_    0.728520 0.033072 0.606870 0.124431
C106  C     C_3   0.636323 0.971385 0.086365 -0.254055
C107  C     C_3   0.717391 0.079246 0.091840 -0.308000
C108  C     C_3   0.806189 0.103764 0.066616 -0.452037
H64   H     H_    0.836890 0.055914 0.074268 0.150984
H65   H     H_    0.785270 0.093277 0.035440 0.153362
H66   H     H_    0.863623 0.181764 0.071445 0.151123
H67   H     H_    0.688646 0.128660 0.083868 0.171485
H68   H     H_    0.741917 0.094011 0.122584 0.167271
H69   H     H_    0.663719 0.921566 0.095414 0.140223
H70   H     H_    0.620085 0.960403 0.054924 0.167473
C109  C     C_3   0.340702 0.363280 0.085217 -0.254621
C110  C     C_3   0.373538 0.286560 0.089235 -0.307557
C111  C     C_3   0.312038 0.196577 0.063556 -0.453645
H71   H     H_    0.233518 0.161261 0.071721 0.151195
H72   H     H_    0.320251 0.218136 0.032555 0.151828
H73   H     H_    0.336934 0.142279 0.067337 0.150626
H74   H     H_    0.451759 0.319978 0.080724 0.170842
H75   H     H_    0.366262 0.261615 0.119754 0.167580
H76   H     H_    0.263235 0.331025 0.094612 0.142706
H77   H     H_    0.344168 0.380418 0.053986 0.166462
C112  C     C_3   0.061748 0.689813 0.086979 -0.243753
C113  C     C_3   0.005656 0.737185 0.104835 -0.320134
C114  C     C_3   0.000043 0.808888 0.076647 -0.452559
H78   H     H_    0.074888 0.867997 0.068740 0.150020
H79   H     H_    0.959617 0.769583 0.049926 0.154047
H80   H     H_    0.960744 0.843163 0.090522 0.147249
H81   H     H_    0.929920 0.679177 0.112350 0.173687
H82   H     H_    0.043902 0.779113 0.131478 0.161232
H83   H     H_    0.139372 0.748185 0.083087 0.169071
H84   H     H_    0.028887 0.660433 0.057947 0.159981

loop_
_geom_bond_atom_site_label_1
_geom_bond_atom_site_label_2
_ccdc_geom_bond_type
C25   C31   A    
C24   H12   S    
C93   N21   A    
C30   H36   S    
C72   C78   A    
C17   H29   S    
Cr6   O12   S    
C6    C58   S    
C18   H30   S    
Cr3   O9    S    
C91   N1    A    
C51   O14   A    
C50   O20   A    
C103  H63   S    
C25   C43   A    
C2    C57   S    
C14   H26   S    
C7    C73   S    
C113  H82   S    
C100  C101  S    
C27   C33   A    
C105  H59   S    
C26   C32   A    
C79   H19   S    
C28   C46   A    
C33   C39   A    
N4    N10   A    
C29   C47   A    
C18   C24   A    
C106  H70   S    
C30   C48   A    
C61   H1    S    
C1    C56   S    
C12   N12   A    
C32   H38   S    
C32   C38   A    
C18   C42   A    
C82   C88   A    
Cr3   O3    S    
C9    N15   A    
C68   C74   A    
C107  H67   S    
C90   C112  S    
C38   C92   S    
C11   N17   A    
Cr1   O1    S    
C110  C111  S    
C59   C89   A    
C110  H75   S    
C99   H44   S    
C67   H13   S    
C104  H60   S    
C5    O11   A    
C1    O7    A    
C80   C86   A    
C11   C77   S    
C2    O8    A    
C49   O15   A    
N5    N11   A    
C36   C42   A    
C101  H53   S    
C43   C53   S    
C48   C51   S    
C66   C72   A    
C63   C69   A    
C39   C93   S    
Cr4   O16   S    
C54   O17   A    
C12   C78   S    
C102  H52   S    
Cr6   O24   S    
C109  C110  S    
C96   N24   A    
C93   N3    A    
C58   C88   A    
C67   C73   A    
C64   C70   A    
C63   H3    S    
C25   H31   S    
N13   N19   A    
C13   C37   A    
C51   O21   A    
N14   N20   A    
C66   H6    S    
C27   C45   A    
C19   H7    S    
C8    N14   A    
C74   C80   A    
C112  C113  S    
Cr4   O4    S    
N2    N8    A    
C84   H24   S    
C94   N22   A    
C26   C44   A    
C84   C90   A    
C78   C84   A    
C83   H23   S    
Cr5   O17   S    
Cr6   O26   S    
C86   C100  S    
C82   H22   S    
C21   H9    S    
C109  H76   S    
C19   C43   A    
C46   C50   S    
C57   C63   A    
C21   C45   A    
C113  H81   S    
C114  H79   S    
C58   C64   A    
C83   C89   A    
Cr4   O22   S    
C23   C47   A    
Cr5   O5    S    
C37   C91   S    
C92   N2    A    
C102  H50   S    
C24   C48   A    
C14   C20   A    
C104  C105  S    
C47   C49   S    
C5    O4    A    
C60   C90   A    
C53   O16   A    
C76   C82   A    
Cr1   O7    S    
Cr3   O21   S    
C13   C19   A    
C101  C102  S    
C85   C97   S    
C52   O22   A    
C97   H49   S    
C91   N19   A    
C94   N4    A    
C33   H39   S    
C105  H57   S    
C65   C71   A    
C112  H83   S    
C100  H55   S    
C62   H2    S    
N15   N21   A    
Cr2   O25   S    
C95   N23   A    
N1    N7    A    
C80   H20   S    
C110  H74   S    
C55   C85   A    
C99   H45   S    
C103  C104  S    
Cr6   O18   S    
C26   H32   S    
C13   H25   S    
C57   C87   A    
Cr5   O11   S    
C14   C38   A    
Cr2   O8    S    
C61   C67   A    
C56   C86   A    
C108  H64   S    
C15   H27   S    
C88   C106  S    
C96   N6    A    
C72   H18   S    
C8    C74   S    
C106  C107  S    
C73   C79   A    
C49   O19   A    
C17   C23   A    
C64   H4    S    
C53   O23   A    
C15   C39   A    
N17   N23   A    
C35   C41   A    
C54   O24   A    
C16   C40   A    
C60   C66   A    
C20   H8    S    
C22   C46   A    
C68   H14   S    
C45   C54   S    
C20   C44   A    
N16   N22   A    
C111  H72   S    
C70   C76   A    
C9    N9    A    
C7    N7    A    
Cr4   O26   S    
C50   O13   A    
C105  H58   S    
C98   H47   S    
C52   O18   A    
C10   N16   A    
C40   C94   S    
C71   C77   A    
C16   H28   S    
Cr5   O26   S    
C114  H80   S    
Cr1   O19   S    
Cr3   O25   S    
C113  C114  S    
C34   H40   S    
C16   C22   A    
C5    C60   S    
C6    O12   A    
C3    C55   S    
C28   H34   S    
N6    N12   A    
C10   C76   S    
Cr4   O10   S    
C75   C81   A    
C4    O10   A    
C98   C99   S    
Cr5   O23   S    
C103  H62   S    
C100  H56   S    
C114  H78   S    
C3    O2    A    
Cr1   O13   S    
C95   N5    A    
C7    N13   A    
C6    O5    A    
C11   N11   A    
Cr2   O14   S    
Cr6   O6    S    
C29   H35   S    
C112  H84   S    
C29   C35   A    
C22   H10   S    
C87   C103  S    
C71   H17   S    
C42   C96   S    
C106  H69   S    
C89   C109  S    
C92   N20   A    
C3    O9    A    
C27   H33   S    
C30   C36   A    
C108  H65   S    
C59   C65   A    
C10   N10   A    
C81   C87   A    
C44   C52   S    
C41   C95   S    
C8    N8    A    
C70   H16   S    
C107  H68   S    
C55   C61   A    
C4    C59   S    
C69   H15   S    
C79   C85   A    
C1    O3    A    
C69   C75   A    
C56   C62   A    
C62   C68   A    
C28   C34   A    
C101  H54   S    
C36   H42   S    
C99   H43   S    
N3    N9    A    
C17   C41   A    
C109  H77   S    
C81   H21   S    
C104  H61   S    
N18   N24   A    
C2    O1    A    
C12   N18   A    
C97   C98   S    
Cr2   O2    S    
C31   C37   A    
C15   C21   A    
C108  H66   S    
C97   H48   S    
C107  C108  S    
C111  H73   S    
Cr1   O25   S    
C102  H51   S    
C77   C83   A    
C34   C40   A    
C4    O6    A    
Cr3   O15   S    
C9    C75   S    
C23   H11   S    
C98   H46   S    
C111  H71   S    
Cr2   O20   S    
C65   H5    S    
C31   H37   S    
C35   H41   S    
