data_mof_unit_53028.cif
_audit_creation_date              2012-10-26T20:08:06-0400
_audit_creation_method            fapswitch 2.2
_symmetry_space_group_name_H-M    P1
_symmetry_Int_Tables_number       1
_space_group_crystal_system       triclinic
_cell_length_a                    10.913276
_cell_length_b                    10.795827
_cell_length_c                    9.561789
_cell_angle_alpha                 88.216197
_cell_angle_beta                  91.349266
_cell_angle_gamma                 89.673922
_cell_volume                      1125.66792942

loop_
_atom_site_label
_atom_site_type_symbol
_atom_type_description
_atom_site_fract_x
_atom_site_fract_y
_atom_site_fract_z
_atom_type_partial_charge
C1    C     C_R   0.501067 0.262376 0.501781 0.544018
C2    C     C_R   0.579242 0.058294 0.595202 0.071558
C3    C     C_R   0.499615 0.871560 0.495567 0.002043
C4    C     C_R   0.500384 0.128440 0.504433 0.002043
C5    C     C_R   0.452226 0.403336 0.076969 -0.022120
C6    C     C_R   0.547774 0.596664 0.923030 -0.022119
C7    C     C_R   0.450662 0.403311 0.928608 0.203098
C8    C     C_R   0.549338 0.596689 0.071392 0.203098
C9    C     C_R   0.262200 0.501569 0.497898 0.550849
C10   C     C_R   0.737800 0.498431 0.502102 0.550848
C11   C     C_R   0.150428 0.754853 0.079037 -0.119110
C12   C     C_R   0.498933 0.737623 0.498219 0.544017
C13   C     C_R   0.849572 0.245147 0.920962 -0.119109
C14   C     C_R   0.111034 0.711482 0.209477 -0.165329
C15   C     C_R   0.888966 0.288518 0.790523 -0.165330
C16   C     C_R   0.107546 0.584053 0.241626 0.079633
C17   C     C_R   0.892454 0.415947 0.758374 0.079633
C18   C     C_R   0.137086 0.499316 0.138691 0.122257
C19   C     C_R   0.862914 0.500684 0.861309 0.122257
C20   C     C_R   0.175915 0.543490 0.007522 -0.063322
C21   C     C_R   0.824085 0.456510 0.992478 -0.063322
C22   C     C_R   0.183984 0.670887 0.977319 0.100727
C23   C     C_R   0.871785 0.499168 0.505477 0.012184
C24   C     C_R   0.816016 0.329112 0.022681 0.100727
C25   C     C_R   0.929730 0.540021 0.383853 -0.120622
C26   C     C_R   0.070270 0.459980 0.616147 -0.120621
C27   C     C_R   0.128215 0.500832 0.494523 0.012185
C28   C     C_R   0.943472 0.459479 0.623973 0.009279
C29   C     C_R   0.056528 0.540521 0.376027 0.009279
C30   C     C_R   0.422256 0.069830 0.409670 -0.103040
C31   C     C_R   0.577744 0.930170 0.590330 -0.103040
C32   C     C_R   0.420757 0.941706 0.404799 0.071558
Cu1   Cu    Cu3+1 0.500000 0.500020 0.640660 0.964848
Cu2   Cu    Cu3+1 0.500000 0.499980 0.359340 0.964848
H1    H     H_    0.152957 0.853747 0.056844 0.126652
H2    H     H_    0.639067 0.876092 0.659504 0.139044
H3    H     H_    0.415077 0.325197 0.134542 0.104202
H4    H     H_    0.584923 0.674802 0.865458 0.104202
H5    H     H_    0.217306 0.809957 0.832990 0.221103
H6    H     H_    0.311768 0.687383 0.829640 0.253846
H7    H     H_    0.782694 0.190041 0.167009 0.221103
H8    H     H_    0.688232 0.312618 0.170361 0.253846
H9    H     H_    0.303629 0.295446 0.890724 0.185452
H10   H     H_    0.439441 0.220696 0.893933 0.199278
H11   H     H_    0.696371 0.704553 0.109276 0.185452
H12   H     H_    0.847043 0.146253 0.943155 0.126652
H13   H     H_    0.560559 0.779303 0.106067 0.199278
H14   H     H_    0.208428 0.326371 0.157482 0.213253
H15   H     H_    0.065786 0.334145 0.087854 0.236525
H16   H     H_    0.791572 0.673628 0.842518 0.213253
H17   H     H_    0.934213 0.665855 0.912147 0.236525
H18   H     H_    0.282972 0.822180 0.373144 0.238569
H19   H     H_    0.380460 0.837325 0.237838 0.257671
H20   H     H_    0.717027 0.177820 0.626860 0.238570
H21   H     H_    0.619536 0.162675 0.762165 0.257671
H22   H     H_    0.081693 0.777327 0.285245 0.121379
H23   H     H_    0.918307 0.222673 0.714754 0.121378
H24   H     H_    0.197196 0.478767 0.927851 0.117046
H25   H     H_    0.802804 0.521233 0.072149 0.117046
H26   H     H_    0.875882 0.573240 0.293618 0.132552
H27   H     H_    0.124118 0.426761 0.706381 0.132552
H28   H     H_    0.360933 0.123908 0.340497 0.139044
N1    N     N_R   0.500030 0.500030 0.852070 -0.210757
N2    N     N_3   0.666506 0.114676 0.686706 -0.643598
N3    N     N_R   0.499970 0.499970 0.147930 -0.210758
N4    N     N_3   0.220249 0.713161 0.840806 -0.608056
N5    N     N_3   0.779751 0.286838 0.159193 -0.608055
N6    N     N_3   0.394470 0.302148 0.859361 -0.563896
N7    N     N_3   0.605530 0.697851 0.140638 -0.563895
N8    N     N_3   0.123122 0.369011 0.166011 -0.613645
N9    N     N_3   0.876879 0.630989 0.833990 -0.613645
N10   N     N_3   0.333491 0.885324 0.313297 -0.643599
O1    O     O_R   0.499990 0.319660 0.618740 -0.463698
O2    O     O_R   0.500010 0.680340 0.381260 -0.463698
O3    O     O_R   0.499990 0.319630 0.381170 -0.532023
O4    O     O_R   0.500010 0.680370 0.618830 -0.532023
O5    O     O_R   0.319650 0.500020 0.618780 -0.485914
O6    O     O_R   0.680350 0.499980 0.381220 -0.485915
O7    O     O_R   0.319640 0.500000 0.381210 -0.491935
O8    O     O_R   0.680360 0.500000 0.618790 -0.491936

loop_
_geom_bond_atom_site_label_1
_geom_bond_atom_site_label_2
_ccdc_geom_bond_type
C18   N8    S    
C14   H22   S    
C12   O2    A    
C27   C29   A    
C19   N9    S    
C10   O6    A    
H7    N5    S    
C8    N7    S    
C19   C21   A    
C26   H27   S    
C21   H25   S    
C5    H3    S    
C13   H12   S    
C11   C14   A    
C9    O7    A    
H13   N7    S    
C3    C12   S    
C24   N5    S    
C7    N6    S    
C22   N4    S    
H9    N6    S    
C6    H4    S    
C25   H26   S    
Cu2   O3    S    
C8    N3    A    
H6    N4    S    
C15   H23   S    
H17   N9    S    
Cu2   N3    S    
C2    N2    S    
C25   C29   A    
H11   N7    S    
C1    O3    A    
C5    N3    A    
C5    C7    A    
C10   O8    A    
C6    C8    A    
C16   C29   S    
C13   C24   A    
C2    C31   A    
C6    N1    A    
C2    C4    A    
H16   N9    S    
H18   N10   S    
Cu2   O7    S    
Cu1   O4    S    
Cu1   N1    S    
H21   N2    S    
Cu1   Cu2   S    
C26   C27   A    
C9    O5    A    
C23   C28   A    
C3    C31   A    
C7    N1    A    
Cu2   O2    S    
Cu1   O1    S    
C20   C22   A    
H15   N8    S    
C13   C15   A    
C12   O4    A    
H8    N5    S    
H5    N4    S    
C14   C16   A    
H10   N6    S    
C20   H24   S    
C9    C27   S    
C15   C17   A    
C17   C28   S    
H14   N8    S    
Cu1   O8    S    
C10   C23   S    
C11   C22   A    
C26   C28   A    
C1    C4    S    
C1    O1    A    
C30   H28   S    
Cu2   O6    S    
C30   C32   A    
Cu1   O5    S    
H20   N2    S    
C11   H1    S    
C17   C19   A    
C18   C20   A    
C23   C25   A    
C3    C32   A    
C16   C18   A    
C21   C24   A    
C31   H2    S    
H19   N10   S    
C4    C30   A    
C32   N10   S    
