data_mof_unit_62763.cif
_audit_creation_date              2012-12-10T19:20:58-0500
_audit_creation_method            fapswitch 2.2
_symmetry_space_group_name_H-M    P1
_symmetry_Int_Tables_number       1
_space_group_crystal_system       triclinic
_cell_length_a                    25.833191
_cell_length_b                    34.581758
_cell_length_c                    21.559573
_cell_angle_alpha                 89.999205
_cell_angle_beta                  126.625749
_cell_angle_gamma                 90.001657
_cell_volume                      15457.4224916

loop_
_atom_site_label
_atom_site_type_symbol
_atom_type_description
_atom_site_fract_x
_atom_site_fract_y
_atom_site_fract_z
_atom_type_partial_charge
C1    C     C_R   0.000002 0.021097 0.999966 0.036893
C2    C     C_R   0.619508 0.374144 0.955460 -0.080640
C3    C     C_R   0.347703 0.215987 0.662456 -0.015011
C4    C     C_R   0.852198 0.251131 0.704660 0.023485
C5    C     C_R   0.146091 0.750208 0.295429 0.020521
C6    C     C_R   0.146166 0.249843 0.295471 0.020865
C7    C     C_R   0.852236 0.748878 0.704662 0.023206
C8    C     C_R   0.352211 0.751138 0.704645 0.022799
C9    C     C_R   0.646124 0.250193 0.295452 0.020813
C10   C     C_R   0.646129 0.749826 0.295447 0.020567
C11   C     C_R   0.352226 0.248885 0.704678 0.023901
C12   C     C_R   0.815676 0.218088 0.664586 -0.138346
C13   C     C_R   0.621743 0.624548 0.945475 -0.086920
C14   C     C_R   0.209656 0.763762 0.335354 -0.133034
C15   C     C_R   0.209537 0.235937 0.335380 -0.131284
C16   C     C_R   0.815524 0.781866 0.664591 -0.138787
C17   C     C_R   0.315265 0.718216 0.664562 -0.138559
C18   C     C_R   0.709603 0.263909 0.335371 -0.131790
C19   C     C_R   0.709599 0.736100 0.335363 -0.132567
C20   C     C_R   0.315954 0.281996 0.664616 -0.138567
C21   C     C_R   0.776131 0.217336 0.584215 -0.122908
C22   C     C_R   0.250924 0.763313 0.415703 -0.124577
C23   C     C_R   0.250843 0.236379 0.415733 -0.123931
C24   C     C_R   0.379980 0.374333 0.043739 -0.081002
C25   C     C_R   0.775980 0.782623 0.584225 -0.123502
C26   C     C_R   0.275688 0.717468 0.584194 -0.123435
C27   C     C_R   0.750886 0.263466 0.415724 -0.124091
C28   C     C_R   0.750886 0.736548 0.415712 -0.124449
C29   C     C_R   0.276445 0.282757 0.584248 -0.122954
C30   C     C_R   0.772368 0.249645 0.542491 0.020589
C31   C     C_R   0.229333 0.749362 0.457622 0.019240
C32   C     C_R   0.229501 0.250697 0.457679 0.019321
C33   C     C_R   0.772379 0.750366 0.542491 0.020480
C34   C     C_R   0.272294 0.749665 0.542466 0.020449
C35   C     C_R   0.859028 0.162523 0.055780 0.321470
C36   C     C_R   0.729411 0.249338 0.457652 0.019302
C37   C     C_R   0.729415 0.750674 0.457647 0.019257
C38   C     C_R   0.272461 0.250385 0.542518 0.020626
C39   C     C_R   0.057804 0.041710 0.049523 -0.131413
C40   C     C_R   0.956875 0.957699 0.931150 -0.131546
C41   C     C_R   0.942203 0.041709 0.950407 -0.131619
C42   C     C_R   0.043126 0.957706 0.068800 -0.131337
C43   C     C_R   0.557787 0.541709 0.049613 -0.131392
C44   C     C_R   0.456949 0.457698 0.931125 -0.131509
C45   C     C_R   0.442219 0.541709 0.950316 -0.131598
C46   C     C_R   0.140602 0.837715 0.949241 0.320595
C47   C     C_R   0.543052 0.457704 0.068824 -0.131288
C48   C     C_R   0.057622 0.081954 0.050264 -0.133936
C49   C     C_R   0.956343 0.917455 0.931421 -0.137302
C50   C     C_R   0.942386 0.081954 0.949679 -0.135148
C51   C     C_R   0.043658 0.917462 0.068545 -0.136967
C52   C     C_R   0.557604 0.581954 0.050351 -0.133907
C53   C     C_R   0.456415 0.417453 0.931395 -0.137295
C54   C     C_R   0.442404 0.581954 0.949590 -0.135102
C55   C     C_R   0.543586 0.417460 0.068571 -0.136944
C56   C     C_R   0.000003 0.102398 0.999979 0.034810
C57   C     C_R   0.140333 0.162838 0.943088 0.321875
C58   C     C_R   0.000000 0.897204 0.999988 0.039128
C59   C     C_R   0.500003 0.602397 0.999979 0.034723
C60   C     C_R   0.500000 0.397202 0.999987 0.039114
C61   C     C_R   0.104605 0.249796 0.210386 0.485045
C62   C     C_R   0.894562 0.749568 0.789664 0.485019
C63   C     C_R   0.894544 0.250441 0.789663 0.486937
C64   C     C_R   0.104578 0.750221 0.210370 0.483006
C65   C     C_R   0.604594 0.749791 0.210377 0.482910
C66   C     C_R   0.394556 0.249566 0.789670 0.487069
C67   C     C_R   0.394551 0.750439 0.789657 0.484818
C68   C     C_R   0.859135 0.837881 0.050331 0.319888
C69   C     C_R   0.604587 0.250217 0.210379 0.485070
C70   C     C_R   0.000001 0.144835 0.999991 0.478658
C71   C     C_R   0.000001 0.855026 0.999997 0.475680
C72   C     C_R   0.500001 0.644835 0.999991 0.478780
C73   C     C_R   0.500001 0.355025 0.999996 0.475489
C74   C     C_R   0.999976 0.354880 0.999974 0.516343
C75   C     C_R   0.999962 0.644754 0.999959 0.502880
C76   C     C_R   0.499960 0.855250 0.999956 0.502473
C77   C     C_R   0.499976 0.145121 0.999975 0.516372
C78   C     C_R   0.055346 0.457598 0.021880 -0.120529
C79   C     C_R   0.358617 0.662385 0.054895 0.318811
C80   C     C_R   0.966956 0.540942 0.022635 -0.124232
C81   C     C_R   0.944148 0.457534 0.977451 -0.119325
C82   C     C_R   0.032356 0.540941 0.976490 -0.121785
C83   C     C_R   0.531919 0.959075 0.975903 -0.121862
C84   C     C_R   0.444314 0.042468 0.978056 -0.119419
C85   C     C_R   0.467381 0.959070 0.023216 -0.124297
C86   C     C_R   0.555176 0.042407 0.021280 -0.120597
C87   C     C_R   0.055492 0.417337 0.021082 -0.024649
C88   C     C_R   0.965827 0.581206 0.021821 -0.026370
C89   C     C_R   0.944174 0.417270 0.978478 -0.024144
C90   C     C_R   0.640206 0.337592 0.948444 0.323158
C91   C     C_R   0.033654 0.581199 0.977523 -0.023864
C92   C     C_R   0.533225 0.918819 0.976929 -0.023974
C93   C     C_R   0.444349 0.082730 0.979097 -0.024199
C94   C     C_R   0.466239 0.918808 0.022398 -0.026446
C95   C     C_R   0.555315 0.082666 0.020467 -0.024675
C96   C     C_R   0.999886 0.396993 0.999869 0.025732
C97   C     C_R   0.999830 0.602024 0.999795 0.009674
C98   C     C_R   0.499824 0.897986 0.999787 0.009481
C99   C     C_R   0.499886 0.103009 0.999871 0.025570
C100  C     C_R   0.999707 0.477969 0.999617 0.010372
C101  C     C_R   0.640777 0.662684 0.944045 0.319372
C102  C     C_R   0.999652 0.520574 0.999556 0.010171
C103  C     C_R   0.499648 0.979437 0.999557 0.010167
C104  C     C_R   0.499705 0.022037 0.999619 0.010413
C105  C     C_1   0.881275 0.319744 0.699393 0.225852
C106  C     C_1   0.058360 0.723971 0.301288 0.212191
C107  C     C_1   0.058905 0.276855 0.301486 0.212025
C108  C     C_1   0.881832 0.680392 0.699377 0.224768
C109  C     C_1   0.382253 0.819512 0.699346 0.224813
C110  C     C_1   0.558589 0.223640 0.301383 0.211748
C111  C     C_1   0.558643 0.776478 0.301381 0.212515
C112  C     C_R   0.000002 0.978316 0.999971 0.030701
C113  C     C_R   0.359500 0.337772 0.051072 0.322593
C114  C     C_1   0.380832 0.180157 0.699430 0.225749
C115  C     C_1   0.113743 0.397475 0.044140 0.207814
C116  C     C_1   0.927589 0.600016 0.041811 0.227980
C117  C     C_1   0.885986 0.397333 0.955442 0.210663
C118  C     C_1   0.071865 0.599986 0.957465 0.234324
C119  C     C_1   0.570992 0.900054 0.956210 0.234593
C120  C     C_1   0.386329 0.102656 0.956689 0.210944
C121  C     C_1   0.428421 0.900015 0.043019 0.228078
C122  C     C_1   0.613397 0.102521 0.042893 0.208127
C123  C     C_3   0.961331 0.186395 0.148486 -0.086578
C124  C     C_R   0.797538 0.175679 0.992810 0.073341
C125  C     C_3   0.038451 0.814353 0.853112 -0.091839
C126  C     C_3   0.038311 0.187170 0.850499 -0.091802
C127  C     C_3   0.961392 0.814769 0.146603 -0.086848
C128  C     C_3   0.461090 0.686033 0.147663 -0.086356
C129  C     C_3   0.538212 0.314024 0.852353 -0.092117
C130  C     C_3   0.538554 0.686751 0.851368 -0.091376
C131  C     C_3   0.461614 0.314473 0.147309 -0.086883
C132  C     C_R   0.202874 0.824368 0.010004 0.069779
C133  C     C_R   0.201953 0.175706 0.006304 0.072784
C134  C     C_R   0.796951 0.824382 0.989676 0.070110
C135  C     C_R   0.297138 0.675670 0.992124 0.070706
C136  C     C_R   0.702500 0.324361 0.009376 0.072219
C137  C     C_R   0.702385 0.675694 0.007046 0.070223
C138  C     C_R   0.297299 0.324375 0.990260 0.072658
C139  C     C_R   0.757546 0.151353 0.928919 -0.125161
C140  C     C_R   0.500002 0.521096 0.999965 0.036897
C141  C     C_R   0.242506 0.847104 0.076586 -0.121598
C142  C     C_R   0.241648 0.151134 0.069848 -0.125356
C143  C     C_R   0.757209 0.846971 0.922896 -0.121455
C144  C     C_R   0.256913 0.651442 0.928131 -0.121882
C145  C     C_R   0.741921 0.347175 0.075885 -0.125506
C146  C     C_R   0.742338 0.651229 0.070703 -0.121762
C147  C     C_R   0.257755 0.347031 0.923537 -0.124976
C148  C     C_R   0.777538 0.114078 0.927662 -0.126345
C149  C     C_R   0.220874 0.882705 0.083411 -0.119578
C150  C     C_R   0.221226 0.113900 0.070538 -0.126682
C151  C     C_R   0.500001 0.478315 0.999970 0.030624
C152  C     C_R   0.778647 0.882576 0.915779 -0.119565
C153  C     C_R   0.276674 0.614149 0.926561 -0.124398
C154  C     C_R   0.720070 0.382753 0.082450 -0.121466
C155  C     C_R   0.722171 0.613972 0.071732 -0.124450
C156  C     C_R   0.279395 0.382615 0.916653 -0.121157
C157  C     C_R   0.837255 0.100494 0.990467 -0.144311
C158  C     C_R   0.159843 0.896256 0.023539 -0.131461
C159  C     C_R   0.161369 0.100606 0.007510 -0.144292
C160  C     C_R   0.839591 0.896282 0.975556 -0.131607
C161  C     C_R   0.336398 0.600448 0.989143 -0.146432
C162  C     C_R   0.877869 0.124363 0.054144 -0.084972
C163  C     C_R   0.659030 0.396203 0.022386 -0.130071
C164  C     C_R   0.662307 0.600547 0.008940 -0.146318
C165  C     C_R   0.340341 0.396233 0.976610 -0.130132
C166  C     C_R   0.217519 0.715857 0.990759 -0.144012
C167  C     C_R   0.781882 0.284583 0.008350 -0.135653
C168  C     C_R   0.782419 0.715866 0.009151 -0.139687
C169  C     C_R   0.218167 0.284610 0.991758 -0.139636
C170  C     C_R   0.717708 0.215824 0.991115 -0.140370
C171  C     C_R   0.282070 0.784552 0.008704 -0.139519
C172  C     C_R   0.282222 0.215832 0.008781 -0.136071
C173  C     C_R   0.120121 0.874283 0.956531 -0.082217
C174  C     C_R   0.717983 0.784580 0.991409 -0.143521
C175  C     C_R   0.194908 0.751125 0.997556 0.055058
C176  C     C_R   0.804734 0.249209 0.001919 0.057847
C177  C     C_R   0.805098 0.751141 0.002465 0.057133
C178  C     C_R   0.195265 0.249236 0.998088 0.055795
C179  C     C_R   0.694921 0.251105 0.997582 0.054677
C180  C     C_R   0.304745 0.749191 0.001943 0.058050
C181  C     C_R   0.305082 0.251120 0.002433 0.056865
C182  C     C_R   0.695257 0.749218 0.998071 0.056146
C183  C     C_R   0.226753 0.786050 0.005731 0.006280
C184  C     C_R   0.121051 0.124720 0.944161 -0.084633
C185  C     C_R   0.773032 0.214299 0.994249 0.005459
C186  C     C_R   0.773243 0.786069 0.994266 0.006363
C187  C     C_R   0.226824 0.214314 0.005500 0.005546
C188  C     C_R   0.726577 0.286054 0.005410 0.006401
C189  C     C_R   0.272850 0.714305 0.993917 0.005529
C190  C     C_R   0.273411 0.286072 0.994573 0.006419
C191  C     C_R   0.727019 0.714319 0.005855 0.005565
C192  C     C_R   0.808271 0.282822 0.581892 -0.121539
C193  C     C_R   0.165883 0.736114 0.418429 -0.120330
C194  C     C_R   0.166264 0.264313 0.418522 -0.119683
C195  C     C_R   0.879417 0.874457 0.042751 -0.082667
C196  C     C_R   0.808480 0.717243 0.581891 -0.121906
C197  C     C_R   0.308626 0.782723 0.581870 -0.121939
C198  C     C_R   0.666058 0.235923 0.418477 -0.119745
C199  C     C_R   0.666069 0.764104 0.418470 -0.120259
C200  C     C_R   0.308119 0.217141 0.581915 -0.121524
C201  C     C_R   0.139821 0.249791 0.999502 0.535601
C202  C     C_R   0.860303 0.750325 0.000678 0.531547
C203  C     C_R   0.860192 0.249771 0.000528 0.536981
C204  C     C_R   0.139709 0.750312 0.999348 0.530106
C205  C     C_R   0.639812 0.749779 0.999482 0.531527
C206  C     C_R   0.377235 0.624211 0.052926 -0.087341
C207  C     C_R   0.360291 0.250311 0.000656 0.535422
C208  C     C_R   0.360201 0.749759 0.000548 0.533035
C209  C     C_R   0.639720 0.250298 0.999370 0.534177
C210  C     C_R   0.847886 0.283972 0.662433 -0.015045
C211  C     C_R   0.123989 0.736531 0.337895 -0.020715
C212  C     C_R   0.124320 0.263892 0.337993 -0.020181
C213  C     C_R   0.848134 0.716096 0.662431 -0.015985
C214  C     C_R   0.348308 0.783865 0.662411 -0.016042
C215  C     C_R   0.624135 0.236353 0.337945 -0.020142
C216  C     C_R   0.624155 0.763694 0.337938 -0.020786
H1    H     H_    0.099031 0.473015 0.040793 0.117624
H2    H     H_    0.227841 0.774277 0.304370 0.141934
H3    H     H_    0.984223 0.789509 0.185715 0.161221
H4    H     H_    0.466537 0.687739 0.100205 0.108838
H5    H     H_    0.486962 0.660488 0.184959 0.104701
H6    H     H_    0.484520 0.712069 0.184173 0.162318
H7    H     H_    0.511950 0.340038 0.817054 0.103168
H8    H     H_    0.532158 0.310279 0.899035 0.109242
H9    H     H_    0.515685 0.288584 0.813622 0.154002
H10   H     H_    0.532998 0.688365 0.898749 0.110454
H11   H     H_    0.512487 0.661327 0.813759 0.104097
H12   H     H_    0.515404 0.712917 0.815106 0.156006
H13   H     H_    0.227546 0.225132 0.304386 0.142729
H14   H     H_    0.487725 0.340577 0.182353 0.103509
H15   H     H_    0.467667 0.310618 0.100650 0.107215
H16   H     H_    0.484295 0.289151 0.186272 0.161580
H17   H     H_    0.817992 0.807350 0.695484 0.132457
H18   H     H_    0.317564 0.692776 0.695443 0.133668
H19   H     H_    0.727707 0.274558 0.304382 0.142665
H20   H     H_    0.727698 0.725442 0.304374 0.141977
H21   H     H_    0.318747 0.307566 0.695522 0.131956
H22   H     H_    0.748878 0.191374 0.554565 0.116713
H23   H     H_    0.299979 0.773515 0.445175 0.118747
H24   H     H_    0.299736 0.225881 0.445191 0.118826
H25   H     H_    0.942238 0.525439 0.041653 0.116206
H26   H     H_    0.748598 0.808551 0.554589 0.116264
H27   H     H_    0.248123 0.691590 0.554552 0.116567
H28   H     H_    0.799866 0.273810 0.445196 0.118848
H29   H     H_    0.799864 0.726207 0.445171 0.118696
H30   H     H_    0.249388 0.308772 0.554605 0.116427
H31   H     H_    0.103437 0.026848 0.087236 0.100666
H32   H     H_    0.924033 0.972563 0.876792 0.106675
H33   H     H_    0.896570 0.026847 0.912682 0.100092
H34   H     H_    0.075968 0.972574 0.123152 0.108044
H35   H     H_    0.603410 0.526847 0.087402 0.100659
H36   H     H_    0.900402 0.472900 0.958448 0.119067
H37   H     H_    0.424168 0.472561 0.876751 0.106727
H38   H     H_    0.396597 0.526847 0.912515 0.100085
H39   H     H_    0.575834 0.472572 0.123191 0.108097
H40   H     H_    0.102790 0.097032 0.089720 0.141381
H41   H     H_    0.922697 0.902133 0.877802 0.123114
H42   H     H_    0.897224 0.097032 0.910205 0.140078
H43   H     H_    0.077303 0.902145 0.122170 0.125802
H44   H     H_    0.602755 0.597032 0.089886 0.141478
H45   H     H_    0.422828 0.402130 0.877757 0.123035
H46   H     H_    0.397259 0.597032 0.910039 0.140166
H47   H     H_    0.056992 0.525438 0.957364 0.118189
H48   H     H_    0.577172 0.402142 0.122214 0.125718
H49   H     H_    0.851940 0.071239 0.990092 0.120751
H50   H     H_    0.143458 0.924053 0.028716 0.124402
H51   H     H_    0.146348 0.071384 0.007446 0.120857
H52   H     H_    0.855827 0.924084 0.970156 0.124319
H53   H     H_    0.350909 0.571180 0.988521 0.120771
H54   H     H_    0.642476 0.423984 0.027360 0.124429
H55   H     H_    0.647478 0.571309 0.009143 0.120852
H56   H     H_    0.356731 0.424020 0.971392 0.124332
H57   H     H_    0.923222 0.112618 0.102625 0.104794
H58   H     H_    0.556209 0.974582 0.956319 0.118215
H59   H     H_    0.073843 0.886161 0.910348 0.098798
H60   H     H_    0.075588 0.113192 0.895484 0.103928
H61   H     H_    0.925620 0.886455 0.088846 0.099422
H62   H     H_    0.422580 0.612370 0.101238 0.104864
H63   H     H_    0.573209 0.385936 0.909134 0.098647
H64   H     H_    0.576288 0.612914 0.896980 0.104004
H65   H     H_    0.426199 0.386256 0.089968 0.099304
H66   H     H_    0.710508 0.161239 0.880217 0.123516
H67   H     H_    0.290026 0.836979 0.123702 0.133126
H68   H     H_    0.288774 0.160801 0.118728 0.127810
H69   H     H_    0.400684 0.027100 0.959511 0.118982
H70   H     H_    0.709748 0.836729 0.875858 0.128837
H71   H     H_    0.209863 0.661415 0.879602 0.129046
H72   H     H_    0.789437 0.337123 0.123152 0.127964
H73   H     H_    0.789475 0.660992 0.119398 0.133287
H74   H     H_    0.210302 0.336851 0.876356 0.123564
H75   H     H_    0.746259 0.095486 0.878357 0.122375
H76   H     H_    0.251616 0.899895 0.135152 0.124096
H77   H     H_    0.252271 0.095116 0.119584 0.122695
H78   H     H_    0.747821 0.899652 0.863889 0.123411
H79   H     H_    0.245211 0.595633 0.877186 0.124757
H80   H     H_    0.443008 0.974573 0.042690 0.116212
H81   H     H_    0.750646 0.400004 0.134140 0.122227
H82   H     H_    0.753418 0.595271 0.120855 0.125142
H83   H     H_    0.248723 0.399741 0.864801 0.121584
H84   H     H_    0.193287 0.689167 0.985995 0.148228
H85   H     H_    0.806138 0.311291 0.013319 0.148539
H86   H     H_    0.806593 0.689169 0.013815 0.149408
H87   H     H_    0.193943 0.311321 0.986847 0.148062
H88   H     H_    0.693619 0.189117 0.986619 0.148663
H89   H     H_    0.306469 0.811242 0.013942 0.149037
H90   H     H_    0.306250 0.189118 0.013173 0.149048
H91   H     H_    0.598744 0.026991 0.039734 0.117553
H92   H     H_    0.693615 0.811273 0.986229 0.147615
H93   H     H_    0.804224 0.308190 0.549656 0.114250
H94   H     H_    0.148615 0.726185 0.450835 0.116564
H95   H     H_    0.149185 0.274532 0.450963 0.116895
H96   H     H_    0.804580 0.691912 0.549660 0.114381
H97   H     H_    0.304889 0.808010 0.549640 0.114185
H98   H     H_    0.648882 0.225858 0.450904 0.116938
H99   H     H_    0.648889 0.774174 0.450889 0.116561
H100  H     H_    0.303897 0.191727 0.549680 0.114425
H101  H     H_    0.966843 0.188038 0.101072 0.107015
H102  H     H_    0.818291 0.192564 0.695479 0.133196
H103  H     H_    0.987319 0.160929 0.185990 0.105524
H104  H     H_    0.984588 0.212503 0.184810 0.162718
H105  H     H_    0.012301 0.840436 0.818008 0.102289
H106  H     H_    0.032451 0.810555 0.899824 0.110929
H107  H     H_    0.015761 0.788982 0.814215 0.154240
H108  H     H_    0.032712 0.188769 0.897850 0.108809
H109  H     H_    0.012095 0.161816 0.812726 0.104855
H110  H     H_    0.015353 0.213398 0.814378 0.155761
H111  H     H_    0.987399 0.840935 0.181470 0.102637
H112  H     H_    0.967400 0.810868 0.099918 0.109001
N1    N     N_1   0.907941 0.348422 0.728884 -0.269128
N2    N     N_1   0.896902 0.614993 0.057755 -0.287864
N3    N     N_1   0.839452 0.381343 0.937071 -0.295053
N4    N     N_1   0.102521 0.614946 0.941457 -0.287128
N5    N     N_1   0.601292 0.885112 0.939667 -0.286389
N6    N     N_1   0.339931 0.118636 0.938823 -0.294913
N7    N     N_1   0.398071 0.885052 0.059469 -0.287283
N8    N     N_1   0.659844 0.118442 0.060768 -0.296696
N9    N     N_1   0.005819 0.713924 0.272094 -0.266666
N10   N     N_1   0.006534 0.287225 0.272386 -0.271788
N11   N     N_1   0.908757 0.651774 0.728864 -0.265334
N12   N     N_1   0.409374 0.848085 0.728822 -0.265030
N13   N     N_1   0.506112 0.213472 0.272232 -0.272421
N14   N     N_1   0.506196 0.786707 0.272232 -0.265668
N15   N     N_1   0.407289 0.151433 0.728934 -0.269228
N16   N     N_1   0.160326 0.381547 0.062524 -0.296884
O1    O     O_3   0.000000 0.250000 0.000000 -0.452538
O2    O     O_R   0.406930 0.227260 0.045480 -0.528849
O3    O     O_R   0.406930 0.772740 0.045480 -0.524232
O4    O     O_R   0.593070 0.227260 0.954520 -0.536474
O5    O     O_R   0.117100 0.227270 0.173460 -0.550476
O6    O     O_R   0.882900 0.772730 0.826540 -0.550151
O7    O     O_R   0.882900 0.227270 0.826540 -0.548431
O8    O     O_R   0.117100 0.772730 0.173460 -0.552063
O9    O     O_R   0.617100 0.727270 0.173460 -0.551289
O10   O     O_R   0.382900 0.272730 0.826540 -0.549027
O11   O     O_R   0.382900 0.727270 0.826540 -0.549596
O12   O     O_3   1.000000 0.750000 0.000000 -0.453905
O13   O     O_R   0.617100 0.272730 0.173460 -0.551277
O14   O     O_R   0.053120 0.163270 0.045480 -0.554844
O15   O     O_R   0.946880 0.836730 0.954520 -0.553118
O16   O     O_R   0.946880 0.163270 0.954520 -0.556701
O17   O     O_R   0.053120 0.836730 0.045480 -0.551552
O18   O     O_R   0.553120 0.663270 0.045480 -0.554335
O19   O     O_R   0.446880 0.336730 0.954520 -0.553601
O20   O     O_R   0.446880 0.663270 0.954520 -0.556197
O21   O     O_R   0.553120 0.336730 0.045480 -0.552020
O22   O     O_R   0.007620 0.336730 0.954520 -0.519913
O23   O     O_3   0.500000 0.750000 0.000000 -0.452951
O24   O     O_R   0.992380 0.663270 0.045480 -0.526541
O25   O     O_R   0.992380 0.336730 0.045480 -0.530431
O26   O     O_R   0.007620 0.663270 0.954520 -0.518265
O27   O     O_R   0.507620 0.836730 0.954520 -0.518527
O28   O     O_R   0.492380 0.163270 0.045480 -0.530287
O29   O     O_R   0.492380 0.836730 0.045480 -0.526674
O30   O     O_R   0.507620 0.163270 0.954520 -0.519697
O31   O     O_R   0.056370 0.272740 0.173460 -0.531841
O32   O     O_R   0.943630 0.727260 0.826540 -0.532350
O33   O     O_R   0.943630 0.272740 0.826540 -0.534901
O34   O     O_3   0.500000 0.250000 0.000000 -0.453502
O35   O     O_R   0.056370 0.727260 0.173460 -0.529968
O36   O     O_R   0.556370 0.772740 0.173460 -0.530623
O37   O     O_R   0.443630 0.227260 0.826540 -0.534321
O38   O     O_R   0.443630 0.772740 0.826540 -0.532850
O39   O     O_R   0.556370 0.227260 0.173460 -0.531151
O40   O     O_R   0.138550 0.227260 0.045470 -0.543427
O41   O     O_R   0.861450 0.772740 0.954530 -0.543998
O42   O     O_R   0.861450 0.227260 0.954530 -0.543486
O43   O     O_R   0.138550 0.772740 0.045470 -0.544011
O44   O     O_R   0.638550 0.727260 0.045470 -0.544826
O45   O     O_R   0.093070 0.272740 0.954520 -0.535686
O46   O     O_R   0.361450 0.272740 0.954530 -0.542651
O47   O     O_R   0.361450 0.727260 0.954530 -0.544835
O48   O     O_R   0.638550 0.272740 0.045470 -0.542592
O49   O     O_3   0.896045 0.186067 0.120545 -0.569546
O50   O     O_3   0.103931 0.815818 0.881911 -0.575569
O51   O     O_3   0.103644 0.186608 0.878612 -0.573533
O52   O     O_3   0.895919 0.816120 0.117824 -0.572001
O53   O     O_3   0.395828 0.685809 0.119820 -0.571370
O54   O     O_3   0.603708 0.315590 0.881242 -0.573681
O55   O     O_3   0.603869 0.686331 0.879406 -0.575117
O56   O     O_R   0.906930 0.727260 0.045480 -0.524916
O57   O     O_3   0.396126 0.315917 0.118453 -0.569876
O58   O     O_R   0.906930 0.272740 0.045480 -0.528260
O59   O     O_R   0.093070 0.727260 0.954520 -0.532613
O60   O     O_R   0.593070 0.772740 0.954520 -0.531712
Zn1   Zn    Zn3+2 0.989110 0.282490 0.064980 0.969347
Zn2   Zn    Zn3+2 0.924120 0.782490 0.935020 0.914737
Zn3   Zn    Zn3+2 0.924120 0.217510 0.935020 0.918049
Zn4   Zn    Zn3+2 0.075880 0.782490 0.064980 0.913378
Zn5   Zn    Zn3+2 0.575880 0.717510 0.064980 0.913634
Zn6   Zn    Zn3+2 0.424120 0.282490 0.935020 0.917987
Zn7   Zn    Zn3+2 0.424120 0.717510 0.935020 0.914731
Zn8   Zn    Zn3+2 0.575880 0.282490 0.064980 0.916685
Zn9   Zn    Zn3+2 0.010890 0.717510 0.935020 0.967671
Zn10  Zn    Zn3+2 0.010890 0.282490 0.935020 0.968813
Zn11  Zn    Zn3+2 0.989110 0.717510 0.064980 0.968852
Zn12  Zn    Zn3+2 0.489110 0.782490 0.064980 0.969201
Zn13  Zn    Zn3+2 0.510890 0.217510 0.935020 0.968299
Zn14  Zn    Zn3+2 0.510890 0.782490 0.935020 0.968144
Zn15  Zn    Zn3+2 0.489110 0.217510 0.064980 0.968929
Zn16  Zn    Zn3+2 0.075880 0.217510 0.064980 0.916985

loop_
_geom_bond_atom_site_label_1
_geom_bond_atom_site_label_2
_ccdc_geom_bond_type
C131  H16   S    
C158  H50   S    
O24   Zn11  S    
C203  O42   A    
C129  H7    S    
C27   H28   S    
O1    Zn10  S    
C25   H26   S    
C153  H79   S    
O16   Zn3   S    
C171  C183  A    
C35   C124  A    
C181  C207  S    
C92   C119  S    
C8    C214  A    
O48   Zn8   S    
C162  H57   S    
C95   C99   A    
C193  C211  A    
C76   C98   S    
C126  H108  S    
O47   Zn7   S    
C2    C90   A    
C71   O15   A    
C142  H68   S    
C134  C143  A    
C173  H59   S    
C44   C53   A    
C154  H81   S    
C70   O14   A    
C93   C120  S    
C4    C12   A    
C83   H58   S    
C123  O49   S    
C125  O50   S    
C87   C115  S    
C108  C213  S    
O22   Zn10  S    
C66   O10   A    
C130  H12   S    
C144  H71   S    
C168  H86   S    
O34   Zn6   S    
C205  O60   A    
C57   C133  A    
O43   Zn4   S    
C79   O53   S    
O23   Zn14  S    
C65   O36   A    
O9    Zn5   S    
C11   C20   A    
C150  C159  A    
C198  H98   S    
C163  H54   S    
C123  H103  S    
C35   C162  A    
O25   Zn1   S    
C137  C146  A    
C69   O39   A    
C199  H99   S    
C101  C137  A    
C179  C188  A    
O13   Zn8   S    
C209  O4    A    
C105  C210  S    
C5    C64   S    
C153  C161  A    
C7    C62   S    
C61   O31   A    
C181  C190  A    
C120  N6    T    
C91   C118  S    
C192  C210  A    
C131  H14   S    
C1    C41   A    
C115  N16   T    
O32   Zn9   S    
C38   C200  A    
C73   O19   A    
O7    Zn3   S    
C63   O7    A    
C157  H49   S    
C57   O51   S    
C175  C183  A    
C22   H23   S    
C202  O41   A    
C113  O57   S    
C16   C25   A    
O39   Zn15  S    
C71   O17   A    
C62   O32   A    
O37   Zn13  S    
C9    C69   S    
C77   O28   A    
C105  N1    T    
C8    C17   A    
C30   C36   S    
C127  H112  S    
C89   C96   A    
C24   C165  A    
O41   Zn2   S    
C80   C88   A    
C23   H24   S    
C16   H17   S    
O27   Zn14  S    
C170  C185  A    
C68   C195  A    
C193  H94   S    
C44   H37   S    
O19   Zn6   S    
C3    C11   A    
C86   C95   A    
C1    C39   A    
C194  C212  A    
C43   H35   S    
C24   H65   S    
C130  H10   S    
C143  H70   S    
O42   Zn3   S    
C14   H2    S    
C74   O25   A    
C157  C162  A    
C197  C214  A    
C204  O59   A    
C78   C87   A    
O30   Zn13  S    
C119  N5    T    
C165  H56   S    
C123  H101  S    
C201  O40   A    
C29   H30   S    
C134  C186  S    
C124  C139  A    
C86   C104  A    
C19   H20   S    
C174  C182  A    
C40   C112  A    
C75   O26   A    
C17   H18   S    
C9    C215  A    
C130  O55   S    
C155  H82   S    
C133  C142  A    
C90   O54   S    
O34   Zn13  S    
C83   C103  A    
C125  H106  S    
C6    C61   S    
C175  C204  S    
C180  C189  A    
C62   O6    A    
C132  C183  S    
C46   C132  A    
C43   C52   A    
C40   C49   A    
C52   H44   S    
C53   H45   S    
C80   H25   S    
C145  H72   S    
C42   C112  A    
C85   H80   S    
C49   H41   S    
C172  C181  A    
C33   C196  A    
C205  O44   A    
C29   C38   A    
C73   O21   A    
C30   C192  A    
C64   O35   A    
C149  C158  A    
C128  H4    S    
C84   C93   A    
C137  C191  S    
C136  C188  S    
C101  O55   S    
C86   H91   S    
C53   C60   A    
C3    C200  A    
C54   C59   A    
C135  C189  S    
C139  C148  A    
C55   H48   S    
C74   C96   S    
C108  N11   T    
O34   Zn15  S    
C209  O48   A    
C109  C214  S    
C31   C193  A    
C202  O56   A    
C26   H27   S    
C50   H42   S    
O5    Zn16  S    
C50   C56   A    
C80   C102  A    
C116  N2    T    
C194  H95   S    
O26   Zn9   S    
C109  N12   T    
C167  H85   S    
O18   Zn5   S    
O44   Zn5   S    
C82   C102  A    
C31   C34   S    
C43   C140  A    
C19   C28   A    
C82   C91   A    
O3    Zn12  S    
C145  C154  A    
C164  H55   S    
C89   C117  S    
C160  H52   S    
C84   C104  A    
O59   Zn9   S    
C110  N13   T    
C131  H15   S    
C132  C141  A    
C196  H96   S    
C106  N9    T    
C76   O29   A    
C3    C114  S    
C85   C103  A    
C128  H5    S    
C66   O37   A    
C166  H84   S    
C45   H38   S    
C170  C179  A    
C46   O50   S    
C166  C189  A    
C14   C22   A    
C169  H87   S    
C88   C97   A    
C170  H88   S    
C10   C216  A    
C208  O47   A    
O35   Zn11  S    
C28   C37   A    
C106  C211  S    
O36   Zn12  S    
C126  H109  S    
C63   O33   A    
C77   C99   S    
C61   O5    A    
C148  C157  A    
C204  O43   A    
C121  N7    T    
C9    C18   A    
C8    C67   S    
C178  C201  S    
C129  H9    S    
O38   Zn14  S    
C114  N15   T    
C57   C184  A    
C35   O49   S    
C13   H64   S    
C25   C33   A    
O29   Zn12  S    
O31   Zn1   S    
C84   H69   S    
O10   Zn6   S    
C156  H83   S    
C176  C203  S    
C208  O3    A    
C127  H3    S    
C176  C185  A    
C166  C175  A    
C36   C198  A    
C146  H73   S    
C58   C71   S    
C68   O52   S    
C195  H61   S    
C94   C98   A    
C172  C187  A    
C168  C177  A    
O8    Zn4   S    
C60   C73   S    
C75   C97   S    
C206  H62   S    
O45   Zn10  S    
C117  N3    T    
C171  H89   S    
C146  C155  A    
C69   O13   A    
C159  C184  A    
C93   C99   A    
O1    Zn16  S    
C11   C66   S    
C59   C72   S    
C81   C89   A    
C65   O9    A    
C149  H76   S    
C55   C60   A    
C15   H13   S    
C129  H8    S    
C198  C215  A    
C201  O45   A    
C5    C211  A    
C92   C98   A    
C174  H92   S    
C111  C216  S    
C172  H90   S    
C207  O46   A    
C18   H19   S    
O12   Zn2   S    
C45   C140  A    
C33   C37   S    
C127  H111  S    
O23   Zn12  S    
C47   H39   S    
C158  C173  A    
C4    C63   S    
C10   C19   A    
C46   C173  A    
C51   C58   A    
C91   C97   A    
C147  C156  A    
C140  C151  S    
C5    C14   A    
C160  C195  A    
C39   H31   S    
C178  C187  A    
C143  C152  A    
C47   C151  A    
C130  H11   S    
O33   Zn10  S    
C78   C100  A    
C161  C206  A    
C182  C191  A    
C17   C26   A    
C81   H36   S    
C122  N8    T    
C41   C50   A    
C13   C164  A    
C51   H43   S    
C139  H66   S    
C123  H104  S    
C150  H77   S    
C2    C163  A    
C107  C212  S    
C81   C100  A    
C27   C36   A    
O6    Zn2   S    
C79   C135  A    
C21   C30   A    
C125  H105  S    
O60   Zn14  S    
C23   C32   A    
C142  C150  A    
C68   C134  A    
C110  C215  S    
C78   H1    S    
C107  N10   T    
C148  H75   S    
C156  C165  A    
C126  O51   S    
C177  C186  A    
C94   C121  S    
C42   H34   S    
C77   O30   A    
C103  C104  S    
C113  C138  A    
C129  O54   S    
O23   Zn7   S    
C118  N4    T    
C39   C48   A    
C147  H74   S    
O4    Zn13  S    
C184  H60   S    
C152  C160  A    
C12   H102  S    
O28   Zn15  S    
O12   Zn11  S    
C141  C149  A    
O12   Zn4   S    
C83   C92   A    
O20   Zn7   S    
C168  C191  A    
C192  H93   S    
C72   O18   A    
C203  O58   A    
C124  C185  S    
C6    C212  A    
C127  O52   S    
C167  C188  A    
C159  H51   S    
C20   H21   S    
C197  H97   S    
O40   Zn16  S    
C4    C210  A    
C144  C153  A    
O21   Zn8   S    
C141  H67   S    
O15   Zn2   S    
C6    C15   A    
O12   Zn9   S    
C26   C34   A    
C200  H100  S    
O11   Zn7   S    
C74   O22   A    
C32   C38   S    
C48   H40   S    
C136  C145  A    
C42   C51   A    
O1    Zn1   S    
C21   H22   S    
C24   C113  A    
C138  C190  S    
C169  C190  A    
C40   H32   S    
C131  O57   S    
C20   C29   A    
C44   C151  A    
C22   C31   A    
C125  H107  S    
C199  C216  A    
C54   H46   S    
C154  C163  A    
C32   C194  A    
C128  H6    S    
C2    H63   S    
C133  C187  S    
C207  O2    A    
C12   C21   A    
C49   C58   A    
C88   C116  S    
C152  H78   S    
C52   C59   A    
O58   Zn1   S    
C90   C136  A    
C85   C94   A    
C138  C147  A    
C87   C96   A    
C126  H110  S    
C100  C102  S    
C75   O24   A    
O56   Zn11  S    
O23   Zn5   S    
C7    C213  A    
C135  C144  A    
C45   C54   A    
C56   C70   S    
C70   O16   A    
C171  C180  A    
C13   C101  A    
C169  C178  A    
C76   O27   A    
C95   C122  S    
C47   C55   A    
C10   C65   S    
C48   C56   A    
O17   Zn4   S    
C7    C16   A    
O34   Zn8   S    
C18   C27   A    
C72   O20   A    
C1    C112  S    
C155  C164  A    
C79   C206  A    
C128  O53   S    
C179  C209  S    
C111  N14   T    
C67   O11   A    
O2    Zn15  S    
C182  C205  S    
C174  C186  A    
C196  C213  A    
C34   C197  A    
O46   Zn6   S    
C15   C23   A    
C28   H29   S    
C37   C199  A    
O1    Zn3   S    
C64   O8    A    
O14   Zn16  S    
C67   O38   A    
C41   H33   S    
C82   H47   S    
C177  C202  S    
C161  H53   S    
C180  C208  S    
C167  C176  A    
