data_mof_unit_34832.cif
_audit_creation_date              2012-12-10T18:57:11-0500
_audit_creation_method            fapswitch 2.2
_symmetry_space_group_name_H-M    P1
_symmetry_Int_Tables_number       1
_space_group_crystal_system       triclinic
_cell_length_a                    8.733111
_cell_length_b                    10.848609
_cell_length_c                    9.56164
_cell_angle_alpha                 89.199414
_cell_angle_beta                  97.465155
_cell_angle_gamma                 90.960974
_cell_volume                      898.021766115

loop_
_atom_site_label
_atom_site_type_symbol
_atom_type_description
_atom_site_fract_x
_atom_site_fract_y
_atom_site_fract_z
_atom_type_partial_charge
C1    C     C_R   0.497985 0.262575 0.500416 0.850637
C2    C     C_R   0.467517 0.938998 0.370092 0.612189
C3    C     C_R   0.490068 0.871204 0.497351 -0.095213
C4    C     C_R   0.512762 0.934338 0.625163 -0.251525
C5    C     C_3   0.414330 0.926357 0.742758 0.411010
C6    C     C_3   0.420153 0.066016 0.744742 0.984415
C7    C     C_R   0.626485 0.540942 0.087241 0.238254
C8    C     C_R   0.385967 0.442265 0.063150 -0.187741
C9    C     C_R   0.384534 0.440422 0.912161 0.593419
C10   C     C_R   0.627677 0.538356 0.940635 0.027390
C11   C     C_3   0.711182 0.658362 0.936353 -0.572453
C12   C     C_R   0.204315 0.497421 0.464185 0.766720
C13   C     C_3   0.701070 0.666470 0.093776 0.909904
C14   C     C_R   0.493854 0.737516 0.498540 0.842489
C15   C     C_R   0.795928 0.501400 0.535427 0.891300
C16   C     C_2   0.039442 0.487697 0.444361 0.481274
C17   C     C_2   0.961365 0.508928 0.552734 -0.484540
C18   C     C_R   0.518435 0.062461 0.626578 -0.187571
C19   C     C_R   0.497969 0.129475 0.500196 -0.089728
C20   C     C_R   0.474105 0.066823 0.371790 -0.280606
Cu1   Cu    Cu3+1 0.499990 0.499980 0.640670 1.020344
Cu2   Cu    Cu3+1 0.500010 0.500020 0.359330 1.046631
H1    H     H_    0.830617 0.646407 0.910722 0.187496
H2    H     H_    0.643969 0.729137 0.871800 0.204383
H3    H     H_    0.019887 0.535715 0.655314 0.139991
H4    H     H_    0.452608 0.116620 0.272385 0.186570
H5    H     H_    0.470490 0.881494 0.840522 0.093044
H6    H     H_    0.296953 0.396964 0.113954 0.175509
N1    N     N_R   0.500980 0.500930 0.148050 -0.216089
N2    N     N_R   0.500990 0.500890 0.852140 -0.205103
O1    O     O_R   0.500000 0.319640 0.618810 -0.533117
O2    O     O_R   0.500020 0.319680 0.381230 -0.609158
O3    O     O_R   0.274830 0.499980 0.591380 -0.564679
O4    O     O_R   0.274850 0.500020 0.353800 -0.567622
O5    O     O_R   0.499980 0.680320 0.618770 -0.583155
O6    O     O_R   0.500000 0.680360 0.381190 -0.498568
O7    O     O_R   0.725150 0.499980 0.646200 -0.609658
O8    O     O_R   0.725170 0.500020 0.408620 -0.496653
F1    F     F_    0.968786 0.452564 0.315253 -0.634638
O9    O     O_3   0.277472 0.370387 0.824020 -0.511097
C21   C     C_3   0.132911 0.352886 0.874542 0.070650
H7    H     H_    0.042188 0.348331 0.782155 0.174910
H8    H     H_    0.100723 0.431813 0.937590 0.117672
C22   C     C_3   0.125776 0.230118 0.954456 -0.710384
H9    H     H_    0.239165 0.207062 0.014742 0.267029
H10   H     H_    0.039073 0.235792 0.029056 0.195591
H11   H     H_    0.090752 0.154288 0.879738 0.280992
O10   O     O_3   0.846037 0.667576 0.179115 -0.561750
C23   C     C_3   0.907902 0.788874 0.187500 0.060008
H12   H     H_    0.836696 0.849055 0.245979 0.192342
H13   H     H_    0.914668 0.829101 0.080576 0.144270
C24   C     C_3   0.070178 0.786898 0.267418 -0.649026
H14   H     H_    0.144937 0.726869 0.212937 0.280941
H15   H     H_    0.119848 0.881850 0.272634 0.227782
H16   H     H_    0.066851 0.751801 0.376620 0.227716
F2    F     F_    0.600840 0.756082 0.125341 -0.639185
F3    F     F_    0.425680 0.883393 0.244871 -0.617726
F4    F     F_    0.267812 0.879403 0.697964 -0.628231
F5    F     F_    0.277461 0.117063 0.700396 -0.614601
O11   O     O_3   0.486565 0.116186 0.876382 -0.588829
C25   C     C_3   0.649154 0.105625 0.904411 -0.020824
H17   H     H_    0.705723 0.177904 0.844332 0.175760
H18   H     H_    0.689604 0.013260 0.877540 0.125633
C26   C     C_3   0.698812 0.124201 0.061111 -0.720900
H19   H     H_    0.644409 0.051901 0.122383 0.275370
H20   H     H_    0.825944 0.116235 0.085181 0.196760
H21   H     H_    0.663806 0.216624 0.092984 0.253976

loop_
_geom_bond_atom_site_label_1
_geom_bond_atom_site_label_2
_ccdc_geom_bond_type
C8    C9    A    
C13   O10   S    
C22   H11   S    
C15   O8    A    
C7    N1    A    
Cu2   N1    S    
C25   C26   S    
Cu1   O1    S    
C21   H7    S    
C10   N2    A    
C19   C20   A    
C24   H16   S    
C1    O1    A    
C13   F2    S    
C17   H3    S    
C26   H19   S    
C23   C24   S    
C2    C3    A    
C2    F3    S    
C4    C18   A    
C15   O7    A    
Cu1   Cu2   S    
C24   H14   S    
C4    C5    S    
C11   C13   S    
C25   H17   S    
C3    C14   S    
C20   H4    S    
C5    F4    S    
Cu2   O4    S    
C8    N1    A    
C9    N2    A    
C11   H1    S    
O10   C23   S    
C22   H10   S    
C23   H12   S    
C9    O9    S    
C14   O6    A    
C5    C6    S    
C8    H6    S    
C21   C22   S    
C6    C18   S    
Cu1   O5    S    
Cu1   O3    S    
C10   C11   S    
C16   F1    S    
C2    C20   A    
C3    C4    A    
Cu2   O8    S    
C26   H21   S    
C6    O11   S    
C11   H2    S    
C7    C13   S    
Cu2   O2    S    
Cu1   O7    S    
C22   H9    S    
C15   C17   S    
C18   C19   A    
Cu1   N2    S    
C7    C10   A    
C14   O5    A    
C25   H18   S    
O9    C21   S    
C12   O3    A    
C5    H5    S    
C1    C19   S    
C12   O4    A    
C6    F5    S    
C1    O2    A    
Cu2   O6    S    
C21   H8    S    
C12   C16   S    
C16   C17   D    
C24   H15   S    
O11   C25   S    
C23   H13   S    
C26   H20   S    
