data_mof_unit_8292.cif
_audit_creation_date              2012-12-10T17:44:35-0500
_audit_creation_method            fapswitch 2.2
_symmetry_space_group_name_H-M    P1
_symmetry_Int_Tables_number       1
_space_group_crystal_system       triclinic
_cell_length_a                    9.947715
_cell_length_b                    10.611665
_cell_length_c                    15.471593
_cell_angle_alpha                 89.850697
_cell_angle_beta                  67.218072
_cell_angle_gamma                 90.130262
_cell_volume                      1505.78055213

loop_
_atom_site_label
_atom_site_type_symbol
_atom_type_description
_atom_site_fract_x
_atom_site_fract_y
_atom_site_fract_z
_atom_type_partial_charge
C1    C     C_R   0.499334 0.739285 0.501055 0.918672
C2    C     C_R   0.697459 0.386372 0.044815 0.179423
C3    C     C_R   0.569842 0.457093 0.093268 0.090342
C4    C     C_R   0.408055 0.499404 0.675957 0.839077
C5    C     C_R   0.799192 0.364379 0.085792 -0.160744
C6    C     C_R   0.772461 0.408765 0.175800 -0.174123
C7    C     C_R   0.554043 0.511287 0.178671 -0.202708
C8    C     C_R   0.521577 0.866816 0.659375 -0.170863
C9    C     C_R   0.534774 0.931488 0.734047 -0.109719
C10   C     C_R   0.535148 0.062566 0.734593 -0.140405
C11   C     C_R   0.522186 0.129320 0.660496 -0.180350
C12   C     C_R   0.396039 0.466262 0.918985 0.071033
C13   C     C_R   0.510520 0.065061 0.583613 0.097256
C14   C     C_R   0.510572 0.933122 0.582766 0.049439
C15   C     C_R   0.496158 0.871697 0.505853 -0.163959
C16   C     C_R   0.498315 0.260872 0.502725 0.879624
C17   C     C_R   0.477426 0.937461 0.432787 0.169998
C18   C     C_R   0.476154 0.066171 0.434817 -0.239474
C19   C     C_R   0.494816 0.128608 0.508092 -0.139822
C20   C     C_R   0.892616 0.729891 0.478244 0.215748
C21   C     C_R   0.930765 0.837889 0.515621 -0.188601
C22   C     C_R   0.019001 0.826832 0.566925 -0.212402
C23   C     C_R   0.260914 0.525849 0.971696 0.099484
C24   C     C_R   0.086212 0.711553 0.568165 -0.127691
C25   C     C_R   0.056282 0.606590 0.523513 0.147891
C26   C     C_R   0.929722 0.611084 0.502709 0.104126
C27   C     C_R   0.933594 0.391403 0.491195 -0.120954
C28   C     C_R   0.591760 0.498741 0.324003 0.906024
C29   C     C_R   0.080097 0.392651 0.485545 -0.114638
C30   C     C_R   0.348646 0.498651 0.777981 -0.091037
C31   C     C_R   0.647139 0.479764 0.223040 -0.045953
C32   C     C_R   0.168691 0.566321 0.926758 0.151267
C33   C     C_R   0.213079 0.551484 0.830176 -0.225917
C34   C     C_R   0.492957 0.431489 0.962467 0.088775
C35   C     C_R   0.436379 0.453361 0.822394 -0.268265
C36   C     C_R   0.461937 0.471756 0.055263 0.067985
C37   C     C_R   0.322662 0.522296 0.107947 -0.213870
C38   C     C_R   0.223642 0.547132 0.067100 -0.188327
C39   C     C_R   0.620728 0.359550 0.916067 -0.222606
C40   C     C_R   0.720343 0.336820 0.957116 -0.208327
H1    H     H_    0.119565 0.586957 0.110793 0.200565
H2    H     H_    0.044903 0.909108 0.598803 0.166959
H3    H     H_    0.154043 0.703669 0.607885 0.176364
H4    H     H_    0.140912 0.305592 0.472286 0.157713
H5    H     H_    0.845497 0.383114 0.209729 0.162611
H6    H     H_    0.816239 0.280802 0.919682 0.152543
H7    H     H_    0.145406 0.587673 0.795284 0.172928
H8    H     H_    0.540952 0.415674 0.778606 0.158173
H9    H     H_    0.644812 0.315730 0.848987 0.138371
H10   H     H_    0.465625 0.574731 0.214666 0.173192
H11   H     H_    0.285320 0.541153 0.182013 0.165741
H12   H     H_    0.896331 0.309239 0.049670 0.149086
H13   H     H_    0.518334 0.765117 0.663150 0.146149
H14   H     H_    0.543284 0.879679 0.792077 0.151911
H15   H     H_    0.543906 0.112690 0.793044 0.139144
H16   H     H_    0.519497 0.230973 0.664777 0.140232
H17   H     H_    0.464122 0.118161 0.377767 0.170938
H18   H     H_    0.884940 0.303058 0.483690 0.158034
H19   H     H_    0.900603 0.930432 0.499730 0.170914
I1    I     I_    0.458352 0.850206 0.314203 -0.328268
I2    I     I_    0.889939 0.754441 0.342183 -0.307430
I3    I     I_    0.970355 0.665768 0.995628 -0.374620
N1    N     N_R   0.856800 0.501200 0.500850 -0.110430
N2    N     N_R   0.142390 0.501280 0.500880 -0.109475
O1    O     O_R   0.385310 0.683220 0.500000 -0.614555
O2    O     O_R   0.614640 0.683250 0.500010 -0.605550
O3    O     O_R   0.319840 0.499980 0.632240 -0.622671
O4    O     O_R   0.549160 0.500000 0.632250 -0.620607
O5    O     O_R   0.385360 0.316750 0.499990 -0.620721
O6    O     O_R   0.614690 0.316780 0.500000 -0.627690
O7    O     O_R   0.450840 0.500000 0.367750 -0.601807
O8    O     O_R   0.680160 0.500020 0.367760 -0.586794
Zn1   Zn    Zn3+2 0.346880 0.499980 0.499990 0.953755
Zn2   Zn    Zn3+2 0.653120 0.500020 0.500010 0.959885

loop_
_geom_bond_atom_site_label_1
_geom_bond_atom_site_label_2
_ccdc_geom_bond_type
C6    H5    S    
C27   C29   A    
C40   H6    S    
C12   C23   A    
C30   C35   A    
C36   C37   A    
C21   H19   S    
C3    C7    A    
C5    C6    A    
C37   H11   S    
O4    Zn2   S    
O2    Zn2   S    
O1    Zn1   S    
C18   C19   A    
C20   I2    S    
C8    C9    A    
O6    Zn2   S    
C1    O1    A    
N2    Zn1   S    
C5    H12   S    
O5    Zn1   S    
O3    Zn1   S    
C9    C10   A    
C6    C31   A    
C29   N2    A    
C13   C14   A    
C28   O8    A    
C35   H8    S    
C1    O2    A    
C7    C31   A    
C13   C19   A    
C34   C39   A    
C16   O6    A    
C24   C25   A    
C38   H1    S    
O8    Zn2   S    
C39   C40   A    
C4    O4    A    
C25   C26   A    
C25   N2    A    
C26   N1    A    
C37   C38   A    
C18   H17   S    
C17   C18   A    
C12   C35   A    
C10   H15   S    
C27   N1    A    
C1    C15   S    
C39   H9    S    
C29   H4    S    
C33   H7    S    
C22   C24   A    
C28   O7    A    
C12   C34   A    
O7    Zn1   S    
C15   C17   A    
C8    C14   A    
C30   C33   A    
C28   C31   S    
C16   O5    A    
C7    H10   S    
C27   H18   S    
C8    H13   S    
C4    O3    A    
N1    Zn2   S    
C23   C38   A    
C23   C32   A    
C2    C3    A    
C32   I3    S    
C32   C33   A    
C11   C13   A    
C22   H2    S    
C20   C26   A    
C3    C36   A    
C16   C19   S    
C34   C36   A    
C10   C11   A    
C17   I1    S    
C2    C5    A    
C2    C40   A    
C20   C21   A    
C24   H3    S    
C14   C15   A    
C9    H14   S    
C21   C22   A    
C4    C30   S    
C11   H16   S    
