data_mof_unit_35709.cif
_audit_creation_date              2013-03-05T16:32:26-0500
_audit_creation_method            fapswitch 2.2
_symmetry_space_group_name_H-M    P1
_symmetry_Int_Tables_number       1
_space_group_crystal_system       triclinic
_cell_length_a                    10.627485
_cell_length_b                    10.829163
_cell_length_c                    9.555462
_cell_angle_alpha                 90.28291
_cell_angle_beta                  90.356887
_cell_angle_gamma                 90.177137
_cell_volume                      1099.66713206

loop_
_atom_site_label
_atom_site_type_symbol
_atom_site_description
_atom_site_fract_x
_atom_site_fract_y
_atom_site_fract_z
_atom_type_partial_charge
O1    O     O_R   0.500000 0.319640 0.618810 -0.556486
O2    O     O_R   0.500010 0.319680 0.381230 -0.568056
C1    C     C_R   0.497462 0.262404 0.499641 0.798263
O3    O     O_R   0.316850 0.499950 0.618770 -0.593765
O4    O     O_R   0.316860 0.499990 0.381190 -0.596788
C2    C     C_R   0.259299 0.499930 0.499482 0.783276
Cu1   Cu    Cu3+1 0.499990 0.499980 0.640670 0.968416
Cu2   Cu    Cu3+1 0.500010 0.500020 0.359330 0.956177
O5    O     O_R   0.499990 0.680320 0.618770 -0.577416
O6    O     O_R   0.500000 0.680360 0.381190 -0.590502
O7    O     O_R   0.683140 0.500010 0.618810 -0.587057
O8    O     O_R   0.683150 0.500050 0.381230 -0.582419
C3    C     C_R   0.497708 0.737726 0.500124 0.801815
C4    C     C_R   0.740708 0.499695 0.500463 0.777510
C5    C     C_3   0.042446 0.396155 0.560951 -0.168906
C6    C     C_3   0.957212 0.400132 0.429270 -0.163646
H1    H     H_    0.919022 0.318795 0.371755 0.137404
H2    H     H_    0.080354 0.311612 0.610950 0.139720
C7    C     C_3   0.877651 0.499329 0.501232 0.021737
C8    C     C_3   0.960625 0.495270 0.633015 -0.139799
C9    C     C_3   0.042791 0.598953 0.570299 -0.167457
C10   C     C_3   0.957626 0.602920 0.438539 -0.174197
C11   C     C_3   0.039486 0.503742 0.366506 -0.135241
C12   C     C_3   0.122382 0.499792 0.498407 0.024060
H3    H     H_    0.926631 0.490591 0.742372 0.132592
H4    H     H_    0.080879 0.680307 0.627872 0.135178
H5    H     H_    0.919675 0.687417 0.388473 0.129017
H6    H     H_    0.074303 0.507223 0.257266 0.131459
C13   C     C_R   0.479717 0.064744 0.624507 0.098817
C14   C     C_R   0.484613 0.129403 0.498799 -0.167736
C15   C     C_R   0.471380 0.063785 0.372210 -0.174125
H7    H     H_    0.467258 0.111221 0.272752 0.209435
C16   C     C_R   0.471486 0.935000 0.372628 -0.207722
H8    H     H_    0.467361 0.886392 0.273354 0.175955
C17   C     C_R   0.484952 0.870918 0.499610 -0.103572
C18   C     C_R   0.480265 0.937415 0.624979 0.087926
C19   C     C_3   0.564150 0.931815 0.750904 -0.543412
C20   C     C_3   0.564414 0.072177 0.749954 0.190154
H9    H     H_    0.515452 0.890616 0.842198 0.226442
H10   H     H_    0.657797 0.891725 0.726768 0.165015
H11   H     H_    0.658081 0.113911 0.728033 0.094365
C21   C     C_R   0.608600 0.520607 0.074580 0.302662
N1    N     N_R   0.500800 0.500930 0.147930 -0.195430
C22   C     C_R   0.395646 0.467082 0.073368 -0.038741
H12   H     H_    0.310552 0.441561 0.127448 0.136866
C23   C     C_R   0.395608 0.467148 0.924834 -0.003409
H13   H     H_    0.310466 0.441528 0.869479 0.143196
N2    N     N_R   0.500800 0.500890 0.852020 -0.191774
C24   C     C_R   0.608783 0.520177 0.927332 0.305513
C25   C     C_3   0.690164 0.632425 0.923274 -0.534921
C26   C     C_3   0.689638 0.632923 0.082153 -0.519181
H14   H     H_    0.784355 0.613109 0.878835 0.195268
H15   H     H_    0.641095 0.712501 0.876969 0.215574
H16   H     H_    0.783458 0.613129 0.128869 0.201086
H17   H     H_    0.640200 0.713820 0.127923 0.215782
N3    N     N_R   0.502079 0.126193 0.871838 0.152334
O9    O     O_R   0.562717 0.204792 0.950646 -0.391208
O10   O     O_R   0.387041 0.096039 0.903499 -0.380048

loop_
_geom_bond_atom_site_label_1
_geom_bond_atom_site_label_2
_geom_bond_distance
_ccdc_geom_bond_type
C13   C20   1.496235 S    
C5    H2    1.110386 S    
C25   H14   1.109868 S    
C11   C12   1.534093 S    
C15   C16   1.394657 A    
C19   C20   1.520065 S    
N3    O10   1.302285 A    
C1    C14   1.446302 S    
C7    C8    1.533673 S    
Cu2   N1    2.020168 S    
C21   C26   1.489359 S    
Cu2   O8    1.956238 S    
C26   H16   1.111795 S    
C2    C12   1.455057 S    
Cu1   N2    2.019488 S    
C16   H8    1.083180 S    
Cu1   Cu2   2.688336 S    
C19   H9    1.111739 S    
C23   H13   1.080067 S    
C9    C10   1.546854 S    
N3    O9    1.300410 A    
Cu1   O7    1.958892 S    
C13   C18   1.378922 A    
C13   C14   1.394544 A    
O3    Cu1   1.956238 S    
C4    C7    1.455344 S    
Cu2   O6    1.963045 S    
N2    C24   1.365727 A    
C16   C17   1.407514 A    
C9    H4    1.110351 S    
O8    C4    1.289815 A    
C3    C17   1.449167 S    
C6    C11   1.546031 S    
C26   H17   1.112076 S    
C10   H5    1.110416 S    
C6    C7    1.532084 S    
N1    C22   1.369597 A    
O4    C2    1.288602 A    
O7    C4    1.289097 A    
C23   N2    1.370052 A    
O4    Cu2   1.958893 S    
C6    H1    1.110329 S    
C8    H3    1.109112 S    
C21   C24   1.407023 A    
C5    C6    1.546668 S    
C25   H15   1.106073 S    
C7    C10   1.531931 S    
C20   N3    1.463810 S    
C8    C9    1.545775 S    
C20   H11   1.113458 S    
O3    C2    1.290208 A    
C24   C25   1.490461 S    
C21   N1    1.363496 A    
C9    C12   1.531689 S    
O2    Cu2   1.965139 S    
Cu1   O5    1.965137 S    
C19   H10   1.112070 S    
O5    C3    1.295787 A    
C10   C11   1.545981 S    
C18   C19   1.494655 S    
O1    Cu1   1.963045 S    
O2    C1    1.293396 A    
C25   C26   1.518186 S    
C11   H6    1.110426 S    
C5    C12   1.531489 S    
O6    C3    1.292886 A    
C14   C15   1.405940 A    
C22   H12   1.080240 S    
C15   H7    1.083252 S    
C22   C23   1.419312 A    
C5    C8    1.545406 S    
O1    C1    1.293881 A    
C17   C18   1.395910 A    
