data_mof_unit_6410.cif
_audit_creation_date              2012-10-26T18:43:33-0400
_audit_creation_method            fapswitch 2.2
_symmetry_space_group_name_H-M    P1
_symmetry_Int_Tables_number       1
_space_group_crystal_system       triclinic
_cell_length_a                    10.740562
_cell_length_b                    10.828304
_cell_length_c                    9.551896
_cell_angle_alpha                 90.570783
_cell_angle_beta                  90.051516
_cell_angle_gamma                 90.472149
_cell_volume                      1110.81190603

loop_
_atom_site_label
_atom_site_type_symbol
_atom_type_description
_atom_site_fract_x
_atom_site_fract_y
_atom_site_fract_z
_atom_type_partial_charge
C1    C     C_R   0.496977 0.262456 0.499262 0.539185
C2    C     C_R   0.471459 0.938551 0.623803 0.014450
C3    C     C_3   0.546271 0.936930 0.755632 -0.276342
C4    C     C_R   0.259956 0.498438 0.500154 0.537229
C5    C     C_3   0.544736 0.076798 0.754256 -0.260685
C6    C     C_R   0.604497 0.533075 0.074372 0.161010
C7    C     C_R   0.401380 0.454663 0.073713 -0.021594
C8    C     C_R   0.401333 0.454751 0.924986 -0.020229
C9    C     C_R   0.604816 0.532499 0.926986 0.158311
C10   C     C_3   0.670552 0.654001 0.923868 -0.283360
C11   C     C_3   0.670256 0.654355 0.082408 -0.275934
C12   C     C_3   0.878266 0.497654 0.500473 0.040772
C13   C     C_R   0.497508 0.737837 0.500323 0.546966
C14   C     C_R   0.740198 0.499562 0.500177 0.542991
C15   C     C_3   0.071443 0.494053 0.653253 -0.231821
C16   C     C_3   0.929043 0.490651 0.652506 -0.232694
C17   C     C_3   0.073590 0.613409 0.429171 -0.246333
C18   C     C_3   0.070203 0.378968 0.418955 -0.105194
C19   C     C_3   0.121960 0.494854 0.500789 0.055579
C20   C     C_3   0.116550 0.254279 0.478392 -0.264258
C21   C     C_3   0.097362 0.147077 0.373679 -0.310111
C22   C     C_3   0.126587 0.023031 0.440315 -0.450079
C23   C     C_3   0.930203 0.616373 0.432146 -0.243454
C24   C     C_3   0.925309 0.383721 0.416990 -0.213772
C25   C     C_R   0.470781 0.065656 0.622601 0.010298
C26   C     C_R   0.482934 0.129602 0.497476 -0.000354
C27   C     C_R   0.476720 0.063209 0.370481 -0.171958
C28   C     C_R   0.477285 0.934415 0.371429 -0.171873
C29   C     C_R   0.484327 0.871131 0.499335 0.002009
Cu1   Cu    Cu3+1 0.499990 0.499980 0.640670 0.917060
Cu2   Cu    Cu3+1 0.500010 0.500020 0.359330 0.914657
H1    H     H_    0.103846 0.578534 0.710474 0.123761
H2    H     H_    0.638247 0.119066 0.737680 0.137419
H3    H     H_    0.320778 0.419351 0.128468 0.107432
H4    H     H_    0.107206 0.413474 0.711834 0.109372
H5    H     H_    0.320703 0.419513 0.869316 0.108471
H6    H     H_    0.765430 0.647913 0.879205 0.108765
H7    H     H_    0.611477 0.726274 0.878969 0.144558
H8    H     H_    0.764956 0.646363 0.127693 0.112223
H9    H     H_    0.612102 0.728623 0.128829 0.144291
H10   H     H_    0.895591 0.404477 0.703399 0.119918
H11   H     H_    0.894952 0.570286 0.715125 0.117691
H12   H     H_    0.892857 0.388256 0.306444 0.112874
H13   H     H_    0.111418 0.697148 0.483460 0.110786
H14   H     H_    0.898671 0.699193 0.491853 0.108721
H15   H     H_    0.103715 0.385383 0.308825 0.126523
H16   H     H_    0.883042 0.298755 0.462095 0.111883
H17   H     H_    0.222942 0.023148 0.482131 0.170846
H18   H     H_    0.060477 0.003933 0.526978 0.142200
H19   H     H_    0.117559 0.948107 0.360625 0.138972
H20   H     H_    0.999583 0.144314 0.335683 0.157268
H21   H     H_    0.159492 0.160729 0.281973 0.154011
H22   H     H_    0.217458 0.260156 0.503074 0.155220
H23   H     H_    0.106008 0.616721 0.318587 0.119805
H24   H     H_    0.066917 0.233303 0.577571 0.143550
H25   H     H_    0.894674 0.624643 0.323460 0.116471
H26   H     H_    0.477978 0.110021 0.270811 0.134051
H27   H     H_    0.478620 0.885324 0.272140 0.129559
H28   H     H_    0.492285 0.898225 0.844433 0.129104
H29   H     H_    0.640985 0.898623 0.739392 0.127135
H30   H     H_    0.489822 0.117798 0.841431 0.134895
N1    N     N_R   0.500800 0.500930 0.147930 -0.229900
N2    N     N_R   0.500800 0.500890 0.852020 -0.229609
O1    O     O_R   0.500000 0.319640 0.618810 -0.501416
O2    O     O_R   0.500010 0.319680 0.381230 -0.507144
O3    O     O_R   0.317690 0.499960 0.618790 -0.517775
O4    O     O_R   0.317700 0.500000 0.381210 -0.517211
O5    O     O_R   0.499990 0.680320 0.618770 -0.496277
O6    O     O_R   0.500000 0.680360 0.381190 -0.507854
O7    O     O_R   0.682300 0.500000 0.618790 -0.506553
O8    O     O_R   0.682310 0.500040 0.381210 -0.504511

loop_
_geom_bond_atom_site_label_1
_geom_bond_atom_site_label_2
_ccdc_geom_bond_type
C9    N2    A    
C4    O4    A    
C1    O2    A    
C7    N1    A    
C23   H14   S    
Cu1   O1    S    
C14   O8    A    
C12   C24   S    
C22   H17   S    
C12   C23   S    
C22   H19   S    
Cu1   Cu2   S    
C10   H7    S    
C3    H29   S    
C6    N1    A    
C6    C9    A    
Cu2   O8    S    
C2    C3    S    
C17   H13   S    
C5    H30   S    
C7    C8    A    
C17   C23   S    
C21   C22   S    
C15   C19   S    
C14   O7    A    
Cu2   N1    S    
C23   H25   S    
C26   C27   A    
Cu1   O3    S    
C13   O6    A    
C6    C11   S    
C22   H18   S    
C5    C25   S    
C18   H15   S    
C9    C10   S    
C13   C29   S    
C28   C29   A    
C17   C19   S    
C12   C14   S    
C2    C25   A    
C28   H27   S    
C5    H2    S    
C10   H6    S    
C8    H5    S    
C11   H9    S    
C11   H8    S    
C7    H3    S    
C18   C24   S    
C1    C26   S    
C21   H20   S    
C20   H24   S    
C10   C11   S    
Cu2   O4    S    
C8    N2    A    
C24   H16   S    
C15   C16   S    
C1    O1    A    
C16   H11   S    
Cu2   O6    S    
C2    C29   A    
C20   C21   S    
C4    O3    A    
C18   C20   S    
C18   C19   S    
C27   H26   S    
C15   H4    S    
C27   C28   A    
Cu2   O2    S    
C24   H12   S    
C3    C5    S    
Cu1   O7    S    
C25   C26   A    
Cu1   N2    S    
C4    C19   S    
C17   H23   S    
C21   H21   S    
Cu1   O5    S    
C12   C16   S    
C3    H28   S    
C20   H22   S    
C16   H10   S    
C13   O5    A    
C15   H1    S    
