data_mof_unit_18896.cif
_audit_creation_date              2012-12-10T16:55:01-0500
_audit_creation_method            fapswitch 2.2
_symmetry_space_group_name_H-M    P1
_symmetry_Int_Tables_number       1
_space_group_crystal_system       triclinic
_cell_length_a                    7.763879
_cell_length_b                    8.582954
_cell_length_c                    15.721751
_cell_angle_alpha                 90.858298
_cell_angle_beta                  85.933907
_cell_angle_gamma                 93.490568
_cell_volume                      1043.01506896

loop_
_atom_site_label
_atom_site_type_symbol
_atom_type_description
_atom_site_fract_x
_atom_site_fract_y
_atom_site_fract_z
_atom_type_partial_charge
C1    C     C_R   0.544878 0.794296 0.493574 0.955339
C2    C     C_2   0.429950 0.043661 0.481974 0.037197
C3    C     C_R   0.502132 0.499976 0.661605 0.908299
C4    C     C_R   0.454052 0.205362 0.498436 0.924291
C5    C     C_R   0.497832 0.499960 0.338405 0.897354
C6    C     C_3   0.387183 0.626434 0.954079 -0.402112
C7    C     C_3   0.687784 0.527349 0.946791 -0.408988
C8    C     C_3   0.682685 0.533668 0.045303 -0.488587
C9    C     C_1   0.493165 0.499712 0.249732 -0.179944
C10   C     C_3   0.502044 0.497050 0.917189 0.341196
C11   C     C_3   0.113120 0.989121 0.492338 -0.679892
C12   C     C_3   0.385428 0.629229 0.052143 -0.397242
C13   C     C_3   0.119568 0.334944 0.101263 -0.791315
C14   C     C_3   0.494369 0.497571 0.082961 0.347562
C15   C     C_3   0.434833 0.331922 0.048472 0.103928
C16   C     C_3   0.424002 0.337246 0.950650 -0.452226
C17   C     C_1   0.492126 0.498971 0.174450 -0.092557
C18   C     C_1   0.506231 0.497823 0.825664 -0.111613
C19   C     C_1   0.506312 0.498760 0.750328 -0.190345
C20   C     C_2   0.566437 0.957849 0.491714 -0.471236
H1    H     H_    0.441664 0.744676 0.073253 0.159636
H2    H     H_    0.746929 0.639602 0.920636 0.174549
H3    H     H_    0.732307 0.651246 0.066650 0.184270
H4    H     H_    0.770372 0.447906 0.068159 0.171960
H5    H     H_    0.288183 0.318324 0.932857 0.180058
H6    H     H_    0.496868 0.240944 0.920075 0.142840
H7    H     H_    0.288177 0.900272 0.396426 0.239276
H8    H     H_    0.050707 0.869520 0.496188 0.228040
H9    H     H_    0.026807 0.065018 0.460665 0.225423
H10   H     H_    0.129005 0.033318 0.558340 0.231010
H11   H     H_    0.262111 0.139919 0.076080 0.216641
H12   H     H_    0.252626 0.605397 0.934471 0.166108
H13   H     H_    0.010798 0.249024 0.119364 0.224122
H14   H     H_    0.091624 0.389719 0.040688 0.230953
H15   H     H_    0.124648 0.422430 0.153751 0.251603
H16   H     H_    0.250703 0.622185 0.080337 0.173106
H17   H     H_    0.541142 0.254389 0.059510 0.096414
H18   H     H_    0.690226 0.007843 0.510721 0.162170
H19   H     H_    0.013802 0.383467 0.435763 0.195918
H20   H     H_    0.985996 0.615412 0.564791 0.187626
H21   H     H_    0.437212 0.742298 0.928842 0.165821
H22   H     H_    0.770808 0.432843 0.922431 0.169831
N1    N     N_2   0.950340 0.457950 0.477370 -0.174733
N2    N     N_2   0.049660 0.542050 0.522630 -0.178706
N3    N     N_2   0.277267 0.986635 0.442498 -0.297302
N4    N     N_2   0.279865 0.256517 0.092204 -0.298862
O1    O     O_R   0.389240 0.738570 0.505550 -0.596318
O2    O     O_R   0.678400 0.711630 0.491050 -0.632023
O3    O     O_R   0.355360 0.513470 0.630110 -0.612470
O4    O     O_R   0.644510 0.486530 0.615610 -0.620284
O5    O     O_R   0.321600 0.288370 0.508950 -0.612356
O6    O     O_R   0.610760 0.261430 0.494450 -0.636252
O7    O     O_R   0.355490 0.513470 0.384390 -0.626778
O8    O     O_R   0.644640 0.486530 0.369890 -0.613491
Zn1   Zn    Zn3+2 0.306930 0.517990 0.509680 0.940060
Zn2   Zn    Zn3+2 0.693070 0.482010 0.490320 0.933033

loop_
_geom_bond_atom_site_label_1
_geom_bond_atom_site_label_2
_ccdc_geom_bond_type
C6    C10   S    
C7    C10   S    
C2    C4    S    
N1    N2    D    
C1    O2    A    
C13   H13   S    
C12   H16   S    
C7    H2    S    
C20   H18   S    
N1    Zn2   S    
C6    H12   S    
N2    Zn1   S    
O3    Zn1   S    
C3    C19   S    
H7    N3    S    
C3    O3    A    
C7    C8    S    
C10   C16   S    
C5    C9    S    
C14   C17   S    
C11   H8    S    
C4    O6    A    
C6    C12   S    
C5    O7    A    
C8    H4    S    
C3    O4    A    
C12   C14   S    
C13   H15   S    
O5    Zn1   S    
O7    Zn1   S    
C2    N3    S    
C16   H6    S    
C13   N4    S    
C10   C18   S    
O8    Zn2   S    
C11   N3    S    
C4    O5    A    
C2    C20   D    
C15   C16   S    
C5    O8    A    
H20   N2    S    
C8    H3    S    
C11   H9    S    
O1    Zn1   S    
C18   C19   T    
C7    H22   S    
C9    C17   T    
C16   H5    S    
O2    Zn2   S    
C14   C15   S    
C15   H17   S    
C1    C20   S    
C13   H14   S    
C8    C14   S    
C15   N4    S    
H19   N1    S    
C12   H1    S    
C6    H21   S    
O4    Zn2   S    
O6    Zn2   S    
C11   H10   S    
C1    O1    A    
H11   N4    S    
