data_mof_unit_28345.cif
_audit_creation_date              2012-10-26T18:52:10-0400
_audit_creation_method            fapswitch 2.2
_symmetry_space_group_name_H-M    P1
_symmetry_Int_Tables_number       1
_space_group_crystal_system       triclinic
_cell_length_a                    13.869458
_cell_length_b                    14.880391
_cell_length_c                    14.843057
_cell_angle_alpha                 116.48678
_cell_angle_beta                  108.426043
_cell_angle_gamma                 72.433286
_cell_volume                      2554.15673057

loop_
_atom_site_label
_atom_site_type_symbol
_atom_type_description
_atom_site_fract_x
_atom_site_fract_y
_atom_site_fract_z
_atom_type_partial_charge
C1    C     C_R   0.518529 0.119132 0.688349 0.575495
C2    C     C_R   0.430052 0.513433 0.854843 0.078615
C3    C     C_R   0.713506 0.418050 0.027087 -0.129685
C4    C     C_R   0.389337 0.618825 0.888093 -0.080026
C5    C     C_R   0.325604 0.294552 0.326695 -0.067587
C6    C     C_R   0.675219 0.705669 0.673102 -0.050731
C7    C     C_R   0.348580 0.216720 0.361976 0.351199
C8    C     C_R   0.651147 0.783895 0.638443 0.372457
C9    C     C_R   0.495758 0.282292 0.483582 0.187312
C10   C     C_R   0.506798 0.715556 0.513790 0.110955
C11   C     C_R   0.464527 0.372237 0.461291 -0.048077
C12   C     C_R   0.482516 0.880480 0.311129 0.582492
C13   C     C_R   0.539100 0.625533 0.536158 -0.067772
C14   C     C_R   0.385056 0.370867 0.373415 -0.014730
C15   C     C_R   0.617701 0.627924 0.624951 0.005481
C16   C     C_R   0.686830 0.986940 0.504765 0.548048
C17   C     C_R   0.313214 0.013277 0.495611 0.573223
C18   C     C_R   0.512791 0.460511 0.518771 -0.002113
C19   C     C_R   0.492549 0.536292 0.477995 -0.019745
C20   C     C_R   0.430448 0.517875 0.378342 -0.032212
C21   C     C_R   0.577040 0.477758 0.617477 -0.052969
C22   C     C_R   0.371273 0.441959 0.330232 0.259732
C23   C     C_R   0.556555 0.368173 0.900903 0.062846
C24   C     C_R   0.633666 0.555504 0.666909 0.248108
C25   C     C_1   0.207331 0.020684 0.491972 0.101778
C26   C     C_1   0.792878 0.980313 0.509771 0.076760
C27   C     C_2   0.012421 0.030717 0.485265 0.241794
C28   C     C_2   0.988047 0.971715 0.518801 0.248431
C29   C     C_1   0.882040 0.975709 0.514184 0.101106
C30   C     C_1   0.118321 0.025997 0.488800 0.111341
C31   C     C_R   0.555231 0.186792 0.795112 0.034434
C32   C     C_R   0.468086 0.812338 0.199952 0.015420
C33   C     C_R   0.711482 0.236944 0.919437 -0.025284
C34   C     C_R   0.500624 0.647637 0.056854 0.044808
C35   C     C_R   0.381418 0.793095 0.022763 0.048572
C36   C     C_R   0.658562 0.161842 0.840722 -0.138906
C37   C     C_R   0.406571 0.854391 0.127710 -0.128539
C38   C     C_R   0.501320 0.287692 0.834242 0.269090
C39   C     C_R   0.512746 0.706726 0.164245 0.245256
C40   C     C_2   0.822406 0.203743 0.960943 0.616554
C41   C     C_2   0.314223 0.843644 0.951747 0.607957
C42   C     C_2   0.730624 0.598445 0.128555 0.656192
C43   C     C_2   0.395317 0.453144 0.743242 0.612518
C44   C     C_2   0.398294 0.739164 0.459773 0.614668
C45   C     C_R   0.661076 0.340989 0.949770 -0.029577
C46   C     C_2   0.605241 0.256134 0.533268 0.621109
C47   C     C_R   0.423673 0.687043 0.988239 -0.015007
C48   C     C_R   0.512106 0.474407 0.923276 0.030239
C49   C     C_R   0.558497 0.547261 0.016223 0.036545
C50   C     C_R   0.664382 0.520282 0.060334 0.033634
Cl1   Cl    Cl    0.083332 0.887134 0.569694 -0.472012
Cl2   Cl    Cl    0.917105 0.115642 0.434858 -0.444664
Cl3   Cl    Cl    0.568074 0.642534 0.250463 -0.541276
Cl4   Cl    Cl    0.365119 0.305754 0.812887 -0.475996
Cl5   Cl    Cl    0.286428 0.434577 0.211029 -0.445735
Cl6   Cl    Cl    0.718157 0.563087 0.786445 -0.514926
Cl7   Cl    Cl    0.729629 0.876454 0.703218 -0.512407
Cl8   Cl    Cl    0.270275 0.123665 0.296757 -0.485053
Cu1   Cu    Cu3+1 0.526370 0.916390 0.524860 1.142344
Cu2   Cu    Cu3+1 0.473630 0.083610 0.475140 1.133765
H1    H     H_    0.261543 0.293877 0.261887 0.219672
H2    H     H_    0.285693 0.856233 0.815383 0.379146
H3    H     H_    0.806998 0.526226 0.226115 0.332526
H4    H     H_    0.281611 0.435399 0.615256 0.360003
H5    H     H_    0.339655 0.744994 0.571171 0.321407
H6    H     H_    0.709203 0.232463 0.654869 0.334446
H7    H     H_    0.739155 0.706752 0.738107 0.218843
H8    H     H_    0.427654 0.561081 0.335334 0.206454
H9    H     H_    0.584562 0.432154 0.659236 0.197583
H10   H     H_    0.794036 0.399314 0.061923 0.157709
H11   H     H_    0.328282 0.646934 0.835177 0.208913
H12   H     H_    0.374489 0.935484 0.153520 0.209347
H13   H     H_    0.700931 0.084726 0.809545 0.200596
H14   H     H_    0.872148 0.285412 0.912239 0.320054
N1    N     N_R   0.433980 0.209250 0.437830 -0.250958
N2    N     N_R   0.566020 0.790750 0.562170 -0.246288
O1    O     O_R   0.534760 0.019630 0.662610 -0.482464
O2    O     O_R   0.900059 0.239794 0.952608 -0.601318
O3    O     O_2   0.241688 0.912962 0.978747 -0.411626
O4    O     O_R   0.336417 0.815409 0.856004 -0.680588
O5    O     O_2   0.718428 0.674320 0.110961 -0.403093
O6    O     O_R   0.808129 0.586367 0.211846 -0.581569
O7    O     O_2   0.454185 0.380391 0.695933 -0.509100
O8    O     O_R   0.295393 0.481499 0.691098 -0.637027
O9    O     O_2   0.379309 0.745106 0.376384 -0.403968
O10   O     O_R   0.315972 0.750717 0.501651 -0.603436
O11   O     O_2   0.673455 0.244502 0.491094 -0.444599
O12   O     O_R   0.465240 0.980370 0.337390 -0.490026
O13   O     O_R   0.631630 0.248918 0.629139 -0.660935
O14   O     O_R   0.490220 0.160840 0.620610 -0.422755
O15   O     O_R   0.509780 0.839160 0.379390 -0.415541
O16   O     O_R   0.663260 0.919400 0.523940 -0.446197
O17   O     O_R   0.336740 0.080600 0.476060 -0.448494
O18   O     O_R   0.618720 0.060610 0.481950 -0.488924
O19   O     O_R   0.381280 0.939390 0.518050 -0.486757
O20   O     O_2   0.846823 0.140840 0.999792 -0.356286

loop_
_geom_bond_atom_site_label_1
_geom_bond_atom_site_label_2
_ccdc_geom_bond_type
C11   C18   A    
C1    O14   A    
C23   C45   A    
C18   C21   A    
C1    O1    A    
C12   O15   A    
C19   C20   A    
C42   O6    S    
C1    C31   S    
C35   C47   A    
Cu1   O1    S    
C41   O4    S    
Cu2   O12   S    
H5    O10   S    
C46   O13   S    
H2    O4    S    
C28   C29   S    
C35   C37   A    
C28   Cl1   S    
C43   O7    D    
C8    N2    A    
C33   C36   A    
C33   C45   A    
C18   C19   A    
C32   C39   A    
H4    O8    S    
C6    C15   A    
C10   N2    A    
C17   O19   A    
C7    Cl8   S    
Cu2   O17   S    
Cu1   Cu2   S    
C12   C32   S    
C27   C30   S    
C43   O8    S    
C42   O5    D    
Cu1   O19   S    
C40   O20   D    
C44   O10   S    
C3    C50   A    
H6    O13   S    
C16   C26   S    
C33   C40   S    
C13   C19   A    
H3    O6    S    
C10   C44   S    
C34   C39   A    
C3    H10   S    
C5    C7    A    
C12   O12   A    
C7    N1    A    
C2    C48   A    
C3    C45   A    
C21   H9    S    
C2    C4    A    
C8    Cl7   S    
C38   Cl4   S    
C2    C43   S    
C5    H1    S    
Cu1   O15   S    
C32   C37   A    
C9    C11   A    
C5    C14   A    
C42   C50   S    
C48   C49   A    
C20   C22   A    
C16   O16   A    
C13   C15   A    
C40   O2    S    
C37   H12   S    
C17   O17   A    
C44   O9    D    
C27   Cl2   S    
C46   O11   D    
C25   C30   T    
C15   C24   A    
C34   C49   A    
C23   C48   A    
C20   H8    S    
C10   C13   A    
C41   O3    D    
C6    C8    A    
C22   Cl5   S    
Cu2   O14   S    
C24   Cl6   S    
C23   C38   A    
Cu2   N1    S    
C16   O18   A    
C31   C38   A    
C17   C25   S    
C14   C22   A    
C6    H7    S    
C39   Cl3   S    
C11   C14   A    
Cu1   O16   S    
C35   C41   S    
C36   H13   S    
C9    C46   S    
C26   C29   T    
C49   C50   A    
H14   O2    S    
C21   C24   A    
C27   C28   D    
C31   C36   A    
C34   C47   A    
C9    N1    A    
Cu1   N2    S    
C4    H11   S    
C4    C47   A    
Cu2   O18   S    
