data_mof_unit_5701.cif
_audit_creation_date              2013-03-05T15:55:35-0500
_audit_creation_method            fapswitch 2.2
_symmetry_space_group_name_H-M    P1
_symmetry_Int_Tables_number       1
_space_group_crystal_system       triclinic
_cell_length_a                    14.111333
_cell_length_b                    14.111284
_cell_length_c                    31.65288
_cell_angle_alpha                 89.999916
_cell_angle_beta                  90.000033
_cell_angle_gamma                 120.000183
_cell_volume                      5458.55430226

loop_
_atom_site_label
_atom_site_type_symbol
_atom_site_description
_atom_site_fract_x
_atom_site_fract_y
_atom_site_fract_z
_atom_type_partial_charge
O1    O     O_R   0.480350 0.140770 0.796330 -0.501682
O2    O     O_R   0.660420 0.519650 0.703670 -0.499258
O3    O     O_R   0.859230 0.339580 0.796330 -0.501681
O4    O     O_R   0.480350 0.140770 0.703670 -0.499258
O5    O     O_R   0.660420 0.519650 0.796330 -0.501685
O6    O     O_R   0.859230 0.339580 0.703670 -0.499257
O7    O     O_R   0.140770 0.480350 0.296330 -0.499258
O8    O     O_R   0.519650 0.660420 0.203670 -0.501660
O9    O     O_R   0.339580 0.859230 0.296330 -0.499257
O10   O     O_R   0.140770 0.480350 0.203670 -0.501685
O11   O     O_R   0.519650 0.660420 0.296330 -0.499254
O12   O     O_R   0.339580 0.859230 0.203670 -0.501691
O13   O     O_R   0.514930 0.348530 0.793250 -0.500651
O14   O     O_R   0.833600 0.485070 0.706750 -0.497732
O15   O     O_R   0.651470 0.166400 0.793250 -0.500650
O16   O     O_R   0.514930 0.348530 0.706750 -0.497733
O17   O     O_R   0.833600 0.485070 0.793250 -0.500654
O18   O     O_R   0.651470 0.166400 0.706750 -0.497732
O19   O     O_R   0.348530 0.514930 0.293250 -0.497735
O20   O     O_R   0.485070 0.833600 0.206750 -0.500630
O21   O     O_R   0.166400 0.651470 0.293250 -0.497732
O22   O     O_R   0.348530 0.514930 0.206750 -0.500663
O23   O     O_R   0.485070 0.833600 0.293250 -0.497731
O24   O     O_R   0.166400 0.651470 0.206750 -0.500652
C1    C     C_R   0.564965 0.445540 0.809455 0.853469
C2    C     C_R   0.880559 0.435076 0.690540 0.854993
C3    C     C_R   0.554460 0.119425 0.809455 0.853471
C4    C     C_R   0.564924 0.445483 0.690540 0.854992
C5    C     C_R   0.880573 0.435034 0.809456 0.853474
C6    C     C_R   0.554517 0.119441 0.690540 0.854990
C7    C     C_R   0.445482 0.564924 0.309460 0.854992
C8    C     C_R   0.435033 0.880572 0.190544 0.853481
C9    C     C_R   0.119441 0.554517 0.309460 0.854994
C10   C     C_R   0.445540 0.564966 0.190544 0.853547
C11   C     C_R   0.435076 0.880559 0.309460 0.854987
C12   C     C_R   0.119426 0.554460 0.190545 0.853473
C13   C     C_1   0.004805 0.512229 0.018908 0.199480
C14   C     C_1   0.507562 0.995230 0.481087 0.203085
C15   C     C_1   0.487758 0.492623 0.018902 0.199729
C16   C     C_1   0.004775 0.512334 0.481088 0.203086
C17   C     C_1   0.507381 0.995130 0.018902 0.199472
C18   C     C_1   0.487665 0.492439 0.481088 0.203085
C19   C     C_1   0.512336 0.004777 0.518911 0.203087
C20   C     C_1   0.995173 0.507412 0.981094 0.199471
C21   C     C_1   0.492439 0.487665 0.518912 0.203085
C22   C     C_1   0.512199 0.004763 0.981088 0.199439
C23   C     C_1   0.995227 0.507561 0.518912 0.203089
C24   C     C_1   0.492573 0.487803 0.981089 0.199535
Cr1   Cr    Cr6+3 0.504240 0.249200 0.750000 1.135727
Cr2   Cr    Cr6+3 0.744960 0.495760 0.750000 1.135728
Cr3   Cr    Cr6+3 0.750800 0.255040 0.750000 1.135726
Cr4   Cr    Cr6+3 0.249200 0.504240 0.250000 1.135728
Cr5   Cr    Cr6+3 0.495760 0.744960 0.250000 1.135754
Cr6   Cr    Cr6+3 0.255040 0.750800 0.250000 1.135732
O25   O     O_3   0.666667 0.333333 0.750000 -0.398894
O26   O     O_3   0.333333 0.666667 0.250000 -0.398900
H1    H     H_    0.946622 0.347441 0.072012 0.191640
H2    H     H_    0.401552 0.054064 0.427875 0.191590
H3    H     H_    0.652547 0.599262 0.072004 0.191882
H4    H     H_    0.945940 0.347489 0.427876 0.191592
H5    H     H_    0.400801 0.053346 0.072006 0.191639
H6    H     H_    0.652510 0.598449 0.427876 0.191590
H7    H     H_    0.347491 0.945942 0.572123 0.191591
H8    H     H_    0.053361 0.400810 0.927990 0.191661
H9    H     H_    0.598451 0.652510 0.572124 0.191590
H10   H     H_    0.347421 0.946584 0.927979 0.191640
H11   H     H_    0.054061 0.401551 0.572124 0.191592
H12   H     H_    0.599164 0.652582 0.927978 0.191707
C25   C     C_R   0.945799 0.481043 0.848810 -0.293911
C26   C     C_R   0.535499 0.054194 0.651198 -0.295435
C27   C     C_R   0.518953 0.464762 0.848807 -0.293909
C28   C     C_R   0.945807 0.481306 0.651199 -0.295436
C29   C     C_R   0.535238 0.054190 0.848808 -0.293907
C30   C     C_R   0.518694 0.464501 0.651198 -0.295437
C31   C     C_R   0.481307 0.945808 0.348801 -0.295438
C32   C     C_R   0.054196 0.535241 0.151191 -0.293915
C33   C     C_R   0.464500 0.518693 0.348801 -0.295436
C34   C     C_R   0.481036 0.945790 0.151188 -0.293856
C35   C     C_R   0.054194 0.535499 0.348802 -0.295436
C36   C     C_R   0.464758 0.518963 0.151189 -0.293872
C37   C     C_R   0.942040 0.566846 0.870548 0.289079
C38   C     C_R   0.625192 0.058147 0.629420 0.304915
C39   C     C_R   0.433152 0.375203 0.870547 0.289096
C40   C     C_R   0.941855 0.567047 0.629420 0.304913
C41   C     C_R   0.624796 0.057944 0.870547 0.289082
C42   C     C_R   0.432953 0.374808 0.629421 0.304914
C43   C     C_R   0.567047 0.941857 0.370579 0.304910
C44   C     C_R   0.057950 0.624802 0.129453 0.289114
C45   C     C_R   0.374808 0.432952 0.370580 0.304912
C46   C     C_R   0.566829 0.942018 0.129448 0.289178
C47   C     C_R   0.058146 0.625192 0.370580 0.304913
C48   C     C_R   0.375199 0.433159 0.129450 0.289076
C49   C     C_R   0.946591 0.569133 0.915167 0.359383
C50   C     C_R   0.622779 0.053652 0.584814 0.369338
C51   C     C_R   0.430862 0.377480 0.915166 0.359395
C52   C     C_R   0.946351 0.569129 0.584814 0.369338
C53   C     C_R   0.622519 0.053371 0.915166 0.359403
C54   C     C_R   0.430870 0.377221 0.584814 0.369338
C55   C     C_R   0.569130 0.946353 0.415186 0.369339
C56   C     C_R   0.053390 0.622535 0.084835 0.359418
C57   C     C_R   0.377221 0.430870 0.415186 0.369338
C58   C     C_R   0.569101 0.946550 0.084829 0.359451
C59   C     C_R   0.053650 0.622778 0.415186 0.369339
C60   C     C_R   0.377461 0.430880 0.084831 0.359310
C61   C     C_R   0.983182 0.504711 0.935958 -0.136937
C62   C     C_R   0.521640 0.016693 0.564064 -0.137119
C63   C     C_R   0.495274 0.478501 0.935953 -0.136968
C64   C     C_R   0.983311 0.504950 0.564065 -0.137119
C65   C     C_R   0.521500 0.016767 0.935953 -0.136916
C66   C     C_R   0.495050 0.478361 0.564065 -0.137119
C67   C     C_R   0.504951 0.983314 0.435935 -0.137118
C68   C     C_R   0.016798 0.521521 0.064044 -0.136926
C69   C     C_R   0.478360 0.495049 0.435935 -0.137118
C70   C     C_R   0.504684 0.983145 0.064038 -0.136902
C71   C     C_R   0.016690 0.521639 0.435935 -0.137120
C72   C     C_R   0.478469 0.495322 0.064039 -0.137008
C73   C     C_R   0.015533 0.441967 0.912436 -0.188632
C74   C     C_R   0.426538 0.984018 0.587636 -0.185655
C75   C     C_R   0.558014 0.573590 0.912427 -0.188623
C76   C     C_R   0.015985 0.442522 0.587637 -0.185647
C77   C     C_R   0.426411 0.984422 0.912427 -0.188690
C78   C     C_R   0.557479 0.573463 0.587636 -0.185654
C79   C     C_R   0.442523 0.015987 0.412363 -0.185657
C80   C     C_R   0.984452 0.426428 0.087567 -0.188662
C81   C     C_R   0.573462 0.557478 0.412363 -0.185659
C82   C     C_R   0.441954 0.015513 0.087561 -0.188674
C83   C     C_R   0.984016 0.426536 0.412364 -0.185654
C84   C     C_R   0.573564 0.558076 0.087560 -0.187821
C85   C     C_R   0.996357 0.428983 0.869040 0.227033
C86   C     C_R   0.432829 0.003272 0.631032 0.228448
C87   C     C_R   0.571006 0.567387 0.869032 0.227016
C88   C     C_R   0.996730 0.429559 0.631033 0.228448
C89   C     C_R   0.432614 0.003619 0.869033 0.227051
C90   C     C_R   0.570443 0.567172 0.631033 0.228449
C91   C     C_R   0.429559 0.996732 0.368967 0.228450
C92   C     C_R   0.003636 0.432621 0.130962 0.227055
C93   C     C_R   0.567171 0.570441 0.368967 0.228451
C94   C     C_R   0.428976 0.996347 0.130958 0.227027
C95   C     C_R   0.003270 0.432828 0.368967 0.228449
C96   C     C_R   0.567374 0.571038 0.130958 0.226882
S1    S     S_3+6 0.963215 0.684066 0.841676 0.139921
O27   O     O_2   0.855430 0.673335 0.830032 -0.265305
O28   O     O_2   0.027336 0.786185 0.867409 -0.244135
O29   O     O_3   0.033208 0.694724 0.797229 -0.474087
H13   H     H_    0.039974 0.759745 0.782487 0.403358
S2    S     S_3+6 0.721990 0.037635 0.658134 0.115624
O30   O     O_2   0.817507 0.145873 0.670432 -0.279992
O31   O     O_2   0.669090 0.972886 0.697452 -0.307395
O32   O     O_3   0.767494 0.968921 0.629040 -0.437772
H14   H     H_    0.834886 0.980800 0.643459 0.387427
S3    S     S_3+6 0.315935 0.279146 0.841677 0.139920
O33   O     O_2   0.326674 0.182095 0.830038 -0.265309
O34   O     O_2   0.213815 0.241146 0.867410 -0.244139
O35   O     O_3   0.305272 0.338471 0.797228 -0.474083
H15   H     H_    0.240249 0.280211 0.782488 0.403357
S4    S     S_3+6 0.962365 0.684356 0.658134 0.115627
O36   O     O_2   0.854127 0.671635 0.670432 -0.279990
O37   O     O_2   0.027112 0.696206 0.697453 -0.307397
O38   O     O_3   0.031079 0.798575 0.629041 -0.437770
H16   H     H_    0.019201 0.854089 0.643460 0.387427
S5    S     S_3+6 0.720852 0.036785 0.841676 0.139897
O39   O     O_2   0.817903 0.144577 0.830037 -0.265323
O40   O     O_2   0.758851 0.972662 0.867406 -0.244148
O41   O     O_3   0.661528 0.966803 0.797225 -0.474081
H17   H     H_    0.719788 0.960044 0.782484 0.403360
S6    S     S_3+6 0.315644 0.278010 0.658134 0.115628
O42   O     O_2   0.328364 0.182492 0.670433 -0.279990
O43   O     O_2   0.303796 0.330909 0.697453 -0.307394
O44   O     O_3   0.201425 0.232505 0.629042 -0.437770
H18   H     H_    0.145911 0.165113 0.643461 0.387427
S7    S     S_3+6 0.684355 0.962364 0.341865 0.115634
O45   O     O_2   0.671633 0.854125 0.329569 -0.279988
O46   O     O_2   0.696205 0.027109 0.302546 -0.307390
O47   O     O_3   0.798574 0.031080 0.370958 -0.437771
H19   H     H_    0.854087 0.019199 0.356540 0.387428
S8    S     S_3+6 0.036778 0.720847 0.158327 0.139875
O48   O     O_2   0.144563 0.817898 0.169971 -0.265305
O49   O     O_2   0.972660 0.758850 0.132595 -0.244264
O50   O     O_3   0.966782 0.661507 0.202773 -0.474071
H20   H     H_    0.960010 0.719760 0.217514 0.403364
S9    S     S_3+6 0.278008 0.315644 0.341866 0.115630
O51   O     O_2   0.182491 0.328364 0.329568 -0.279990
O52   O     O_2   0.330905 0.303795 0.302546 -0.307395
O53   O     O_3   0.232505 0.201424 0.370959 -0.437769
H21   H     H_    0.165108 0.145911 0.356541 0.387427
S10   S     S_3+6 0.684059 0.963209 0.158317 0.139541
O54   O     O_2   0.673336 0.855432 0.169967 -0.265473
O55   O     O_2   0.786170 0.027322 0.132579 -0.244491
O56   O     O_3   0.694726 0.033221 0.202759 -0.474035
H22   H     H_    0.759751 0.039995 0.217501 0.403379
S11   S     S_3+6 0.037635 0.721990 0.341866 0.115631
O57   O     O_2   0.145873 0.817508 0.329568 -0.279988
O58   O     O_2   0.972888 0.669092 0.302547 -0.307393
O59   O     O_3   0.968921 0.767494 0.370959 -0.437770
H23   H     H_    0.980799 0.834886 0.356540 0.387427
S12   S     S_3+6 0.279158 0.315936 0.158321 0.139899
O60   O     O_2   0.182105 0.326664 0.169969 -0.265313
O61   O     O_2   0.241159 0.213819 0.132587 -0.244161
O62   O     O_3   0.338501 0.305277 0.202766 -0.474088
H24   H     H_    0.280248 0.240256 0.217509 0.403357
S13   S     S_3+6 0.096982 0.745137 0.055444 0.133353
O63   O     O_2   0.153445 0.743186 0.015462 -0.320214
O64   O     O_2   0.998465 0.754714 0.044593 -0.219255
O65   O     O_3   0.184929 0.855104 0.083673 -0.460847
H25   H     H_    0.189646 0.918547 0.068367 0.396284
S14   S     S_3+6 0.647074 0.901697 0.444669 0.116925
O66   O     O_2   0.754642 0.999874 0.456299 -0.228006
O67   O     O_2   0.587176 0.843843 0.484235 -0.317659
O68   O     O_3   0.670254 0.814809 0.416233 -0.471693
H26   H     H_    0.729308 0.810553 0.431483 0.386225
S15   S     S_3+6 0.254857 0.351867 0.055442 0.133381
O69   O     O_2   0.256801 0.410276 0.015459 -0.320205
O70   O     O_2   0.245280 0.243773 0.044591 -0.219223
O71   O     O_3   0.144893 0.329848 0.083673 -0.460854
H27   H     H_    0.081450 0.271101 0.068373 0.396283
S16   S     S_3+6 0.098308 0.745380 0.444669 0.116925
O72   O     O_2   0.000131 0.754772 0.456300 -0.228004
O73   O     O_2   0.156162 0.743337 0.484235 -0.317660
O74   O     O_3   0.185194 0.855448 0.416233 -0.471692
H28   H     H_    0.189449 0.918758 0.431482 0.386226
S17   S     S_3+6 0.648071 0.902904 0.055442 0.133295
O75   O     O_2   0.589679 0.846470 0.015454 -0.319735
O76   O     O_2   0.756195 0.001397 0.044600 -0.219606
O77   O     O_3   0.669993 0.814898 0.083679 -0.461293
H29   H     H_    0.729753 0.811274 0.068705 0.396854
S18   S     S_3+6 0.254620 0.352926 0.444669 0.116925
O78   O     O_2   0.245228 0.245357 0.456300 -0.228006
O79   O     O_2   0.256664 0.412823 0.484235 -0.317659
O80   O     O_3   0.144552 0.329744 0.416233 -0.471693
H30   H     H_    0.081243 0.270689 0.431483 0.386227
S19   S     S_3+6 0.745380 0.098310 0.555331 0.116924
O81   O     O_2   0.754772 0.000134 0.543700 -0.228008
O82   O     O_2   0.743338 0.156166 0.515765 -0.317657
O83   O     O_3   0.855448 0.185197 0.583767 -0.471695
H31   H     H_    0.918757 0.189441 0.568520 0.386228
S20   S     S_3+6 0.902989 0.648136 0.944557 0.133431
O84   O     O_2   0.846527 0.589719 0.984539 -0.320185
O85   O     O_2   0.001499 0.756234 0.955408 -0.219191
O86   O     O_3   0.815036 0.670145 0.916326 -0.460841
H32   H     H_    0.810316 0.728870 0.931631 0.396332
S21   S     S_3+6 0.352925 0.254620 0.555331 0.116925
O87   O     O_2   0.245358 0.245229 0.543700 -0.228004
O88   O     O_2   0.412822 0.256662 0.515766 -0.317660
O89   O     O_3   0.329742 0.144551 0.583768 -0.471692
H33   H     H_    0.270688 0.081242 0.568518 0.386227
S22   S     S_3+6 0.745116 0.096962 0.944561 0.133394
O90   O     O_2   0.743149 0.153404 0.984546 -0.320183
O91   O     O_2   0.754701 0.998447 0.955406 -0.219193
O92   O     O_3   0.855085 0.184931 0.916337 -0.460883
H34   H     H_    0.918520 0.189586 0.931624 0.396340
S23   S     S_3+6 0.901694 0.647073 0.555331 0.116926
O93   O     O_2   0.999871 0.754642 0.543700 -0.228005
O94   O     O_2   0.843840 0.587175 0.515765 -0.317659
O95   O     O_3   0.814808 0.670254 0.583767 -0.471693
H35   H     H_    0.810555 0.729311 0.568518 0.386226
S24   S     S_3+6 0.351872 0.254880 0.944560 0.133377
O96   O     O_2   0.410291 0.256853 0.984544 -0.320225
O97   O     O_2   0.243767 0.245278 0.955408 -0.219201
O98   O     O_3   0.329880 0.144916 0.916334 -0.460852
H36   H     H_    0.271154 0.081469 0.931640 0.396291
I1    I     I_    0.936208 0.283415 0.164934 -0.024053
I2    I     I_    0.348492 0.064573 0.334788 -0.067055
I3    I     I_    0.716580 0.652789 0.164930 -0.024455
I4    I     I_    0.935428 0.283918 0.334789 -0.067057
I5    I     I_    0.347218 0.063796 0.164929 -0.024043
I6    I     I_    0.716081 0.651508 0.334789 -0.067045
I7    I     I_    0.283919 0.935428 0.665210 -0.067062
I8    I     I_    0.063798 0.347219 0.835068 -0.024044
I9    I     I_    0.651511 0.716082 0.665211 -0.067059
I10   I     I_    0.283416 0.936192 0.835056 -0.024033
I11   I     I_    0.064572 0.348491 0.665211 -0.067064
I12   I     I_    0.652776 0.716584 0.835055 -0.024014

loop_
_geom_bond_atom_site_label_1
_geom_bond_atom_site_label_2
_geom_bond_distance
_ccdc_geom_bond_type
O16   C4    1.291333 A    
C16   C23   1.202914 T    
C35   C95   1.407754 A    
S7    O45   1.497483 D    
C38   C50   1.412991 A    
C41   S5    1.779412 S    
S13   O63   1.503039 D    
C64   C76   1.396966 A    
O86   H32   0.990486 S    
C42   S6    1.780730 S    
S16   O74   1.679735 S    
O10   Cr4   2.022265 S    
C17   C70   1.436937 S    
C4    C30   1.491104 S    
O77   H29   0.990725 S    
C88   I11   2.119127 S    
S5    O39   1.497269 D    
C32   C92   1.408129 A    
O4    C6    1.293710 A    
S23   O93   1.502012 D    
O14   Cr2   1.910538 S    
C20   C61   1.436948 S    
C34   C46   1.416498 A    
C90   I9    2.119126 S    
S7    O46   1.502968 D    
C56   S13   1.781225 S    
C11   C31   1.491102 S    
O92   H34   0.990423 S    
S17   O75   1.503028 D    
C54   C66   1.412770 A    
O41   H17   0.990516 S    
C33   C93   1.407755 A    
O7    Cr4   2.022263 S    
C68   C80   1.396734 A    
S17   O77   1.679564 S    
C59   S16   1.780696 S    
S1    O28   1.501610 D    
H12   C75   1.083841 S    
C40   C52   1.412992 A    
O21   Cr6   1.910529 S    
C70   C82   1.396740 A    
C31   C91   1.407755 A    
S12   O60   1.497273 D    
S23   O94   1.503098 D    
C16   C71   1.437385 S    
O21   C9    1.291332 A    
O24   Cr6   1.910533 S    
S24   O98   1.679527 S    
C39   C51   1.413409 A    
C26   C86   1.407756 A    
C71   C83   1.396966 A    
O53   H21   0.990652 S    
S21   O87   1.502014 D    
O44   H18   0.990646 S    
S3    O35   1.681941 S    
O3    C5    1.293053 A    
C5    C25   1.490917 S    
O47   H19   0.990647 S    
C78   C90   1.394421 A    
C13   C68   1.436948 S    
O2    Cr2   2.022266 S    
C6    C26   1.491103 S    
C60   C72   1.412630 A    
O19   Cr4   1.910534 S    
S8    O50   1.681940 S    
C46   C58   1.413411 A    
C87   I12   2.119267 S    
S15   O69   1.503041 D    
C54   S21   1.780696 S    
C96   I3    2.119268 S    
S24   O97   1.502252 D    
O18   Cr3   1.910534 S    
C75   C87   1.394281 A    
S3    O33   1.497270 D    
C28   C88   1.407754 A    
H5    C82   1.083838 S    
C1    C27   1.490920 S    
O15   Cr3   1.910530 S    
O6    Cr3   2.022263 S    
C12   C32   1.490922 S    
H11   C76   1.083837 S    
C32   C44   1.416515 A    
S2    O31   1.502967 D    
O11   Cr5   2.022262 S    
C49   C61   1.412624 A    
S8    O49   1.501610 D    
O59   H23   0.990646 S    
C52   C64   1.412772 A    
O19   C7    1.291334 A    
O62   H24   0.990517 S    
C49   S20   1.781224 S    
C95   I4    2.119126 S    
O12   C8    1.293048 A    
S6    O43   1.502967 D    
C3    C29   1.490925 S    
O7    C9    1.293708 A    
C61   C73   1.396737 A    
O56   H22   0.990512 S    
C83   C95   1.394421 A    
S13   O64   1.502251 D    
S12   O62   1.681940 S    
C26   C38   1.417623 A    
C34   C94   1.408122 A    
C63   C75   1.396734 A    
S5    O40   1.501609 D    
C50   S19   1.780698 S    
O23   Cr5   1.910532 S    
C27   C39   1.416510 A    
S4    O38   1.680236 S    
C39   S3    1.779413 S    
O89   H33   0.990497 S    
O22   C10   1.291928 A    
S7    O47   1.680237 S    
S22   O91   1.502254 D    
C80   C92   1.394281 A    
C55   S14   1.780697 S    
C67   C79   1.396968 A    
S11   O57   1.497485 D    
C25   C37   1.416514 A    
O16   Cr1   1.910530 S    
S12   O61   1.501609 D    
S20   O84   1.503042 D    
S1    O29   1.681941 S    
C47   C59   1.412995 A    
C53   S22   1.781238 S    
H7    C74   1.083836 S    
O3    Cr3   2.022262 S    
O71   H27   0.990497 S    
C9    C35   1.491104 S    
S23   O95   1.679734 S    
C46   S10   1.779414 S    
C81   C93   1.394421 A    
H3    C84   1.083850 S    
S9    O51   1.497484 D    
C47   S11   1.780730 S    
O14   C2    1.291336 A    
H8    C73   1.083841 S    
O50   H20   0.990517 S    
C79   C91   1.394417 A    
C57   S18   1.780698 S    
S21   O88   1.503101 D    
C19   C62   1.437388 S    
C45   S9    1.780731 S    
C36   C48   1.416506 A    
O17   Cr2   1.910534 S    
C59   C71   1.412771 A    
S11   O58   1.502968 D    
O80   H30   0.990497 S    
C58   C70   1.412616 A    
S2    O32   1.680236 S    
C53   C65   1.412621 A    
C93   I6    2.119128 S    
C18   C69   1.437388 S    
O15   C3    1.291927 A    
O38   H16   0.990647 S    
C17   C22   1.202689 T    
S16   O72   1.502012 D    
C43   S7    1.780731 S    
S24   O96   1.503040 D    
C21   C66   1.437388 S    
O68   H26   0.990497 S    
H2    C79   1.083837 S    
H10   C77   1.083840 S    
S19   O82   1.503099 D    
O8    C10   1.293045 A    
H9    C78   1.083836 S    
C30   C42   1.417623 A    
C37   C49   1.413415 A    
C29   C41   1.416519 A    
O35   H15   0.990515 S    
C28   C40   1.417624 A    
C85   I8    2.119268 S    
C51   C63   1.412623 A    
S6    O44   1.680235 S    
O13   Cr1   1.910531 S    
C86   I7    2.119129 S    
C31   C43   1.417623 A    
S8    O48   1.497271 D    
S15   O70   1.502252 D    
C8    C34   1.490914 S    
C29   C89   1.408128 A    
C56   C68   1.412624 A    
O23   C11   1.291337 A    
S6    O42   1.497485 D    
S13   O65   1.679523 S    
O5    C1    1.293046 A    
O5    Cr2   2.022265 S    
C27   C87   1.408128 A    
O83   H31   0.990506 S    
C38   S2    1.780730 S    
S10   O55   1.501609 D    
O98   H36   0.990497 S    
C44   C56   1.413415 A    
O74   H28   0.990498 S    
S5    O41   1.681942 S    
C73   C85   1.394279 A    
O22   Cr4   1.910537 S    
S2    O30   1.497484 D    
O20   C8    1.291929 A    
Cr5   O26   1.985402 S    
C2    C28   1.491102 S    
C23   C64   1.437385 S    
S22   O90   1.503040 D    
C50   C62   1.412771 A    
C7    C33   1.491103 S    
S9    O53   1.680237 S    
C45   C57   1.412995 A    
C92   I1    2.119270 S    
C76   C88   1.394421 A    
C35   C47   1.417622 A    
H4    C83   1.083838 S    
C60   S15   1.781227 S    
S16   O73   1.503102 D    
O20   Cr5   1.910531 S    
O13   C1    1.291924 A    
O8    Cr5   2.022267 S    
C74   C86   1.394419 A    
H6    C81   1.083837 S    
O2    C4    1.293705 A    
Cr6   O26   1.985405 S    
C33   C45   1.417622 A    
C94   I5    2.119262 S    
S18   O80   1.679734 S    
C55   C67   1.412772 A    
O4    Cr1   2.022265 S    
S18   O79   1.503100 D    
Cr2   O25   1.985397 S    
C44   S8    1.779415 S    
S20   O86   1.679524 S    
O24   C12   1.291923 A    
O29   H13   0.990521 S    
S21   O89   1.679734 S    
C10   C36   1.490917 S    
O95   H35   0.990498 S    
S4    O37   1.502969 D    
C84   C96   1.394277 A    
S11   O59   1.680237 S    
C14   C19   1.202911 T    
O1    C3    1.293055 A    
Cr1   O25   1.985404 S    
S1    O27   1.497272 D    
C66   C78   1.396967 A    
H1    C80   1.083840 S    
C14   C67   1.437386 S    
C15   C72   1.436950 S    
C40   S4    1.780730 S    
S14   O68   1.679736 S    
C65   C77   1.396732 A    
C89   I10   2.119268 S    
O6    C2    1.293708 A    
C13   C20   1.202693 T    
C25   C85   1.408126 A    
C48   S12   1.779415 S    
C30   C90   1.407753 A    
C69   C81   1.396966 A    
C37   S1    1.779414 S    
C82   C94   1.394286 A    
S20   O85   1.502252 D    
S19   O83   1.679737 S    
Cr3   O25   1.985404 S    
S3    O34   1.501610 D    
C57   C69   1.412770 A    
C42   C54   1.412995 A    
O12   Cr6   2.022262 S    
S14   O66   1.502012 D    
C41   C53   1.413415 A    
C48   C60   1.413419 A    
O18   C6    1.291337 A    
O11   C7    1.293706 A    
C36   C96   1.408121 A    
C24   C63   1.436949 S    
C43   C55   1.412995 A    
O17   C5    1.291924 A    
S9    O52   1.502968 D    
S15   O71   1.679524 S    
S4    O36   1.497484 D    
O65   H25   0.990492 S    
S10   O56   1.681943 S    
C91   I2    2.119128 S    
S17   O76   1.502279 D    
S18   O78   1.502013 D    
C72   C84   1.396740 A    
C22   C65   1.436940 S    
S19   O81   1.502013 D    
O9    C11   1.293709 A    
O10   C12   1.293052 A    
O9    Cr6   2.022262 S    
C52   S23   1.780697 S    
C77   C89   1.394277 A    
S10   O54   1.497268 D    
O32   H14   0.990645 S    
S14   O67   1.503100 D    
O1    Cr1   2.022259 S    
C51   S24   1.781223 S    
C18   C21   1.202911 T    
C62   C74   1.396967 A    
Cr4   O26   1.985396 S    
C58   S17   1.781217 S    
C15   C24   1.202694 T    
S22   O92   1.679530 S    
