data_mof_unit_44590.cif
_audit_creation_date              2012-12-10T16:53:07-0500
_audit_creation_method            fapswitch 2.2
_symmetry_space_group_name_H-M    P1
_symmetry_Int_Tables_number       1
_space_group_crystal_system       triclinic
_cell_length_a                    10.843719
_cell_length_b                    10.919867
_cell_length_c                    9.861574
_cell_angle_alpha                 90.17893
_cell_angle_beta                  88.663687
_cell_angle_gamma                 92.448947
_cell_volume                      1166.34196084

loop_
_atom_site_label
_atom_site_type_symbol
_atom_type_description
_atom_site_fract_x
_atom_site_fract_y
_atom_site_fract_z
_atom_type_partial_charge
C1    C     C_R   0.498540 0.265835 0.499941 0.856563
C2    C     C_R   0.057187 0.498005 0.628559 -0.105864
C3    C     C_R   0.128287 0.520733 0.507910 -0.160933
C4    C     C_R   0.068384 0.532103 0.385403 -0.257627
C5    C     C_R   0.941211 0.515885 0.379609 0.451280
C6    C     C_R   0.871884 0.479130 0.496924 -0.149441
C7    C     C_2   0.500776 0.932654 0.388872 -0.161606
C8    C     C_2   0.509032 0.866712 0.502489 -0.302370
C9    C     C_2   0.506170 0.067025 0.388700 -0.152353
C10   C     C_2   0.493141 0.133372 0.502227 -0.291369
C11   C     C_2   0.434493 0.423755 0.925221 0.128845
C12   C     C_R   0.263085 0.509413 0.502271 0.809551
C13   C     C_2   0.423039 0.435184 0.077596 0.113574
C14   C     C_R   0.502105 0.734201 0.500185 0.799539
C15   C     C_R   0.736907 0.490148 0.498812 0.840147
C16   C     C_R   0.104499 0.511883 0.760488 0.425490
C17   C     C_R   0.059965 0.432889 0.861441 -0.328974
C18   C     C_R   0.960307 0.350477 0.836951 0.246928
C19   C     C_R   0.887056 0.367521 0.719953 0.498085
C20   C     C_R   0.935417 0.449440 0.616663 -0.156189
Cu1   Cu    Cu3+1 0.500020 0.500020 0.638630 0.992372
Cu2   Cu    Cu3+1 0.499980 0.499980 0.361370 0.971196
H1    H     H_    0.120063 0.553705 0.292510 0.181551
H2    H     H_    0.475736 0.091777 0.600605 0.136810
H3    H     H_    0.386372 0.345793 0.878921 0.039188
H4    H     H_    0.344525 0.387271 0.126590 0.045260
H5    H     H_    0.106038 0.432992 0.957712 0.160984
H6    H     H_    0.491232 0.887375 0.291211 0.161534
H7    H     H_    0.523776 0.908617 0.600654 0.149043
H8    H     H_    0.519001 0.111944 0.290936 0.162200
N1    N     N_2   0.498640 0.498660 0.846910 0.029566
N2    N     N_2   0.498610 0.498630 0.153040 0.019558
O1    O     O_R   0.500020 0.321960 0.617040 -0.601363
O2    O     O_R   0.499980 0.321920 0.382900 -0.588216
O3    O     O_R   0.319670 0.500020 0.617100 -0.543582
O4    O     O_R   0.319630 0.499980 0.382950 -0.600964
O5    O     O_R   0.500020 0.678080 0.617100 -0.568450
O6    O     O_R   0.499980 0.678040 0.382960 -0.613754
O7    O     O_R   0.680370 0.500020 0.617050 -0.599955
O8    O     O_R   0.680330 0.499980 0.382900 -0.551089
O9    O     O_3   0.522368 0.612957 0.894859 -0.454480
C21   C     C_3   0.644414 0.651000 0.851886 -0.004308
H9    H     H_    0.658673 0.674514 0.745640 0.160397
H10   H     H_    0.713019 0.582188 0.877392 0.129029
H11   H     H_    0.668853 0.740098 0.900301 0.062364
O10   O     O_3   0.612913 0.524521 0.101391 -0.500116
C22   C     C_3   0.649352 0.645356 0.143190 0.040121
H12   H     H_    0.673437 0.656940 0.248766 0.190350
H13   H     H_    0.578771 0.712662 0.119452 0.124337
H14   H     H_    0.738341 0.672377 0.092164 0.096893
O11   O     O_3   0.189249 0.603841 0.795404 -0.683987
H15   H     H_    0.192874 0.666174 0.722278 0.326214
O12   O     O_3   0.935706 0.253419 0.924246 -0.766273
H16   H     H_    0.003641 0.248516 0.989357 0.318862
O13   O     O_3   0.783433 0.292249 0.690145 -0.582419
C23   C     C_3   0.714435 0.252706 0.806762 -0.156563
H17   H     H_    0.709416 0.325034 0.886396 0.155878
H18   H     H_    0.749821 0.166170 0.845947 0.198787
H19   H     H_    0.618983 0.227346 0.778789 0.154500
O14   O     O_3   0.886083 0.538034 0.257955 -0.596564
C24   C     C_3   0.885842 0.429264 0.180711 -0.211204
H20   H     H_    0.826072 0.355754 0.229409 0.178924
H21   H     H_    0.980905 0.396961 0.164181 0.124623
H22   H     H_    0.847648 0.448246 0.080046 0.209471

loop_
_geom_bond_atom_site_label_1
_geom_bond_atom_site_label_2
_ccdc_geom_bond_type
C24   H22   S    
O13   C23   S    
C23   H19   S    
Cu1   O3    S    
C12   O4    A    
C2    C16   A    
C9    C10   D    
C13   N2    D    
C22   H12   S    
C5    O14   S    
C16   O11   S    
Cu2   O8    S    
C15   O8    A    
Cu1   N1    S    
C19   C20   A    
C17   C18   A    
C14   O6    A    
C21   H10   S    
C11   N1    D    
C7    C8    D    
C22   H13   S    
N2    O10   S    
Cu1   Cu2   S    
C14   O5    A    
C11   C13   S    
C15   O7    A    
C24   H20   S    
Cu1   O7    S    
Cu2   N2    S    
C9    H8    S    
C8    H7    S    
C23   H18   S    
C1    O2    A    
C2    C3    A    
C22   H14   S    
C5    C6    A    
Cu2   O2    S    
C13   H4    S    
Cu1   O1    S    
C21   H9    S    
C11   H3    S    
C1    O1    A    
O11   H15   S    
Cu2   O6    S    
C6    C20   A    
C23   H17   S    
Cu1   O5    S    
C24   H21   S    
C18   C19   A    
O9    C21   S    
C19   O13   S    
C7    C9    S    
C4    H1    S    
O10   C22   S    
C4    C5    A    
C8    C14   S    
C3    C12   S    
N1    O9    S    
C18   O12   S    
C10   H2    S    
C6    C15   S    
O12   H16   S    
C2    C20   A    
C1    C10   S    
Cu2   O4    S    
C7    H6    S    
C3    C4    A    
C16   C17   A    
O14   C24   S    
C12   O3    A    
C21   H11   S    
C17   H5    S    
