data_mof_unit_59825.cif
_audit_creation_date              2012-12-11T15:39:34-0500
_audit_creation_method            fapswitch 2.2
_symmetry_space_group_name_H-M    P1
_symmetry_Int_Tables_number       1
_space_group_crystal_system       triclinic
_cell_length_a                    17.328603
_cell_length_b                    24.258942
_cell_length_c                    14.899016
_cell_angle_alpha                 90.17195
_cell_angle_beta                  125.135436
_cell_angle_gamma                 89.867147
_cell_volume                      5121.94382022

loop_
_atom_site_label
_atom_site_type_symbol
_atom_type_description
_atom_site_fract_x
_atom_site_fract_y
_atom_site_fract_z
_atom_type_partial_charge
C1    C     C_R   0.311802 0.373613 0.908813 0.671263
C2    C     C_R   0.539738 0.499005 0.712647 -0.006588
C3    C     C_R   0.114695 0.814020 0.000003 -0.343512
C4    C     C_R   0.063414 0.999885 0.366868 0.007333
C5    C     C_R   0.051725 0.999934 0.726407 -0.010014
C6    C     C_R   0.205751 0.502061 0.628906 -0.158403
C7    C     C_R   0.826629 0.500967 0.315969 -0.115539
C8    C     C_R   0.698727 0.000714 0.633753 -0.140615
C9    C     C_R   0.325731 0.000678 0.280680 -0.129481
C10   C     C_R   0.073952 0.554259 0.473255 0.200603
C11   C     C_R   0.977016 0.553271 0.402330 0.092057
C12   C     C_R   0.565823 0.052822 0.485706 0.222411
C13   C     C_R   0.646158 0.347465 0.090947 0.619331
C14   C     C_R   0.472710 0.053057 0.398452 0.208942
C15   C     C_R   0.124032 0.504672 0.515422 0.087671
C16   C     C_R   0.928378 0.503070 0.370472 0.070879
C17   C     C_R   0.616848 0.003678 0.521032 0.073457
C18   C     C_R   0.427860 0.003959 0.343171 0.062625
C19   C     C_R   0.078557 0.455604 0.459533 -0.195683
C20   C     C_R   0.980303 0.454709 0.387547 -0.186146
C21   C     C_R   0.578370 0.956691 0.453632 -0.195618
C22   C     C_R   0.483366 0.956894 0.364022 -0.200510
C23   C     C_3   0.966677 0.604029 0.451695 -0.406399
C24   C     C_R   0.854137 0.847616 0.908634 0.661724
C25   C     C_3   0.071943 0.605559 0.528635 -0.452423
C26   C     C_3   0.447903 0.093446 0.455038 -0.430802
C27   C     C_3   0.549868 0.093143 0.549952 -0.517383
C28   C     C_R   0.156553 0.683562 0.901146 -0.215932
C29   C     C_R   0.838674 0.688955 0.097641 -0.221530
C30   C     C_R   0.656888 0.183762 0.901368 -0.217906
C31   C     C_R   0.202365 0.269495 0.098248 -0.195253
C32   C     C_R   0.608100 0.229061 0.901166 -0.118279
C33   C     C_R   0.253062 0.313567 0.098552 -0.103248
C34   C     C_R   0.107743 0.728878 0.900956 -0.115416
C35   C     C_R   0.145955 0.847362 0.090793 0.630760
C36   C     C_R   0.893804 0.729848 0.097422 -0.112718
C37   C     C_R   0.638857 0.255750 0.000288 0.204053
C38   C     C_R   0.237591 0.331027 0.999714 0.188857
C39   C     C_R   0.138538 0.755602 0.000066 0.206487
C40   C     C_R   0.863600 0.756094 0.998492 0.208308
C41   C     C_R   0.401344 0.623680 0.092119 -0.111202
C42   C     C_R   0.591329 0.633244 0.908653 -0.103356
C43   C     C_R   0.901619 0.123963 0.092210 -0.127556
C44   C     C_R   0.054153 0.152650 0.908229 -0.128171
C45   C     C_R   0.705961 0.229181 0.099502 -0.120200
C46   C     C_R   0.311324 0.636134 0.000347 0.020127
C47   C     C_R   0.154983 0.313733 0.900483 -0.113803
C48   C     C_R   0.205530 0.728966 0.099252 -0.120658
C49   C     C_R   0.793695 0.730709 0.899162 -0.114895
C50   C     C_R   0.254524 0.683768 0.099318 -0.212760
C51   C     C_R   0.738573 0.689793 0.899302 -0.219580
C52   C     C_R   0.754994 0.184033 0.099565 -0.210678
C53   C     C_R   0.104293 0.269552 0.899943 -0.196114
C54   C     C_R   0.237112 0.665044 0.000311 0.163375
C55   C     C_R   0.754339 0.674005 0.998766 0.169312
C56   C     C_R   0.737522 0.165329 0.000533 0.161572
C57   C     C_R   0.680183 0.646645 0.999406 0.019207
C58   C     C_R   0.134932 0.243462 0.998862 0.150572
C59   C     C_R   0.602924 0.548937 0.623491 -0.163361
C60   C     C_R   0.612362 0.549367 0.537438 -0.142247
C61   C     C_R   0.106395 0.049751 0.628032 -0.149737
C62   C     C_R   0.106616 0.049776 0.535315 -0.155934
C63   C     C_R   0.604901 0.499730 0.484731 0.137987
C64   C     C_R   0.585205 0.498939 0.655483 0.141659
C65   C     C_R   0.096967 0.999863 0.482057 0.134806
C66   C     C_R   0.095114 0.999878 0.666486 0.139750
C67   C     C_R   0.609729 0.449514 0.534142 -0.150665
C68   C     C_R   0.811686 0.136487 0.000515 0.032170
C69   C     C_R   0.599437 0.449115 0.619382 -0.156881
C70   C     C_R   0.106643 0.949948 0.534867 -0.155115
C71   C     C_R   0.106318 0.949981 0.627522 -0.153815
C72   C     C_R   0.554210 0.454606 0.305753 0.013830
C73   C     C_R   0.515425 0.453246 0.746571 -0.112956
C74   C     C_R   0.046934 0.954091 0.302653 -0.066974
C75   C     C_R   0.020567 0.953856 0.752171 -0.100995
C76   C     C_R   0.253620 0.546467 0.694550 0.662187
C77   C     C_R   0.766697 0.546043 0.279956 0.681887
C78   C     C_R   0.748585 0.045826 0.696499 0.678037
C79   C     C_R   0.111098 0.185739 0.998647 -0.011047
C80   C     C_R   0.267326 0.045815 0.247875 0.696569
C81   C     C_R   0.551895 0.545856 0.304996 -0.118793
C82   C     C_R   0.506542 0.545005 0.735832 -0.075064
C83   C     C_R   0.048583 0.045687 0.303706 -0.144734
C84   C     C_R   0.020197 0.046069 0.751981 -0.073789
C85   C     C_R   0.248526 0.455562 0.692683 -0.096593
C86   C     C_R   0.769773 0.454229 0.271049 -0.214789
C87   C     C_R   0.744193 0.954429 0.696671 -0.175309
C88   C     C_R   0.269632 0.954104 0.253888 -0.212218
C89   C     C_R   0.309689 0.623424 0.908251 -0.113850
C90   C     C_R   0.571547 0.500219 0.369949 -0.024920
C91   C     C_R   0.684791 0.630616 0.091109 -0.142848
C92   C     C_R   0.809927 0.123747 0.908395 -0.124535
C93   C     C_R   0.141190 0.153874 0.089581 0.050246
C94   C     C_R   0.402625 0.373492 0.091307 0.663971
C95   C     C_R   0.554720 0.346996 0.909294 0.604241
C96   C     C_R   0.944981 0.847376 0.090592 0.653624
C97   C     C_R   0.054922 0.847037 0.909219 0.616591
C98   C     C_R   0.312473 0.359868 0.000046 -0.360055
C99   C     C_R   0.614819 0.314098 0.000169 -0.320242
C100  C     C_R   0.886872 0.814204 0.999284 -0.362453
F1    F     F_    0.243979 0.362281 0.802421 -0.725713
F2    F     F_    0.488963 0.328842 0.806249 -0.715602
F3    F     F_    0.007407 0.830343 0.195200 -0.695377
F4    F     F_    0.989843 0.829078 0.805805 -0.688140
F5    F     F_    0.685224 0.330162 0.195002 -0.717758
F6    F     F_    0.812590 0.830968 0.803595 -0.693390
F7    F     F_    0.185022 0.830001 0.194828 -0.691484
F8    F     F_    0.261708 0.595902 0.658450 -0.725587
F9    F     F_    0.783034 0.595621 0.328978 -0.758209
F10   F     F_    0.748498 0.096167 0.657082 -0.728454
F11   F     F_    0.291266 0.098490 0.246714 -0.754833
F12   F     F_    0.440208 0.361923 0.197573 -0.725606
H1    H     H_    0.937624 0.639469 0.393911 0.223471
H2    H     H_    0.858313 0.673256 0.175965 0.125526
H3    H     H_    0.636845 0.167499 0.823091 0.124420
H4    H     H_    0.223174 0.253023 0.176505 0.128108
H5    H     H_    0.553012 0.245292 0.822287 0.204540
H6    H     H_    0.308631 0.330067 0.177090 0.200215
H7    H     H_    0.052591 0.745088 0.822093 0.207441
H8    H     H_    0.953194 0.743881 0.175960 0.208396
H9    H     H_    0.312031 0.667691 0.177581 0.125600
H10   H     H_    0.679162 0.674654 0.821209 0.118381
H11   H     H_    0.812555 0.167990 0.177830 0.124932
H12   H     H_    0.095857 0.599615 0.615025 0.187159
H13   H     H_    0.047435 0.253101 0.821570 0.127741
H14   H     H_    0.600405 0.588045 0.656730 0.108496
H15   H     H_    0.615139 0.588794 0.505812 0.119567
H16   H     H_    0.104775 0.089067 0.661202 0.117233
H17   H     H_    0.105201 0.089141 0.500691 0.115146
H18   H     H_    0.610238 0.410257 0.500095 0.129707
H19   H     H_    0.593035 0.409677 0.648040 0.122665
H20   H     H_    0.105405 0.910586 0.499965 0.127651
H21   H     H_    0.104611 0.910672 0.660261 0.121781
H22   H     H_    0.428084 0.628470 0.177344 0.099662
H23   H     H_    0.426069 0.134423 0.414423 0.253037
H24   H     H_    0.559368 0.647114 0.826057 0.097448
H25   H     H_    0.928491 0.128952 0.177419 0.101516
H26   H     H_    0.007932 0.165873 0.823868 0.115725
H27   H     H_    0.577046 0.413001 0.334432 0.165388
H28   H     H_    0.527744 0.410466 0.739159 0.157364
H29   H     H_    0.063450 0.911751 0.329195 0.168805
H30   H     H_    0.031503 0.911130 0.742554 0.155213
H31   H     H_    0.239028 0.413882 0.662431 0.200870
H32   H     H_    0.791436 0.411621 0.283429 0.196428
H33   H     H_    0.731410 0.912170 0.668580 0.204964
H34   H     H_    0.561807 0.075265 0.625687 0.184204
H35   H     H_    0.292109 0.911598 0.267694 0.196210
H36   H     H_    0.115957 0.416742 0.482522 0.146417
H37   H     H_    0.946094 0.415354 0.354812 0.142226
H38   H     H_    0.617721 0.918509 0.476301 0.153416
H39   H     H_    0.451635 0.918895 0.319429 0.147507
H40   H     H_    0.728321 0.245341 0.178303 0.206505
H41   H     H_    0.132716 0.330468 0.822204 0.201054
H42   H     H_    0.227849 0.745111 0.178047 0.208056
H43   H     H_    0.773502 0.745436 0.820395 0.208044
H44   H     H_    0.569559 0.588186 0.331930 0.115251
H45   H     H_    0.934001 0.596052 0.496441 0.245694
H46   H     H_    0.501669 0.586181 0.706844 0.100070
H47   H     H_    0.067311 0.087820 0.331570 0.096788
H48   H     H_    0.030373 0.088843 0.741993 0.099307
H49   H     H_    0.251697 0.627650 0.823055 0.127935
H50   H     H_    0.740293 0.639718 0.174565 0.178231
H51   H     H_    0.751977 0.128288 0.823349 0.139349
H52   H     H_    0.173017 0.168841 0.172143 0.126500
H53   H     H_    0.102966 0.641685 0.514390 0.243200
H54   H     H_    0.400835 0.075710 0.475764 0.189086
H55   H     H_    0.584695 0.133502 0.561297 0.252743
H56   H     H_    0.136592 0.667328 0.822881 0.123473
N1    N     N_R   0.394180 0.396910 0.943210 -0.139183
N2    N     N_R   0.474350 0.471570 0.793850 -0.042633
N3    N     N_R   0.025650 0.971570 0.206150 -0.041373
N4    N     N_R   0.974350 0.971570 0.793850 -0.035815
N5    N     N_R   0.319480 0.528420 0.793810 -0.117172
N6    N     N_R   0.680520 0.528420 0.206190 -0.103891
N7    N     N_R   0.819480 0.028420 0.793810 -0.113230
N8    N     N_R   0.180520 0.028420 0.206190 -0.116184
N9    N     N_R   0.525640 0.528390 0.206120 -0.058921
N10   N     N_R   0.474360 0.528390 0.793880 -0.042349
N11   N     N_R   0.025640 0.028390 0.206120 -0.052691
N12   N     N_R   0.605820 0.396910 0.056790 -0.138793
N13   N     N_R   0.974360 0.028390 0.793880 -0.044441
N14   N     N_R   0.319490 0.471590 0.793840 -0.082610
N15   N     N_R   0.680510 0.471590 0.206160 -0.071592
N16   N     N_R   0.819490 0.971590 0.793840 -0.074270
N17   N     N_R   0.180510 0.971590 0.206160 -0.063608
N18   N     N_R   0.394130 0.603080 0.943110 -0.039198
N19   N     N_R   0.605870 0.603080 0.056890 -0.046681
N20   N     N_R   0.894130 0.103080 0.943110 -0.040693
N21   N     N_R   0.105870 0.103080 0.056890 -0.052055
N22   N     N_R   0.450990 0.396900 0.056840 -0.142704
N23   N     N_R   0.894180 0.896910 0.943210 -0.145869
N24   N     N_R   0.549010 0.396900 0.943160 -0.142497
N25   N     N_R   0.950990 0.896900 0.056840 -0.148310
N26   N     N_R   0.049010 0.896900 0.943160 -0.148066
N27   N     N_R   0.105820 0.896910 0.056790 -0.143076
N28   N     N_R   0.450950 0.603070 0.056740 -0.045714
N29   N     N_R   0.549050 0.603070 0.943260 -0.041771
N30   N     N_R   0.950950 0.103070 0.056740 -0.054171
N31   N     N_R   0.049050 0.103070 0.943260 -0.053535
N32   N     N_R   0.525650 0.471570 0.206150 -0.054779
Ni1   Ni    Ni4+2 0.434860 0.434850 0.869700 0.268580
Ni2   Ni    Ni4+2 0.565140 0.434850 0.130300 0.264634
Ni3   Ni    Ni4+2 0.934860 0.934850 0.869700 0.288524
Ni4   Ni    Ni4+2 0.065140 0.934850 0.130300 0.282897
Ni5   Ni    Ni4+2 0.565130 0.565140 0.130240 0.242352
Ni6   Ni    Ni4+2 0.434870 0.565140 0.869760 0.268487
Ni7   Ni    Ni4+2 0.065130 0.065140 0.130240 0.207748
Ni8   Ni    Ni4+2 0.934870 0.065140 0.869760 0.258751

loop_
_geom_bond_atom_site_label_1
_geom_bond_atom_site_label_2
_ccdc_geom_bond_type
C29   H2    S    
C60   H15   S    
C5    C75   A    
C77   N6    A    
N14   Ni1   S    
C89   N18   A    
C14   C18   A    
C19   C20   A    
C47   C53   A    
C32   H5    S    
C38   C98   S    
C85   H31   S    
N23   N25   A    
C84   H48   S    
C86   H32   S    
N8    N17   A    
C46   C89   A    
C59   H14   S    
C15   C19   A    
C29   C36   A    
C26   C27   S    
C85   N14   A    
C81   H44   S    
N19   N29   A    
C60   C63   A    
N7    Ni8   S    
N8    Ni7   S    
N18   N28   A    
C84   N13   A    
C11   C23   S    
C79   C93   A    
C41   N28   A    
N12   Ni2   S    
C10   C15   A    
C9    C88   A    
C4    C65   S    
C82   H46   S    
C52   H11   S    
C95   C99   A    
C7    C86   A    
C72   N32   A    
C94   C98   A    
C40   C49   A    
N10   Ni6   S    
N3    Ni4   S    
C72   C90   A    
C20   H37   S    
C80   F11   S    
C42   H24   S    
C1    N1    A    
N28   Ni5   S    
N2    Ni1   S    
C48   H42   S    
C26   H23   S    
C6    C15   S    
N4    N13   A    
C72   H27   S    
N20   Ni8   S    
C43   C68   A    
C49   C51   A    
N9    N32   A    
C12   C17   A    
N6    Ni5   S    
C41   C46   A    
C31   C33   A    
C91   H50   S    
N5    Ni6   S    
N20   N30   A    
C61   H16   S    
C57   C91   A    
C4    C74   A    
C95   F2    S    
C35   N27   A    
C7    C77   A    
N21   N31   A    
C48   C50   A    
N26   N27   A    
C28   C34   A    
C33   H6    S    
C76   F8    S    
N16   Ni3   S    
C18   C22   A    
C21   C22   A    
C8    C78   A    
C65   C70   A    
C62   H17   S    
N3    N11   A    
N29   Ni6   S    
C50   H9    S    
N23   Ni3   S    
N1    N22   A    
C61   C66   A    
C42   C57   A    
C89   H49   S    
C41   H22   S    
C2    C64   S    
C63   C67   A    
C30   H3    S    
C44   C79   A    
N11   Ni7   S    
C69   H19   S    
N18   Ni6   S    
C12   C27   S    
C34   C39   A    
C36   C40   A    
N13   Ni8   S    
N17   Ni4   S    
C80   N8    A    
C13   F5    S    
N12   N24   A    
N24   Ni1   S    
C87   N16   A    
C5    C84   A    
C28   C54   A    
N22   Ni2   S    
N27   Ni4   S    
C47   H41   S    
C93   H52   S    
C25   H53   S    
C32   C37   A    
C30   C56   A    
N19   Ni5   S    
C17   C21   A    
C67   C69   A    
C9    C80   A    
C97   N26   A    
C13   C99   A    
N4    Ni3   S    
C31   C58   A    
C94   N22   A    
C71   H21   S    
C75   H30   S    
C23   H1    S    
N1    Ni1   S    
C26   H54   S    
C11   C16   A    
C3    C97   A    
C66   C71   A    
C3    C35   A    
C16   C20   A    
C46   C54   S    
C70   H20   S    
C74   N3    A    
C78   F10   S    
C50   C54   A    
C64   C69   A    
C14   C26   S    
C77   F9    S    
N25   Ni4   S    
C38   C47   A    
C70   C71   A    
C2    C73   A    
C53   H13   S    
C95   N24   A    
C81   C90   A    
C58   C79   S    
C92   H51   S    
C88   N17   A    
C74   H29   S    
N2    N10   A    
N5    N14   A    
C55   C57   S    
C78   N7    A    
C2    C82   A    
C67   H18   S    
C24   F6    S    
C37   C45   A    
C1    F1    S    
C31   H4    S    
C37   C99   S    
C10   C25   S    
C34   H7    S    
C91   N19   A    
C22   H39   S    
C76   N5    A    
C44   H26   S    
C87   H33   S    
C62   C65   A    
N30   Ni7   S    
C24   C100  A    
N15   Ni2   S    
C49   H43   S    
C42   N29   A    
C7    C16   S    
C33   C38   A    
C12   C14   A    
C5    C66   S    
C1    C98   A    
C40   C100  S    
C53   C58   A    
C92   N20   A    
C6    C76   A    
C73   H28   S    
C93   N21   A    
C13   N12   A    
C29   C55   A    
C96   C100  A    
C19   H36   S    
C45   C52   A    
C83   N11   A    
C45   H40   S    
C8    C87   A    
C73   N2    A    
C81   N9    A    
C59   C64   A    
C56   C68   S    
C8    C17   S    
C30   C32   A    
C21   H38   S    
C86   N15   A    
C4    C83   A    
N21   Ni7   S    
C27   H34   S    
N26   Ni3   S    
C23   H45   S    
C63   C90   S    
C94   F12   S    
N31   Ni8   S    
C68   C92   A    
C88   H35   S    
N9    Ni5   S    
C43   H25   S    
C24   N23   A    
C51   C55   A    
C23   C25   S    
C61   C62   A    
C36   H8    S    
C25   H12   S    
C97   F4    S    
C35   F7    S    
C10   C11   A    
C28   H56   S    
C3    C39   S    
C96   N25   A    
C9    C18   S    
C59   C60   A    
C83   H47   S    
C44   N31   A    
N32   Ni2   S    
C96   F3    S    
C6    C85   A    
C75   N4    A    
C51   H10   S    
N7    N16   A    
C43   N30   A    
N6    N15   A    
C82   N10   A    
C52   C56   A    
C27   H55   S    
C39   C48   A    
