data_mof_unit_46625.cif
_audit_creation_date              2013-03-05T15:54:38-0500
_audit_creation_method            fapswitch 2.2
_symmetry_space_group_name_H-M    P1
_symmetry_Int_Tables_number       1
_space_group_crystal_system       triclinic
_cell_length_a                    10.0
_cell_length_b                    10.7032
_cell_length_c                    16.677307
_cell_angle_alpha                 93.428955
_cell_angle_beta                  81.822615
_cell_angle_gamma                 88.794401
_cell_volume                      1762.90444301

loop_
_atom_site_label
_atom_site_type_symbol
_atom_site_description
_atom_site_fract_x
_atom_site_fract_y
_atom_site_fract_z
_atom_type_partial_charge
O1    O     O_R   0.385310 0.683220 0.500000 -0.611161
O2    O     O_R   0.614640 0.683250 0.500010 -0.628968
C1    C     C_R   0.499671 0.738416 0.491550 0.932142
O3    O     O_R   0.371780 0.500010 0.615800 -0.563060
O4    O     O_R   0.601110 0.500030 0.615800 -0.654761
C2    C     C_R   0.477740 0.500077 0.653067 0.911449
Zn1   Zn    Zn3+2 0.346870 0.499980 0.499990 0.992282
Zn2   Zn    Zn3+2 0.653130 0.500020 0.500010 0.987757
O5    O     O_R   0.385360 0.316750 0.499990 -0.633852
O6    O     O_R   0.614690 0.316780 0.500000 -0.620258
O7    O     O_R   0.398890 0.499970 0.384200 -0.615372
O8    O     O_R   0.628220 0.499990 0.384200 -0.578090
C3    C     C_R   0.499910 0.260540 0.504541 0.852606
C4    C     C_R   0.522804 0.497092 0.346601 0.930949
C5    C     C_R   0.457712 0.500242 0.740474 -0.045336
C6    C     C_R   0.536602 0.576641 0.784449 -0.228561
C7    C     C_R   0.524898 0.572569 0.868445 0.328534
C8    C     C_R   0.436871 0.485636 0.906954 0.018455
C9    C     C_R   0.352363 0.414951 0.863330 -0.119724
C10   C     C_R   0.362507 0.422436 0.779970 -0.121213
C11   C     C_R   0.479395 0.344767 0.145798 0.297395
C12   C     C_R   0.462727 0.379548 0.228251 -0.285679
C13   C     C_R   0.653159 0.518320 0.208586 0.224299
C14   C     C_R   0.670918 0.484118 0.125222 0.273305
C15   C     C_R   0.578172 0.404387 0.093589 -0.082554
C16   C     C_2   0.445682 0.454418 0.989501 -0.111111
C17   C     C_2   0.563022 0.410618 0.008208 -0.046644
C18   C     C_R   0.545135 0.468698 0.259388 -0.212888
H1    H     H_    0.606153 0.640061 0.753254 0.174332
H2    H     H_    0.385621 0.335771 0.268775 0.208952
H3    H     H_    0.651416 0.398233 0.961993 0.183285
H4    H     H_    0.284469 0.348826 0.893093 0.188601
H5    H     H_    0.300795 0.363567 0.745877 0.155793
H6    H     H_    0.356709 0.469445 0.035049 0.191871
H7    H     H_    0.711433 0.878496 0.445724 0.249365
C19   C     C_R   0.247427 0.895291 0.475829 -0.214471
H8    H     H_    0.242960 0.809109 0.439208 0.200804
C20   C     C_R   0.127334 0.965502 0.501545 0.350659
C21   C     C_R   0.131621 0.075393 0.550873 -0.232831
H9    H     H_    0.039918 0.127107 0.576856 0.190593
C22   C     C_R   0.255388 0.124031 0.562711 -0.192281
H10   H     H_    0.255272 0.210498 0.599860 0.173688
C23   C     C_R   0.376405 0.064755 0.523178 0.106593
C24   C     C_R   0.372429 0.940922 0.493112 0.081756
C25   C     C_R   0.495521 0.870607 0.478920 -0.145964
C26   C     C_R   0.617686 0.931102 0.465084 -0.112134
H11   H     H_    0.712571 0.106583 0.458477 0.211141
C27   C     C_R   0.618881 0.059598 0.475403 -0.126832
C28   C     C_R   0.499701 0.126600 0.506992 -0.141024
H12   H     H_    0.899562 0.343869 0.417018 0.153446
C29   C     C_R   0.827819 0.680079 0.595710 -0.114415
H13   H     H_    0.721243 0.675708 0.606249 0.204219
C30   C     C_R   0.877966 0.781294 0.635026 -0.146955
H14   H     H_    0.809915 0.851910 0.669049 0.191606
C31   C     C_R   0.014295 0.787408 0.635949 -0.162288
H15   H     H_    0.049666 0.861190 0.674404 0.194072
C32   C     C_R   0.101414 0.687792 0.602658 0.306804
C33   C     C_R   0.056642 0.590705 0.549299 0.034725
C34   C     C_R   0.912794 0.589813 0.547402 0.185083
N1    N     N_R   0.857140 0.501200 0.500750 -0.114796
C35   C     C_R   0.941905 0.414339 0.454461 -0.056749
H16   H     H_    0.147699 0.344274 0.416728 0.158345
C36   C     C_R   0.084284 0.414517 0.454300 -0.065720
N2    N     N_R   0.142740 0.501280 0.500770 -0.125878
Br1   Br    Br    0.815630 0.553706 0.053783 -0.293550
N3    N     N_R   0.001042 0.924222 0.480030 0.196432
O9    O     O_R   0.996223 0.830350 0.427277 -0.386793
O10   O     O_R   0.889161 0.979977 0.514501 -0.470652
N4    N     N_R   0.204235 0.668140 0.650939 0.231591
O11   O     O_R   0.172003 0.602447 0.713724 -0.377789
O12   O     O_R   0.293526 0.754013 0.656078 -0.413253
Br2   Br    Br    0.768387 0.641301 0.250672 -0.340132
N5    N     N_R   0.393536 0.252097 0.115347 0.222179
O13   O     O_R   0.436028 0.182206 0.049728 -0.328748
O14   O     O_R   0.276889 0.229780 0.156633 -0.350028
N6    N     N_R   0.601953 0.656086 0.913586 0.223096
O15   O     O_R   0.713903 0.700863 0.878566 -0.335241
O16   O     O_R   0.552537 0.699890 0.986509 -0.310447

loop_
_geom_bond_atom_site_label_1
_geom_bond_atom_site_label_2
_geom_bond_distance
_ccdc_geom_bond_type
N3    O10   1.298542 A    
C31   H15   1.084324 S    
N5    O14   1.301811 A    
C22   H10   1.082365 S    
C9    C10   1.386718 A    
C8    C16   1.450133 S    
C21   C22   1.387853 A    
C30   H14   1.083288 S    
Zn1   O7    1.927127 S    
C16   C17   1.338840 D    
C19   H8    1.080725 S    
N6    O16   1.301595 A    
O1    C1    1.291997 A    
O4    C2    1.300040 A    
O7    C4    1.305623 A    
C5    C6    1.396024 A    
C11   N5    1.441705 S    
N4    O12   1.302423 A    
C8    C9    1.397075 A    
N5    O13   1.301601 A    
C35   C36   1.423459 A    
O5    C3    1.296564 A    
C2    C5    1.442784 S    
C16   H6    1.087019 S    
C20   N3    1.432603 S    
C6    C7    1.392408 A    
C7    N6    1.439812 S    
C13   C14   1.401632 A    
N3    O9    1.301618 A    
C34   N1    1.368113 A    
C12   C18   1.398138 A    
C11   C12   1.388597 A    
C22   C23   1.411522 A    
O3    Zn1   1.982208 S    
C9    H4    1.083801 S    
C30   C31   1.368451 A    
C33   N2    1.409553 A    
C5    C10   1.397978 A    
C26   C27   1.376311 A    
C17   H3    1.087194 S    
C29   H13   1.057700 S    
C14   C15   1.409034 A    
O3    C2    1.302451 A    
C21   H9    1.082577 S    
C23   C28   1.411471 A    
C33   C34   1.443545 A    
C25   C26   1.391352 A    
C1    C25   1.443475 S    
N1    C35   1.368801 A    
C29   C30   1.373477 A    
C23   C24   1.392156 A    
H16   C36   1.081923 S    
H11   C27   1.082566 S    
Zn2   O8    1.982208 S    
C7    C8    1.413576 A    
C13   C18   1.408702 A    
N6    O15   1.301587 A    
C14   Br1   1.931165 S    
C3    C28   1.436643 S    
C10   H5    1.083724 S    
C27   C28   1.397300 A    
O8    C4    1.300964 A    
C31   C32   1.398755 A    
C19   C24   1.412633 A    
C29   C34   1.407885 A    
C24   C25   1.412230 A    
Zn1   O5    1.990600 S    
C11   C15   1.410439 A    
C12   H2    1.084277 S    
O1    Zn1   2.006486 S    
C13   Br2   1.932974 S    
O2    Zn2   1.990598 S    
O6    C3    1.302048 A    
O4    Zn2   1.927127 S    
C15   C17   1.458521 S    
C32   N4    1.412972 S    
C19   C20   1.402794 A    
O2    C1    1.310677 A    
C6    H1    1.083671 S    
Zn2   N1    2.042191 S    
C32   C33   1.447229 A    
C20   C21   1.399441 A    
N4    O11   1.302393 A    
Zn1   N2    2.039239 S    
C36   N2    1.367596 A    
Zn2   O6    2.006486 S    
H12   C35   1.081872 S    
C4    C18   1.452443 S    
H7    C26   1.081697 S    
