data_mof_unit_67481.cif
_audit_creation_date              2013-03-05T15:40:59-0500
_audit_creation_method            fapswitch 2.2
_symmetry_space_group_name_H-M    P1
_symmetry_Int_Tables_number       1
_space_group_crystal_system       triclinic
_cell_length_a                    10.937082
_cell_length_b                    8.854391
_cell_length_c                    7.619463
_cell_angle_alpha                 102.125624
_cell_angle_beta                  93.855114
_cell_angle_gamma                 95.783816
_cell_volume                      714.772603215

loop_
_atom_site_label
_atom_site_type_symbol
_atom_site_description
_atom_site_fract_x
_atom_site_fract_y
_atom_site_fract_z
_atom_type_partial_charge
O1    O     O_R   0.509140 0.286130 0.619770 -0.558556
O2    O     O_R   0.485380 0.256770 0.308360 -0.609793
C1    C     C_R   0.502547 0.201853 0.453785 0.817583
O3    O     O_R   0.329570 0.514650 0.655700 -0.584964
O4    O     O_R   0.305810 0.485300 0.344290 -0.594713
C2    C     C_R   0.259018 0.486955 0.499315 0.825923
Cu1   Cu    Cu3+1 0.514070 0.517380 0.684380 1.014168
Cu2   Cu    Cu3+1 0.485930 0.482620 0.315620 0.977434
O5    O     O_R   0.514620 0.743230 0.691640 -0.573294
O6    O     O_R   0.490860 0.713870 0.380230 -0.571470
O7    O     O_R   0.694190 0.514700 0.655710 -0.533065
O8    O     O_R   0.670430 0.485350 0.344300 -0.601822
C3    C     C_R   0.515135 0.798968 0.543599 0.865404
C4    C     C_R   0.738778 0.502087 0.498488 0.764312
C5    C     C_3   0.068118 0.440772 0.676100 -0.142807
H1    H     H_    0.126719 0.514589 0.794267 0.163322
C6    C     C_3   0.931560 0.475834 0.684217 -0.170874
H2    H     H_    0.871427 0.376842 0.713155 0.225050
H3    H     H_    0.911599 0.750427 0.571436 0.133323
C7    C     C_3   0.080261 0.649474 0.467576 0.135155
C8    C     C_3   0.045138 0.346141 0.344489 -0.178049
C9    C     C_3   0.117558 0.481395 0.495883 -0.051968
H4    H     H_    0.051905 0.234263 0.381501 0.227357
C10   C     C_3   0.875231 0.496510 0.496099 -0.010416
C11   C     C_3   0.936732 0.652000 0.469040 -0.544021
C12   C     C_3   0.904694 0.365909 0.330701 -0.072149
H5    H     H_    0.883944 0.409356 0.206288 0.215451
H6    H     H_    0.893087 0.672605 0.341242 0.220919
C13   C     C_2   0.509172 0.034987 0.424356 -0.179555
C14   C     C_2   0.546032 0.965927 0.559350 -0.226066
N1    N     N_2   0.464720 0.456420 0.038520 -0.101894
N2    N     N_2   0.535280 0.543580 0.961480 -0.169340
H7    H     H_    0.595704 0.626810 0.048807 0.223193
C15   C     C_3   0.114068 0.688878 0.282550 -0.374412
C16   C     C_3   0.099519 0.854050 0.260953 -0.740046
H8    H     H_    0.015194 0.895153 0.317925 0.222317
H9    H     H_    0.182448 0.933437 0.324415 0.300189
H10   H     H_    0.093813 0.857463 0.115964 0.257265
H11   H     H_    0.209104 0.670978 0.252656 0.272767
H12   H     H_    0.050953 0.614515 0.172921 0.200125
C17   C     C_2   0.479577 0.947156 0.234769 0.410318
H13   H     H_    0.552807 0.930900 0.146090 0.043002
O9    O     O_2   0.374172 0.892342 0.177819 -0.542119
C18   C     C_2   0.633155 0.047239 0.716737 0.304963
H14   H     H_    0.639593 0.999632 0.836436 0.086190
O10   O     O_2   0.704051 0.161045 0.710569 -0.576478
C19   C     C_3   0.378739 0.332029 0.936783 -0.064031
C20   C     C_3   0.417653 0.173405 0.945402 -0.698474
H15   H     H_    0.516899 0.182515 0.991639 0.250952
H16   H     H_    0.359619 0.120751 0.035146 0.292054
H17   H     H_    0.401090 0.093369 0.811314 0.227272
H18   H     H_    0.289295 0.345620 0.989521 0.180586
H19   H     H_    0.364859 0.337973 0.800289 0.218235
C21   C     C_3   0.061640 0.266982 0.700736 -0.411262
C22   C     C_3   0.164247 0.167925 0.649917 -0.843021
H20   H     H_    0.121732 0.058630 0.563176 0.238259
H21   H     H_    0.234452 0.217896 0.574502 0.240133
H22   H     H_    0.201699 0.130167 0.768769 0.286183
H23   H     H_    0.039596 0.262779 0.837052 0.233644
H24   H     H_    0.977894 0.196320 0.625882 0.204173
C23   C     C_2   0.919824 0.607704 0.844133 0.317926
H25   H     H_    0.968818 0.721585 0.857390 0.063399
O11   O     O_2   0.854514 0.586078 0.962504 -0.571148
C24   C     C_2   0.146023 0.778311 0.619691 0.349233
H26   H     H_    0.095794 0.845945 0.719268 0.069467
O12   O     O_2   0.257417 0.812657 0.629653 -0.546710
C25   C     C_2   0.098729 0.314387 0.166946 0.305227
H27   H     H_    0.110879 0.402146 0.090265 0.067157
O13   O     O_2   0.133840 0.187967 0.109345 -0.600143
C26   C     C_3   0.820631 0.207348 0.302040 -0.416808
C27   C     C_3   0.840456 0.092004 0.129616 -0.837694
H28   H     H_    0.836847 0.148327 0.012688 0.285279
H29   H     H_    0.929966 0.046269 0.141737 0.284282
H30   H     H_    0.767871 0.991114 0.104894 0.223274
H31   H     H_    0.832024 0.151358 0.417442 0.219976
H32   H     H_    0.722488 0.225324 0.288307 0.234721

loop_
_geom_bond_atom_site_label_1
_geom_bond_atom_site_label_2
_geom_bond_distance
_ccdc_geom_bond_type
C7    C24   1.526135 S    
O4    Cu2   1.998562 S    
C22   H20   1.090336 S    
C5    C6    1.558421 S    
C13   C14   1.361090 D    
C8    C25   1.494216 S    
C27   H30   1.109055 S    
C17   H13   1.083457 S    
N1    N2    1.291091 D    
C19   C20   1.521047 S    
C19   H19   1.053949 S    
Cu2   O8    2.012182 S    
C7    C15   1.580095 S    
N2    H7    1.029218 S    
C20   H16   1.104750 S    
O2    C1    1.310069 A    
O8    C4    1.321898 A    
Cu1   Cu2   2.754175 S    
C5    C9    1.604828 S    
C21   H24   1.104554 S    
C8    C9    1.580459 S    
C24   H26   1.080541 S    
C11   H6    1.113120 S    
Cu1   O7    1.998562 S    
C17   O9    1.218335 D    
C14   C18   1.486527 S    
C12   H5    1.113549 S    
C23   H25   1.074766 S    
C27   H29   1.101987 S    
O3    Cu1   2.012183 S    
H3    C11   1.111425 S    
O3    C2    1.338229 A    
C20   H15   1.108079 S    
C16   H9    1.104673 S    
C8    C12   1.562476 S    
C10   C12   1.595858 S    
C6    H2    1.110833 S    
O1    C1    1.319835 A    
C21   H23   1.089221 S    
C22   H21   1.101450 S    
C8    H4    1.093455 S    
C26   H32   1.102181 S    
O4    C2    1.316395 A    
C12   C26   1.564655 S    
O7    C4    1.310990 A    
C15   H12   1.098899 S    
C6    C10   1.575377 S    
C26   C27   1.528177 S    
C5    H1    1.113276 S    
C6    C23   1.522520 S    
C25   H27   1.069205 S    
C2    C9    1.541257 S    
C5    C21   1.584087 S    
Cu1   O5    1.988268 S    
C3    C14   1.460598 S    
C27   H28   1.109016 S    
C16   H10   1.109232 S    
C10   C11   1.530267 S    
Cu2   O6    1.997132 S    
C15   C16   1.528331 S    
C7    C11   1.572953 S    
C22   H22   1.097530 S    
C4    C10   1.499382 S    
C26   H31   1.102416 S    
C23   O11   1.221463 D    
C19   H18   1.090505 S    
O5    C3    1.322929 A    
C21   C22   1.514180 S    
C1    C13   1.457087 S    
N1    C19   1.425784 S    
Cu1   N2    2.069532 S    
C18   O10   1.219084 D    
C13   C17   1.486854 S    
O1    Cu1   1.997132 S    
Cu2   N1    2.069532 S    
C15   H11   1.098755 S    
C20   H17   1.106306 S    
O2    Cu2   1.988269 S    
C18   H14   1.083210 S    
C16   H8    1.107517 S    
C7    C9    1.634979 S    
C25   O13   1.223107 D    
O6    C3    1.307259 A    
C24   O12   1.218913 D    
