data_mof_unit_18626.cif
_audit_creation_date              2012-12-11T15:59:40-0500
_audit_creation_method            fapswitch 2.2
_symmetry_space_group_name_H-M    P1
_symmetry_Int_Tables_number       1
_space_group_crystal_system       triclinic
_cell_length_a                    10.733035
_cell_length_b                    10.710941
_cell_length_c                    17.098006
_cell_angle_alpha                 99.09659
_cell_angle_beta                  99.688888
_cell_angle_gamma                 61.355338
_cell_volume                      1693.6023935

loop_
_atom_site_label
_atom_site_type_symbol
_atom_type_description
_atom_site_fract_x
_atom_site_fract_y
_atom_site_fract_z
_atom_type_partial_charge
C1    C     C_R   0.356910 0.768819 0.397729 0.530580
C2    C     C_R   0.863557 0.200371 0.200296 0.030295
C3    C     C_R   0.870886 0.213164 0.284145 0.022160
C4    C     C_R   0.779205 0.470244 0.283870 -0.142302
C5    C     C_R   0.785706 0.456462 0.203546 -0.160992
C6    C     C_R   0.887517 0.065991 0.159454 -0.064652
C7    C     C_R   0.936490 0.945938 0.200640 -0.143251
C8    C     C_R   0.957870 0.957220 0.283306 -0.134028
C9    C     C_R   0.925160 0.089522 0.325015 -0.092726
C10   C     C_R   0.821488 0.350044 0.324896 0.006433
C11   C     C_R   0.356011 0.814273 0.156880 -0.001268
C12   C     C_R   0.370120 0.347123 0.357415 0.554583
C13   C     C_R   0.450243 0.846866 0.215037 0.020054
C14   C     C_R   0.436089 0.853415 0.296431 0.012570
C15   C     C_R   0.283173 0.738917 0.257202 -0.138755
C16   C     C_R   0.283682 0.748672 0.178182 -0.150537
C17   C     C_R   0.556205 0.874955 0.194916 -0.094376
C18   C     C_R   0.633467 0.923998 0.253160 -0.127234
C19   C     C_R   0.610358 0.942802 0.332540 -0.101745
C20   C     C_R   0.510860 0.910127 0.354289 -0.097498
C21   C     C_R   0.349839 0.799906 0.317064 0.012991
C22   C     C_R   0.334068 0.339712 0.823755 0.033837
C23   C     C_R   0.774792 0.378776 0.403327 0.535779
C24   C     C_R   0.462319 0.247814 0.789109 0.015982
C25   C     C_R   0.450671 0.216243 0.706306 0.009227
C26   C     C_R   0.220991 0.430469 0.695843 -0.152373
C27   C     C_R   0.215449 0.434722 0.776916 -0.149299
C28   C     C_R   0.596574 0.172564 0.834314 0.081086
C29   C     C_R   0.702969 0.047574 0.799028 -0.117141
C30   C     C_R   0.678704 0.000199 0.720210 -0.145469
C31   C     C_R   0.554213 0.083963 0.673786 -0.082747
C32   C     C_R   0.338364 0.321126 0.659263 -0.005804
C33   C     C_1   0.816698 0.341966 0.709141 -0.032984
C34   C     C_R   0.358374 0.769160 0.627451 0.551294
C35   C     C_1   0.843772 0.314305 0.776964 -0.033717
C36   C     C_1   0.339116 0.810883 0.709396 -0.032766
C37   C     C_1   0.312637 0.839315 0.777288 -0.026978
C38   C     C_R   0.892506 0.307272 0.087521 0.554043
C39   C     C_R   0.319044 0.298956 0.120088 0.555035
C40   C     C_R   0.298387 0.886394 0.083719 0.548029
C41   C     C_R   0.885783 0.297671 0.859132 0.569301
C42   C     C_R   0.308643 0.295436 0.893870 0.567545
C43   C     C_R   0.278295 0.885871 0.856985 0.555604
C44   C     C_R   0.369308 0.345137 0.584073 0.541307
C45   C     C_R   0.773008 0.380623 0.629871 0.550609
C46   C     C_1   0.343369 0.336960 0.274047 -0.032075
C47   C     C_1   0.332249 0.325962 0.203287 -0.034757
C48   C     C_R   0.833891 0.322427 0.161437 -0.004075
Cr1   Cr    Cr6+3 0.608100 0.610860 0.522250 1.008687
Cr2   Cr    Cr6+3 0.288890 0.599990 0.488420 1.012622
Cr3   Cr    Cr6+3 0.603040 0.289190 0.489390 1.003422
Cr4   Cr    Cr6+3 0.053960 0.052250 0.967380 1.049227
Cr5   Cr    Cr6+3 0.059890 0.373160 0.992710 1.026384
Cr6   Cr    Cr6+3 0.373370 0.061690 0.991710 1.043192
H1    H     H_    0.737004 0.577473 0.313441 0.158459
H2    H     H_    0.710121 0.949049 0.236198 0.135922
H3    H     H_    0.670620 0.981696 0.377453 0.134022
H4    H     H_    0.493436 0.930142 0.416483 0.124517
H5    H     H_    0.133514 0.511797 0.661684 0.141211
H6    H     H_    0.117151 0.508668 0.802321 0.143551
H7    H     H_    0.804436 0.985802 0.832674 0.151217
H8    H     H_    0.758805 0.900841 0.694156 0.121272
H9    H     H_    0.539246 0.044175 0.612548 0.133922
H10   H     H_    0.863590 0.051415 0.096034 0.190374
H11   H     H_    0.758835 0.550861 0.174867 0.137543
H12   H     H_    0.955267 0.844097 0.168314 0.106996
H13   H     H_    0.995200 0.864069 0.315286 0.128388
H14   H     H_    0.943261 0.094024 0.389359 0.123926
H15   H     H_    0.227532 0.684818 0.271213 0.140988
H16   H     H_    0.585037 0.854305 0.134926 0.140010
H17   H     H_    0.218973 0.713887 0.133963 0.134697
O1    O     O_R   0.749810 0.499790 0.438040 -0.525044
O2    O     O_R   0.298970 0.468800 0.557390 -0.496804
O3    O     O_R   0.489400 0.255930 0.561910 -0.528699
O4    O     O_R   0.723890 0.306050 0.584610 -0.497122
O5    O     O_3   0.500010 0.500010 0.500020 -0.245420
O6    O     O_R   0.171100 0.914680 0.053100 -0.514992
O7    O     O_R   0.941680 0.184840 0.050710 -0.479647
O8    O     O_R   0.922080 0.403420 0.072610 -0.520630
O9    O     O_R   0.196880 0.369150 0.083850 -0.504753
O10   O     O_R   0.411730 0.181020 0.091530 -0.500723
O11   O     O_R   0.365010 0.944360 0.063320 -0.514815
O12   O     O_R   0.477660 0.726260 0.439290 -0.511118
O13   O     O_R   0.159380 0.906670 0.876210 -0.513954
O14   O     O_R   0.930820 0.177420 0.886730 -0.486734
O15   O     O_R   0.910360 0.395420 0.895720 -0.510220
O16   O     O_R   0.186010 0.361730 0.919870 -0.510045
O17   O     O_R   0.400000 0.173010 0.914630 -0.503705
O18   O     O_R   0.354140 0.936940 0.899340 -0.497743
O19   O     O_3   0.162410 0.162370 0.983930 -0.260960
O20   O     O_R   0.260150 0.743000 0.412270 -0.531786
O21   O     O_R   0.297740 0.466550 0.394720 -0.506586
O22   O     O_R   0.488080 0.253500 0.386430 -0.518567
O23   O     O_R   0.722670 0.303800 0.421940 -0.507148
O24   O     O_R   0.751130 0.502220 0.613520 -0.510713
O25   O     O_R   0.478890 0.728510 0.601960 -0.498106
O26   O     O_R   0.261470 0.745430 0.587750 -0.513116
C49   C     C_2   0.628656 0.224914 0.917035 0.589910
O27   O     O_2   0.715870 0.140353 0.963492 -0.543287
O28   O     O_R   0.558730 0.370656 0.941988 -0.714970
H18   H     H_    0.589137 0.392560 0.999730 0.328150

loop_
_geom_bond_atom_site_label_1
_geom_bond_atom_site_label_2
_ccdc_geom_bond_type
C25   C31   A    
C1    C21   S    
C33   C45   S    
Cr4   O19   S    
C19   C20   A    
Cr3   O3    S    
C7    C8    A    
C19   H3    S    
C26   C32   A    
C41   O15   A    
C26   C27   A    
C43   O18   A    
C14   C21   A    
C28   C29   A    
Cr5   O8    S    
C34   O25   A    
Cr6   O19   S    
C27   H6    S    
C30   C31   A    
C38   O8    A    
C15   C16   A    
C34   O26   A    
C14   C20   A    
C18   C19   A    
C6    H10   S    
Cr4   O13   S    
C8    C9    A    
Cr1   O1    S    
Cr2   O21   S    
Cr5   O15   S    
C26   H5    S    
C38   C48   S    
C18   H2    S    
C25   C32   A    
C17   H16   S    
C1    O20   A    
C13   C14   A    
C43   O13   A    
C2    C6    A    
C16   H17   S    
Cr4   O7    S    
C15   H15   S    
C5    C48   A    
C29   H7    S    
C40   O11   A    
Cr5   O9    S    
C24   C25   A    
C39   O10   A    
Cr6   O18   S    
C12   C46   S    
Cr2   O2    S    
C38   O7    A    
C2    C48   A    
Cr1   O24   S    
C37   C43   S    
C29   C30   A    
C3    C9    A    
Cr2   O5    S    
C11   C16   A    
C17   C18   A    
C32   C44   S    
Cr1   O5    S    
Cr5   O16   S    
Cr3   O5    S    
C44   O3    A    
Cr3   O22   S    
C5    H11   S    
C49   O28   S    
C22   C27   A    
C30   H8    S    
C4    H1    S    
C22   C24   A    
C12   O22   A    
C42   O17   A    
C4    C10   A    
Cr4   O6    S    
C45   O24   A    
Cr6   O11   S    
C39   C47   S    
C28   C49   S    
C44   O2    A    
C46   C47   T    
Cr4   O14   S    
Cr2   O26   S    
C23   O1    A    
C12   O21   A    
C24   C28   A    
Cr3   O4    S    
C4    C5    A    
C6    C7    A    
C10   C23   S    
C1    O12   A    
C31   H9    S    
C41   O14   A    
C23   O23   A    
C13   C17   A    
C45   O4    A    
C39   O9    A    
Cr1   O12   S    
C2    C3    A    
C9    H14   S    
C3    C10   A    
C7    H12   S    
Cr6   O17   S    
C11   C13   A    
C22   C42   S    
O28   H18   S    
C33   C35   T    
C34   C36   S    
Cr1   O25   S    
C11   C40   S    
C35   C41   S    
Cr3   O23   S    
Cr2   O20   S    
C15   C21   A    
C8    H13   S    
C36   C37   T    
C49   O27   D    
Cr5   O19   S    
C40   O6    A    
C42   O16   A    
C20   H4    S    
Cr6   O10   S    
