data_mof_unit_64139.cif
_audit_creation_date              2012-10-26T19:00:40-0400
_audit_creation_method            fapswitch 2.2
_symmetry_space_group_name_H-M    P1
_symmetry_Int_Tables_number       1
_space_group_crystal_system       triclinic
_cell_length_a                    17.726541
_cell_length_b                    16.448883
_cell_length_c                    10.946093
_cell_angle_alpha                 90.0
_cell_angle_beta                  90.158167
_cell_angle_gamma                 90.000027
_cell_volume                      3191.66932673

loop_
_atom_site_label
_atom_site_type_symbol
_atom_type_description
_atom_site_fract_x
_atom_site_fract_y
_atom_site_fract_z
_atom_type_partial_charge
C1    C     C_R   0.355230 0.500014 0.499822 0.549553
C2    C     C_R   0.451708 0.743035 0.425428 0.046933
C3    C     C_R   0.500000 0.872954 0.500000 0.024150
C4    C     C_1   0.500000 0.962499 0.500000 0.030877
C5    C     C_1   0.500000 0.037050 0.500000 0.067192
C6    C     C_R   0.547694 0.171273 0.578917 0.047707
C7    C     C_R   0.452306 0.171273 0.421083 0.047707
C8    C     C_R   0.546656 0.257084 0.577131 0.057820
C9    C     C_R   0.453344 0.257084 0.422869 0.057820
C10   C     C_R   0.500000 0.126809 0.500000 0.045457
C11   C     C_R   0.500915 0.500019 0.264885 0.561665
C12   C     C_R   0.644770 0.500014 0.500178 0.549553
C13   C     C_R   0.499085 0.500019 0.735115 0.561665
C14   C     C_2   0.501691 0.433167 0.933102 -0.149001
C15   C     C_2   0.498314 0.433167 0.066898 -0.149004
C16   C     C_2   0.495213 0.501315 0.866849 -0.115545
C17   C     C_2   0.504787 0.501315 0.133151 -0.115549
C18   C     C_R   0.846416 0.573589 0.500004 -0.108498
C19   C     C_R   0.153584 0.573589 0.499996 -0.108498
C20   C     C_R   0.767774 0.573741 0.500033 -0.127327
C21   C     C_R   0.232226 0.573741 0.499967 -0.127327
C22   C     C_R   0.727722 0.499968 0.500406 0.009950
C23   C     C_R   0.885591 0.499866 0.500395 0.038203
C24   C     C_R   0.272278 0.499968 0.499594 0.009950
C25   C     C_R   0.767698 0.426141 0.500970 -0.122526
C26   C     C_R   0.232302 0.426141 0.499030 -0.122526
C27   C     C_R   0.846341 0.426192 0.500946 -0.104810
C28   C     C_R   0.153659 0.426192 0.499054 -0.104810
C29   C     C_R   0.114409 0.499866 0.499605 0.038203
C30   C     C_1   0.966175 0.499826 0.500127 -0.021285
C31   C     C_1   0.033825 0.499826 0.499873 -0.021285
C32   C     C_R   0.549168 0.828831 0.575906 -0.131061
C33   C     C_R   0.450832 0.828831 0.424093 -0.131061
C34   C     C_R   0.548292 0.743035 0.574572 0.046933
Cu1   Cu    Cu3+1 0.500000 0.580420 0.500000 0.947616
Cu2   Cu    Cu3+1 0.500000 0.419580 0.500000 0.953468
H1    H     H_    0.508588 0.374676 0.888367 0.161867
H2    H     H_    0.261563 0.631498 0.500304 0.130065
H3    H     H_    0.738302 0.368417 0.501395 0.139550
H4    H     H_    0.261697 0.368417 0.498605 0.139550
H5    H     H_    0.876502 0.368889 0.501301 0.123313
H6    H     H_    0.123498 0.368889 0.498699 0.123313
H7    H     H_    0.588027 0.860415 0.635900 0.126350
H8    H     H_    0.411973 0.860415 0.364100 0.126350
H9    H     H_    0.586491 0.709920 0.633584 0.123708
H10   H     H_    0.413509 0.709920 0.366416 0.123708
H11   H     H_    0.491424 0.374677 0.111633 0.161870
H12   H     H_    0.583473 0.290562 0.637957 0.147100
H13   H     H_    0.416527 0.290562 0.362043 0.147101
H14   H     H_    0.485278 0.560203 0.907721 0.104531
H15   H     H_    0.514715 0.560203 0.092279 0.104533
H16   H     H_    0.876637 0.630855 0.499620 0.117844
H17   H     H_    0.123363 0.630855 0.500380 0.117844
H18   H     H_    0.738437 0.631498 0.499696 0.130065
I1    I     I_    0.622213 0.112622 0.702395 -0.392922
I2    I     I_    0.377787 0.112622 0.297605 -0.392921
N1    N     N_R   0.500000 0.701220 0.500000 -0.220009
N2    N     N_R   0.500000 0.298780 0.500000 -0.253807
O1    O     O_R   0.391260 0.567930 0.500000 -0.507038
O2    O     O_R   0.608740 0.567930 0.500000 -0.507037
O3    O     O_R   0.391280 0.432120 0.500000 -0.503782
O4    O     O_R   0.608720 0.432120 0.500000 -0.503783
O5    O     O_R   0.500000 0.567890 0.321940 -0.501175
O6    O     O_R   0.500000 0.567890 0.678060 -0.501175
O7    O     O_R   0.500030 0.432070 0.321950 -0.498661
O8    O     O_R   0.499970 0.432070 0.678050 -0.498661

loop_
_geom_bond_atom_site_label_1
_geom_bond_atom_site_label_2
_ccdc_geom_bond_type
C6    C10   A    
C7    C10   A    
Cu1   O5    S    
C8    H12   S    
Cu1   O6    S    
C23   C27   A    
C25   C27   A    
C20   C22   A    
C12   O4    A    
C27   H5    S    
Cu2   O8    S    
Cu2   N2    S    
Cu1   Cu2   S    
C15   H11   S    
C6    I1    S    
Cu1   N1    S    
C26   H4    S    
C7    C9    A    
C19   H17   S    
C3    C4    S    
C2    N1    A    
C18   H16   S    
C5    C10   S    
C29   C31   S    
C34   H9    S    
Cu1   O2    S    
C2    H10   S    
C14   H1    S    
C33   H8    S    
C17   H15   S    
C30   C31   T    
C13   O6    A    
C7    I2    S    
C34   N1    A    
Cu2   O4    S    
C2    C33   A    
Cu1   O1    S    
C28   C29   A    
C19   C21   A    
C32   H7    S    
C24   C26   A    
C18   C20   A    
C13   O8    A    
C1    O1    A    
Cu2   O3    S    
C3    C32   A    
C14   C16   D    
C13   C16   S    
C3    C33   A    
C18   C23   A    
C19   C29   A    
C23   C30   S    
C12   C22   S    
C9    H13   S    
C1    C24   S    
C20   H18   S    
C9    N2    A    
C21   C24   A    
C28   H6    S    
C12   O2    A    
C15   C17   D    
C14   C15   S    
C11   C17   S    
C6    C8    A    
C8    N2    A    
C32   C34   A    
Cu2   O7    S    
C11   O5    A    
C26   C28   A    
C25   H3    S    
C21   H2    S    
C11   O7    A    
C16   H14   S    
C4    C5    T    
C22   C25   A    
C1    O3    A    
