data_mof_unit_61002.cif
_audit_creation_date              2013-03-05T16:01:05-0500
_audit_creation_method            fapswitch 2.2
_symmetry_space_group_name_H-M    P1
_symmetry_Int_Tables_number       1
_space_group_crystal_system       triclinic
_cell_length_a                    18.905143
_cell_length_b                    18.777659
_cell_length_c                    18.525295
_cell_angle_alpha                 109.143584
_cell_angle_beta                  109.02336
_cell_angle_gamma                 109.680829
_cell_volume                      5097.40133891

loop_
_atom_site_label
_atom_site_type_symbol
_atom_site_description
_atom_site_fract_x
_atom_site_fract_y
_atom_site_fract_z
_atom_type_partial_charge
O1    O     O_R   0.591120 0.552750 0.643890 -0.534297
O2    O     O_R   0.408880 0.447250 0.356110 -0.536366
O3    O     O_R   0.591210 0.447270 0.538420 -0.582543
O4    O     O_R   0.408790 0.552730 0.461580 -0.588539
C1    C     C_R   0.625340 0.506140 0.619811 0.774188
C2    C     C_R   0.376748 0.496265 0.380125 0.807098
O5    O     O_R   0.408810 0.461590 0.552740 -0.532337
O6    O     O_R   0.591190 0.538410 0.447260 -0.553559
O7    O     O_R   0.408900 0.356100 0.447280 -0.533868
O8    O     O_R   0.591100 0.643900 0.552720 -0.573709
C3    C     C_R   0.383631 0.380369 0.503714 0.778984
C4    C     C_R   0.618803 0.619583 0.498489 0.783683
Cu1   Cu    Cu3+1 0.499950 0.562450 0.562440 1.115201
Cu2   Cu    Cu3+1 0.500050 0.437550 0.437560 1.132722
H1    H     H_    0.117566 0.402925 0.821300 0.197354
H2    H     H_    0.927822 0.593637 0.220953 0.208374
C5    C     C_3   0.050812 0.350825 0.768732 -0.321825
C6    C     C_3   0.984823 0.659642 0.255226 -0.322691
C7    C     C_3   0.906853 0.241572 0.737013 -0.367024
C8    C     C_3   0.083625 0.774557 0.238594 -0.323981
C9    C     C_3   0.001344 0.189108 0.691152 -0.021600
C10   C     C_3   0.995172 0.808221 0.307995 -0.033001
H3    H     H_    0.017730 0.274313 0.633679 0.197030
H4    H     H_    0.025222 0.748628 0.389174 0.206725
C11   C     C_3   0.051675 0.278839 0.698149 -0.078636
C12   C     C_3   0.976266 0.727269 0.321845 -0.076362
C13   C     C_3   0.324107 0.335012 0.597199 0.186148
C14   C     C_3   0.698561 0.654108 0.415330 0.220584
H5    H     H_    0.378236 0.327661 0.634380 0.126193
H6    H     H_    0.640268 0.637967 0.358122 0.155356
C15   C     C_3   0.240933 0.268898 0.587502 -0.559124
C16   C     C_3   0.777129 0.726700 0.425480 -0.562415
H7    H     H_    0.259641 0.253032 0.641193 0.189201
H8    H     H_    0.757764 0.730631 0.363948 0.176431
H9    H     H_    0.200212 0.298441 0.595315 0.223235
H10   H     H_    0.829491 0.710430 0.435167 0.229005
H11   H     H_    0.219526 0.353785 0.467603 0.223992
H12   H     H_    0.793331 0.676835 0.581950 0.217448
H13   H     H_    0.107480 0.237494 0.444327 0.193940
H14   H     H_    0.898729 0.787057 0.589176 0.211479
C17   C     C_3   0.226071 0.295545 0.441171 -0.428681
C18   C     C_3   0.774983 0.727087 0.582209 -0.435321
C19   C     C_3   0.313824 0.221837 0.464944 0.084731
C20   C     C_3   0.669969 0.766040 0.507244 0.095063
C21   C     C_3   0.315034 0.311189 0.503646 -0.160948
C22   C     C_3   0.688132 0.688521 0.498942 -0.149911
H15   H     H_    0.285824 0.195750 0.392848 0.203913
H16   H     H_    0.681133 0.799320 0.575105 0.194626
C23   C     C_3   0.187733 0.185880 0.495245 -0.087859
C24   C     C_3   0.812360 0.815199 0.505803 -0.087513
C25   C     C_3   0.150913 0.215594 0.428006 -0.065560
C26   C     C_3   0.847639 0.804115 0.588974 -0.076484
C27   C     C_3   0.253764 0.157836 0.482143 0.144840
C28   C     C_3   0.734015 0.830884 0.493855 0.135788
H17   H     H_    0.292789 0.164207 0.546112 0.175792
H18   H     H_    0.700782 0.815071 0.424206 0.182042
H19   H     H_    0.222289 0.286886 0.377358 0.197470
H20   H     H_    0.767130 0.748035 0.641372 0.189229
C29   C     C_3   0.744561 0.592631 0.781770 0.091321
C30   C     C_3   0.234530 0.400502 0.234516 0.089813
H21   H     H_    0.774514 0.647226 0.770558 0.154079
H22   H     H_    0.192739 0.374026 0.260449 0.126364
C31   C     C_3   0.818480 0.590686 0.849864 -0.003358
C32   C     C_3   0.177898 0.406033 0.156118 -0.011791
H23   H     H_    0.809764 0.597492 0.907836 0.160212
H24   H     H_    0.202505 0.399076 0.108725 0.149552
H25   H     H_    0.704711 0.453025 0.831662 0.202312
H26   H     H_    0.281763 0.544948 0.149061 0.177089
C33   C     C_3   0.653027 0.423613 0.696405 -0.026200
C34   C     C_3   0.349520 0.551177 0.273728 -0.074647
C35   C     C_3   0.767829 0.504996 0.664693 -0.235087
C36   C     C_3   0.259057 0.537338 0.351839 -0.182394
C37   C     C_3   0.694695 0.506666 0.689215 -0.114498
C38   C     C_3   0.307548 0.495767 0.311047 -0.132440
H27   H     H_    0.807250 0.571683 0.677625 0.174465
H28   H     H_    0.232671 0.498053 0.380178 0.154893
C39   C     C_3   0.813215 0.499745 0.808800 -0.201920
C40   C     C_3   0.187265 0.499813 0.190327 -0.180751
C41   C     C_3   0.718493 0.428771 0.777216 -0.060899
C42   C     C_3   0.281413 0.563717 0.212575 -0.081535
C43   C     C_3   0.829719 0.488646 0.729069 0.223755
C44   C     C_3   0.178571 0.522926 0.275592 0.216706
H29   H     H_    0.896269 0.540466 0.755102 0.174771
H30   H     H_    0.122991 0.464573 0.260977 0.151211
H31   H     H_    0.636983 0.367786 0.636094 0.249254
H32   H     H_    0.402016 0.615035 0.330473 0.248184
H33   H     H_    0.869806 0.210797 0.764569 0.226971
H34   H     H_    0.091286 0.799800 0.193420 0.247941
H35   H     H_    0.867376 0.106641 0.656168 0.272477
H36   H     H_    0.103074 0.901851 0.310930 0.279897
H37   H     H_    0.877036 0.169786 0.602758 0.214581
H38   H     H_    0.133844 0.855504 0.377626 0.222152
H39   H     H_    0.872774 0.270929 0.707043 0.231253
H40   H     H_    0.139916 0.765931 0.265598 0.226739
H41   H     H_    0.021112 0.382423 0.738031 0.225127
H42   H     H_    0.041065 0.655446 0.291688 0.246435
C45   C     C_3   0.000121 0.312320 0.810398 0.004527
C46   C     C_3   0.997925 0.687292 0.188102 0.007712
O9    O     O_R   0.052750 0.091090 0.643890 -0.572284
O10   O     O_R   0.947250 0.908910 0.356110 -0.555434
O11   O     O_R   0.947230 0.091150 0.538450 -0.568374
O12   O     O_R   0.052770 0.908850 0.461550 -0.573631
C47   C     C_R   0.998966 0.118482 0.620587 0.776889
C48   C     C_R   0.998742 0.879379 0.379280 0.768766
O13   O     O_R   0.143910 0.091120 0.552710 -0.578108
O14   O     O_R   0.856090 0.908880 0.447290 -0.556458
O15   O     O_R   0.038380 0.091180 0.447270 -0.587298
O16   O     O_R   0.961620 0.908820 0.552730 -0.590625
C49   C     C_R   0.119268 0.118000 0.497336 0.806046
C50   C     C_R   0.880754 0.882859 0.503408 0.801757
Cu3   Cu    Cu3+1 0.062480 0.999960 0.562430 1.045048
Cu4   Cu    Cu3+1 0.937520 0.000040 0.437570 1.076265
O17   O     O_R   0.052740 0.643910 0.091070 -0.557422
O18   O     O_R   0.947260 0.356090 0.908930 -0.576085
O19   O     O_R   0.947240 0.538460 0.091150 -0.594632
O20   O     O_R   0.052760 0.461540 0.908850 -0.593773
C51   C     C_R   0.999988 0.619558 0.120202 0.845272
C52   C     C_R   0.998977 0.380514 0.878746 0.789574
O21   O     O_R   0.961590 0.552710 0.908800 -0.538122
O22   O     O_R   0.038410 0.447290 0.091200 -0.533404
O23   O     O_R   0.856080 0.447270 0.908890 -0.603162
O24   O     O_R   0.143920 0.552730 0.091110 -0.601208
C53   C     C_R   0.880630 0.498687 0.878340 0.807910
C54   C     C_R   0.119407 0.499455 0.119806 0.875732
Cu5   Cu    Cu3+1 0.062470 0.562430 0.999950 1.058946
Cu6   Cu    Cu3+1 0.937530 0.437570 0.000050 1.053035
C55   C     C_3   0.907678 0.171104 0.666040 -0.339259
C56   C     C_3   0.084601 0.841427 0.314046 -0.352120
C57   C     C_3   0.045812 0.197568 0.784063 0.222422
C58   C     C_3   0.924764 0.777651 0.212902 0.225713
H43   H     H_    0.114604 0.217647 0.804059 0.139086
H44   H     H_    0.860602 0.752844 0.209225 0.128890
C59   C     C_3   0.043864 0.269682 0.852966 -0.385138
C60   C     C_3   0.922549 0.701284 0.143979 -0.430421
H45   H     H_    0.007762 0.242336 0.882720 0.265406
H46   H     H_    0.925759 0.713557 0.090251 0.239970
H47   H     H_    0.110784 0.319553 0.906946 0.143761
H48   H     H_    0.860095 0.640863 0.113002 0.157376
N1    N     N_R   0.399511 0.228679 0.497347 0.115465
O25   O     O_R   0.433168 0.221864 0.446039 -0.275922
O26   O     O_R   0.431378 0.218624 0.564615 -0.386148
N2    N     N_R   0.580841 0.738015 0.447172 0.105008
O27   O     O_R   0.534348 0.758396 0.479277 -0.346698
O28   O     O_R   0.552313 0.705919 0.363246 -0.439159
N3    N     N_R   0.216904 0.067617 0.416467 0.108512
O29   O     O_R   0.239667 0.018418 0.442377 -0.346717
O30   O     O_R   0.182952 0.043498 0.333354 -0.357001
N4    N     N_R   0.758336 0.921737 0.547110 0.115531
O31   O     O_R   0.756693 0.969129 0.509383 -0.337386
O32   O     O_R   0.760989 0.949178 0.622680 -0.337560
C61   C     C_3   0.095483 0.144499 0.330455 -0.617813
H49   H     H_    0.051263 0.162447 0.294287 0.229725
H50   H     H_    0.135486 0.138483 0.298953 0.272581
H51   H     H_    0.055583 0.079967 0.320920 0.277059
C62   C     C_3   0.890768 0.886621 0.677275 -0.597467
H52   H     H_    0.934795 0.881678 0.729892 0.245613
H53   H     H_    0.928985 0.944525 0.675435 0.277174
H54   H     H_    0.842958 0.895693 0.695473 0.275790
N5    N     N_R   0.689691 0.612447 0.817020 0.155844
O33   O     O_R   0.675325 0.586951 0.870784 -0.365744
O34   O     O_R   0.675188 0.674731 0.814000 -0.269617
N6    N     N_R   0.263730 0.337697 0.207237 0.178002
O35   O     O_R   0.263018 0.310928 0.132553 -0.309042
O36   O     O_R   0.266889 0.290817 0.245436 -0.322574
N7    N     N_R   0.903470 0.665101 0.883799 0.144688
O37   O     O_R   0.953078 0.716347 0.967948 -0.306050
O38   O     O_R   0.926647 0.686614 0.831802 -0.370233
N8    N     N_R   0.089073 0.332844 0.108610 0.155022
O39   O     O_R   0.062209 0.269289 0.032628 -0.301548
O40   O     O_R   0.042525 0.322136 0.146749 -0.341572
C63   C     C_3   0.145085 0.304903 0.717872 -0.873546
H55   H     H_    0.188056 0.325509 0.786891 0.250160
H56   H     H_    0.147518 0.250072 0.674623 0.230897
H57   H     H_    0.171064 0.360615 0.706981 0.270716
C64   C     C_3   0.887536 0.685340 0.315038 -0.851565
H58   H     H_    0.834828 0.643559 0.245823 0.251503
H59   H     H_    0.885984 0.644662 0.347188 0.275661
H60   H     H_    0.875154 0.736817 0.347468 0.212284
C65   C     C_3   0.566423 0.402260 0.695864 -0.728310
H61   H     H_    0.568422 0.456981 0.743954 0.293357
H62   H     H_    0.516187 0.382932 0.630848 0.229446
H63   H     H_    0.545955 0.348126 0.710104 0.261054
C66   C     C_3   0.396267 0.518393 0.228047 -0.729589
H64   H     H_    0.447886 0.513005 0.271896 0.267404
H65   H     H_    0.351364 0.456054 0.166573 0.259383
H66   H     H_    0.428013 0.565881 0.209973 0.251097
C67   C     C_3   0.741064 0.449471 0.567610 -0.578081
H67   H     H_    0.687414 0.382554 0.537042 0.277795
H68   H     H_    0.721725 0.480551 0.528978 0.241154
H69   H     H_    0.796802 0.446105 0.562214 0.257898
C68   C     C_3   0.316925 0.632262 0.431280 -0.592321
H70   H     H_    0.378777 0.668083 0.435145 0.245616
H71   H     H_    0.287372 0.674001 0.433456 0.263772
H72   H     H_    0.332091 0.630649 0.493744 0.238243
N9    N     N_R   0.827885 0.406193 0.686121 0.107037
O41   O     O_R   0.898543 0.408679 0.689743 -0.415482
O42   O     O_R   0.755832 0.333040 0.632360 -0.372377
N10   N     N_R   0.155797 0.591027 0.301223 0.106689
O43   O     O_R   0.126155 0.597272 0.356017 -0.380101
O44   O     O_R   0.161898 0.643513 0.269291 -0.446932
C69   C     C_3   0.702287 0.336334 0.760710 -0.643599
H73   H     H_    0.694832 0.326589 0.814387 0.218006
H74   H     H_    0.642011 0.283715 0.698990 0.256370
H75   H     H_    0.755908 0.325636 0.758810 0.264675
C70   C     C_3   0.310813 0.661928 0.251539 -0.637731
H76   H     H_    0.375494 0.697189 0.259115 0.237135
H77   H     H_    0.268487 0.676971 0.209396 0.265860
H78   H     H_    0.316887 0.690270 0.317171 0.264254
N11   N     N_R   0.008143 0.115828 0.784998 0.120004
O45   O     O_R   0.057158 0.084057 0.809307 -0.320445
O46   O     O_R   0.931912 0.083401 0.777681 -0.328153
N12   N     N_R   0.937216 0.848361 0.191535 0.143977
O47   O     O_R   0.879120 0.872135 0.177468 -0.297895
O48   O     O_R   0.999018 0.879855 0.175051 -0.297641
N13   N     N_R   0.343489 0.424150 0.648950 0.164453
O49   O     O_R   0.288170 0.449613 0.624871 -0.351522
O50   O     O_R   0.415278 0.477534 0.722848 -0.307185
N14   N     N_R   0.705918 0.575119 0.395072 0.152930
O51   O     O_R   0.772455 0.575947 0.446873 -0.383214
O52   O     O_R   0.649169 0.505064 0.319940 -0.319790

loop_
_geom_bond_atom_site_label_1
_geom_bond_atom_site_label_2
_geom_bond_distance
_ccdc_geom_bond_type
H26   C42   1.115063 S    
H13   C25   1.114679 S    
C63   H55   1.109573 S    
C31   H23   1.111904 S    
C59   H47   1.113809 S    
N7    O37   1.300322 A    
N9    O42   1.300879 A    
O19   C51   1.301082 A    
C13   H5    1.112950 S    
C69   H74   1.110581 S    
C69   H73   1.111498 S    
O9    C47   1.302511 A    
Cu3   Cu4   2.715431 S    
C6    C12   1.550003 S    
C5    C45   1.555139 S    
C45   C59   1.543271 S    
C36   H28   1.116009 S    
C18   H20   1.113846 S    
N3    O29   1.301151 A    
C7    C45   1.548260 S    
C64   H59   1.110735 S    
O14   Cu4   1.985044 S    
C70   H76   1.111388 S    
O11   Cu4   1.980153 S    
O5    C3    1.303136 A    
C63   H56   1.104087 S    
C14   C22   1.576101 S    
C24   C28   1.565997 S    
O19   Cu6   1.984376 S    
H37   C55   1.113161 S    
O1    C1    1.302672 A    
C16   H10   1.108741 S    
C28   N4    1.472161 S    
N4    O32   1.300617 A    
C44   N10   1.466968 S    
C7    H33   1.113107 S    
N13   O50   1.301268 A    
H35   C55   1.105409 S    
O18   Cu6   1.980467 S    
O22   Cu6   1.996459 S    
N8    O40   1.301287 A    
C24   C26   1.579885 S    
O17   Cu5   1.980467 S    
O14   C50   1.306726 A    
C24   C50   1.501953 S    
C10   C48   1.502560 S    
C30   H22   1.114310 S    
C18   C22   1.554061 S    
C61   H51   1.107091 S    
C30   C38   1.585261 S    
O4    Cu1   1.989926 S    
C67   H69   1.110731 S    
C9    C11   1.567693 S    
C43   H29   1.111035 S    
C29   N5    1.477557 S    
C19   C27   1.550124 S    
O10   C48   1.298727 A    
N5    O33   1.302503 A    
O20   C52   1.300602 A    
C41   C69   1.559769 S    
C34   C38   1.569551 S    
C30   N6    1.476635 S    
C61   H49   1.110909 S    
N5    O34   1.301923 A    
C33   C37   1.564480 S    
N10   O43   1.301977 A    
C5    H41   1.108302 S    
C9    C55   1.556568 S    
C40   C54   1.499452 S    
C29   C37   1.593820 S    
C36   C68   1.567258 S    
C7    H39   1.110841 S    
C65   H63   1.109104 S    
C13   C21   1.574555 S    
C27   H17   1.113809 S    
C42   C70   1.551096 S    
O13   Cu3   1.985044 S    
C25   C61   1.544998 S    
O11   C47   1.309514 A    
Cu1   Cu2   2.701813 S    
C10   C58   1.580539 S    
C62   H54   1.106494 S    
C13   N13   1.469829 S    
O15   C49   1.304842 A    
O12   Cu3   1.980152 S    
O2    C2    1.303161 A    
C15   C23   1.561602 S    
O2    Cu2   1.994232 S    
H38   C56   1.113136 S    
C27   N3    1.461555 S    
N3    O30   1.300138 A    
C20   C22   1.576293 S    
C2    C38   1.497236 S    
C64   H60   1.101506 S    
N6    O36   1.302182 A    
C39   C41   1.588486 S    
C63   H57   1.110538 S    
C28   H18   1.114581 S    
C29   H21   1.113569 S    
O23   C53   1.302183 A    
C13   C15   1.549434 S    
C68   H70   1.099521 S    
C20   N2    1.466543 S    
C14   C16   1.544575 S    
H25   C41   1.114711 S    
N4    O31   1.301448 A    
C36   C38   1.602343 S    
C66   H66   1.110779 S    
C35   C67   1.548929 S    
C35   C37   1.596347 S    
O7    Cu2   1.987149 S    
C60   H46   1.108093 S    
C23   C25   1.581014 S    
C16   H8    1.113644 S    
H14   C26   1.114585 S    
C8    H40   1.109569 S    
C34   C42   1.557225 S    
N9    O41   1.299456 A    
O22   C54   1.305884 A    
C26   C62   1.535697 S    
C32   H24   1.111874 S    
C58   H44   1.112542 S    
C66   H64   1.107250 S    
C68   H71   1.103158 S    
C39   C53   1.499267 S    
C43   N9    1.472841 S    
C66   H65   1.101783 S    
O7    C3    1.299467 A    
C40   C44   1.574190 S    
C10   C56   1.542817 S    
C64   H58   1.110515 S    
C39   C43   1.569945 S    
O6    C4    1.299551 A    
O9    Cu3   1.984605 S    
C15   H7    1.113179 S    
N11   O45   1.301495 A    
C40   C42   1.592653 S    
O15   Cu4   1.993461 S    
C57   H43   1.111202 S    
O12   C48   1.312858 A    
C62   H53   1.103004 S    
C19   C21   1.582437 S    
C9    C57   1.575419 S    
O18   C52   1.304424 A    
O3    Cu2   1.989924 S    
O8    C4    1.302034 A    
O17   C51   1.304035 A    
O21   Cu5   1.996461 S    
C4    C22   1.495510 S    
N8    O39   1.299022 A    
N12   O48   1.301425 A    
O10   Cu4   1.984607 S    
C44   H30   1.105655 S    
O20   Cu5   1.984375 S    
Cu5   Cu6   2.711404 S    
C69   H75   1.106792 S    
C57   C59   1.547570 S    
C3    C21   1.494140 S    
O4    C2    1.300114 A    
O1    Cu1   1.994227 S    
C57   N11   1.467166 S    
C34   H32   1.104267 S    
N2    O28   1.300465 A    
C33   H31   1.111748 S    
C14   N14   1.472435 S    
C46   C51   1.489134 S    
C23   C49   1.501772 S    
N6    O35   1.301613 A    
C31   C39   1.577603 S    
C70   H78   1.103688 S    
H1    C5    1.113748 S    
O13   C49   1.307871 A    
O6    Cu2   1.991215 S    
C45   C52   1.488780 S    
C32   C40   1.587085 S    
H2    C6    1.112996 S    
C6    H42   1.102787 S    
H4    C12   1.114661 S    
O3    C1    1.305349 A    
O8    Cu1   1.987148 S    
C60   H48   1.113360 S    
N10   O44   1.298032 A    
N1    O25   1.301553 A    
C8    C56   1.532071 S    
O21   C53   1.306075 A    
C19   N1    1.475238 S    
C1    C37   1.502100 S    
C46   C60   1.549682 S    
C29   C31   1.568724 S    
O16   Cu3   1.993461 S    
H36   C56   1.096278 S    
N14   O52   1.301454 A    
C30   C32   1.557732 S    
C5    C11   1.551354 S    
O24   Cu5   1.987864 S    
C14   H6    1.110171 S    
C68   H72   1.111173 S    
C17   H19   1.113571 S    
O23   Cu6   1.987862 S    
C32   N8    1.473762 S    
C33   C65   1.544659 S    
C35   H27   1.113157 S    
N1    O26   1.301158 A    
C11   C63   1.539963 S    
N14   O51   1.301356 A    
C19   H15   1.113245 S    
C12   C64   1.535255 S    
C23   C27   1.565580 S    
C8    H34   1.113073 S    
C7    C55   1.538201 S    
N11   O46   1.301351 A    
O16   C50   1.305733 A    
C16   C24   1.551099 S    
C15   H9    1.108585 S    
C61   H50   1.107822 S    
N13   O49   1.301507 A    
H11   C17   1.109265 S    
C58   C60   1.553111 S    
C67   H68   1.110649 S    
C33   C41   1.548735 S    
C31   N7    1.477343 S    
C65   H61   1.096533 S    
C9    C47   1.501385 S    
H12   C18   1.108762 S    
C20   C28   1.552722 S    
C34   C66   1.545471 S    
O5    Cu1   1.991215 S    
H3    C11   1.114675 S    
C8    C46   1.550342 S    
N12   O47   1.301339 A    
N7    O38   1.301598 A    
C10   C12   1.566487 S    
C62   H52   1.110861 S    
C59   H45   1.108213 S    
C17   C21   1.558767 S    
N2    O27   1.300321 A    
C67   H67   1.108492 S    
C6    C46   1.553961 S    
C65   H62   1.104435 S    
C58   N12   1.473086 S    
C70   H77   1.104179 S    
O24   C54   1.302024 A    
C17   C25   1.558655 S    
C36   C44   1.566678 S    
C20   H16   1.112846 S    
C18   C26   1.557305 S    
C35   C43   1.567796 S    
