data_mof_unit_41452.cif
_audit_creation_date              2013-03-05T15:56:22-0500
_audit_creation_method            fapswitch 2.2
_symmetry_space_group_name_H-M    P1
_symmetry_Int_Tables_number       1
_space_group_crystal_system       triclinic
_cell_length_a                    12.409823
_cell_length_b                    13.221905
_cell_length_c                    23.494
_cell_angle_alpha                 76.027848
_cell_angle_beta                  100.53107
_cell_angle_gamma                 116.75393
_cell_volume                      3328.17925464

loop_
_atom_site_label
_atom_site_type_symbol
_atom_site_description
_atom_site_fract_x
_atom_site_fract_y
_atom_site_fract_z
_atom_type_partial_charge
O1    O     O_R   0.972510 0.318130 0.516820 -0.526515
O2    O     O_R   0.806530 0.359650 0.494230 -0.615418
C1    C     C_R   0.855558 0.287384 0.501615 0.820556
O3    O     O_R   0.082990 0.479200 0.593420 -0.523068
O4    O     O_R   0.917010 0.520720 0.570830 -0.603821
C2    C     C_R   0.999241 0.499642 0.608754 0.844731
Cu1   Cu    Cu3+1 0.098270 0.475410 0.513370 1.005394
Cu2   Cu    Cu3+1 0.901730 0.524590 0.486630 0.927963
O5    O     O_R   0.193470 0.640350 0.505770 -0.588957
O6    O     O_R   0.027490 0.681870 0.483180 -0.583591
O7    O     O_R   0.082990 0.479280 0.429170 -0.594353
O8    O     O_R   0.917010 0.520800 0.406580 -0.595401
C3    C     C_R   0.144851 0.713562 0.492669 0.789899
C4    C     C_R   0.000285 0.500243 0.391264 0.789762
C5    C     C_R   0.004962 0.586753 0.108695 0.594318
N1    N     N_R   0.988064 0.488033 0.148752 -0.452412
C6    C     C_R   0.969680 0.388642 0.132201 0.625523
C7    C     C_R   0.972158 0.386545 0.072576 -0.134903
C8    C     C_R   0.988216 0.488201 0.030670 -0.049254
C9    C     C_R   0.004994 0.588902 0.048876 0.001672
C10   C     C_R   0.957548 0.287025 0.053013 0.339295
C11   C     C_R   0.954141 0.289324 0.992852 -0.194840
C12   C     C_R   0.969837 0.389750 0.951398 -0.081663
C13   C     C_R   0.987865 0.489769 0.970286 -0.009865
C14   C     C_R   0.005805 0.591658 0.928776 -0.005369
C15   C     C_R   0.022784 0.691063 0.947683 -0.143405
C16   C     C_R   0.022085 0.689618 0.007071 -0.134625
C17   C     C_R   0.970082 0.393282 0.891229 0.561299
N2    N     N_R   0.989186 0.493319 0.851747 -0.462671
C18   C     C_R   0.006857 0.591548 0.869201 0.534073
O9    O     O_2   0.021609 0.682486 0.126913 -0.506404
O10   O     O_2   0.948251 0.292783 0.173539 -0.468074
H1    H     H_    0.942778 0.212499 0.978886 0.220359
O11   O     O_2   0.951975 0.297864 0.872234 -0.510595
O12   O     O_2   0.025612 0.688659 0.828980 -0.519555
H2    H     H_    0.036597 0.770305 0.916674 0.200366
H3    H     H_    0.035325 0.767882 0.020112 0.202148
C19   C     C_R   0.100610 0.516738 0.769236 0.147790
C20   C     C_R   0.102126 0.517881 0.709655 -0.118142
H4    H     H_    0.185759 0.535088 0.693050 0.201180
C21   C     C_R   0.997087 0.498962 0.671202 -0.117709
C22   C     C_R   0.889699 0.479293 0.692602 -0.197448
H5    H     H_    0.808215 0.464450 0.663098 0.160700
C23   C     C_R   0.885945 0.476673 0.752114 0.170733
C24   C     C_R   0.991892 0.495549 0.790608 0.342338
C25   C     C_R   0.882558 0.449382 0.236160 0.155610
C26   C     C_R   0.886576 0.453409 0.295532 -0.192760
H6    H     H_    0.802928 0.421411 0.315961 0.157182
C27   C     C_R   0.997700 0.497559 0.328931 -0.115458
C28   C     C_R   0.105517 0.540772 0.302346 -0.291258
H7    H     H_    0.190829 0.580270 0.327259 0.179457
C29   C     C_R   0.104474 0.536101 0.243332 0.359612
C30   C     C_R   0.991781 0.489427 0.210037 0.234195
C31   C     C_R   0.268087 0.037510 0.463575 -0.177232
H8    H     H_    0.090082 0.900612 0.467487 0.150882
H9    H     H_    0.441117 0.243965 0.428268 0.148956
H10   H     H_    0.234281 0.102886 0.447882 0.141984
C32   C     C_R   0.227777 0.836133 0.488338 -0.063569
C33   C     C_R   0.814596 0.077766 0.513872 0.128634
C34   C     C_R   0.735473 0.966066 0.537077 -0.184279
C35   C     C_R   0.613187 0.936883 0.539659 0.280639
C36   C     C_R   0.563426 0.014696 0.507445 -0.039510
C37   C     C_R   0.644563 0.130125 0.486535 0.008992
C38   C     C_R   0.436548 0.982320 0.494379 0.105647
C39   C     C_R   0.392883 0.067624 0.471185 0.158519
C40   C     C_R   0.473557 0.179706 0.450722 -0.218768
C41   C     C_R   0.595896 0.207343 0.453624 -0.148692
C42   C     C_R   0.352492 0.867170 0.497749 -0.163408
C43   C     C_R   0.185788 0.922099 0.473734 -0.176211
C44   C     C_R   0.772028 0.164671 0.498182 -0.125653
H11   H     H_    0.383815 0.800925 0.504317 0.187172
H12   H     H_    0.770967 0.902684 0.556025 0.192101
H13   H     H_    0.650413 0.289176 0.428041 0.173876
C45   C     C_R   0.354580 0.339967 0.600465 -0.322440
H14   H     H_    0.552613 0.305170 0.622733 0.161458
H15   H     H_    0.360801 0.285462 0.642445 0.188851
N3    N     N_R   0.246280 0.438190 0.533650 -0.236433
C46   C     C_R   0.749280 0.633158 0.414168 0.348326
C47   C     C_R   0.635870 0.614104 0.382581 0.098926
C48   C     C_R   0.531890 0.540335 0.411225 -0.258602
C49   C     C_R   0.539120 0.499997 0.472105 -0.020022
C50   C     C_R   0.650702 0.495384 0.496420 0.245747
C51   C     C_R   0.438909 0.455079 0.508243 0.003199
C52   C     C_R   0.446722 0.385065 0.563145 0.074427
C53   C     C_R   0.548516 0.362468 0.581529 -0.221914
C54   C     C_R   0.649322 0.418025 0.549298 -0.157147
C55   C     C_R   0.337379 0.484841 0.495321 0.266958
C56   C     C_R   0.255191 0.366447 0.585563 0.492229
N4    N     N_R   0.754320 0.561190 0.466710 -0.225595
H16   H     H_    0.446529 0.514688 0.385215 0.176820
H17   H     H_    0.722872 0.395798 0.566739 0.197889
N5    N     N_R   0.951350 0.184290 0.093168 0.164856
O13   O     O_R   0.045414 0.186850 0.129068 -0.270281
O14   O     O_R   0.864968 0.085098 0.084591 -0.313713
N6    N     N_R   0.217937 0.580447 0.217860 0.139666
O15   O     O_R   0.227061 0.539043 0.174959 -0.327738
O16   O     O_R   0.315648 0.656500 0.240691 -0.357575
C57   C     C_3   0.941345 0.098631 0.506028 -0.759292
H18   H     H_    0.937959 0.026890 0.487916 0.202574
H19   H     H_    0.986103 0.178023 0.473772 0.234023
H20   H     H_    0.996253 0.101869 0.548950 0.274445
N7    N     N_R   0.545343 0.833667 0.579035 0.112233
O17   O     O_R   0.476545 0.835717 0.614039 -0.335162
O18   O     O_R   0.564808 0.742402 0.585927 -0.364045
N8    N     N_R   0.168411 0.323137 0.628040 0.139952
O19   O     O_R   0.061918 0.241395 0.618706 -0.350833
O20   O     O_R   0.205579 0.342905 0.681435 -0.360793
C58   C     C_3   0.336217 0.574311 0.441694 -0.741487
H21   H     H_    0.281229 0.618448 0.441320 0.259109
H22   H     H_    0.427471 0.646550 0.436549 0.213213
H23   H     H_    0.299243 0.531648 0.403103 0.197493
C59   C     C_3   0.862868 0.733398 0.391574 -0.750420
H24   H     H_    0.844957 0.790854 0.352081 0.210223
H25   H     H_    0.906912 0.787411 0.425848 0.211842
H26   H     H_    0.926248 0.706048 0.379665 0.255310
C60   C     C_3   0.623274 0.668572 0.318922 -0.763338
H27   H     H_    0.678814 0.653503 0.292671 0.241758
H28   H     H_    0.527968 0.631658 0.299647 0.270704
H29   H     H_    0.652755 0.762448 0.315068 0.243175
C61   C     C_3   0.214789 0.538696 0.809690 -0.743548
H30   H     H_    0.292398 0.555516 0.785881 0.243439
H31   H     H_    0.238472 0.614933 0.829620 0.239546
H32   H     H_    0.201228 0.462542 0.845217 0.250451
C62   C     C_3   0.769037 0.452947 0.774411 -0.771506
H33   H     H_    0.742777 0.374944 0.809435 0.242511
H34   H     H_    0.780396 0.527432 0.792706 0.253140
H35   H     H_    0.694052 0.438121 0.738810 0.230456
C63   C     C_3   0.762061 0.404160 0.200712 -0.766737
H36   H     H_    0.685697 0.379564 0.227275 0.229433
H37   H     H_    0.758708 0.471428 0.162502 0.241642
H38   H     H_    0.748933 0.326829 0.184556 0.253892

loop_
_geom_bond_atom_site_label_1
_geom_bond_atom_site_label_2
_geom_bond_distance
_ccdc_geom_bond_type
C51   C55   1.443400 A    
C7    C10   1.422097 A    
C21   C22   1.402201 A    
C8    C9    1.411374 A    
C63   H36   1.110867 S    
C59   H25   1.105680 S    
C49   C50   1.420399 A    
Cu1   Cu2   2.727062 S    
C26   C27   1.399673 A    
C31   C39   1.402479 A    
C53   C54   1.388640 A    
C60   H27   1.110623 S    
Cu1   O7    1.942825 S    
N8    O20   1.301161 A    
C15   C16   1.392329 A    
C36   C37   1.421150 A    
C50   N4    1.387546 A    
C45   H15   1.084922 S    
C18   O12   1.349508 S    
C38   C42   1.398036 A    
C25   C63   1.505794 S    
C17   N2    1.368104 A    
C54   H17   1.064891 S    
C19   C20   1.399692 A    
O7    C4    1.313825 A    
C4    C27   1.467587 S    
C34   H12   1.083963 S    
C5    N1    1.365974 A    
C58   H21   1.077110 S    
C29   N6    1.442161 S    
C7    C8    1.416732 A    
O5    C3    1.307610 A    
N1    C30   1.436439 S    
C19   C24   1.410775 A    
C36   C38   1.427088 A    
H14   C53   1.084515 S    
C55   C58   1.508642 S    
C26   H6    1.084232 S    
N3    C56   1.373325 A    
C58   H22   1.108964 S    
N1    C6    1.369167 A    
C2    C21   1.470047 S    
C28   C29   1.400114 A    
C12   C13   1.405891 A    
C41   H13   1.079453 S    
C61   H32   1.109860 S    
Cu1   N3    2.055149 S    
C19   C61   1.505298 S    
C40   C41   1.384866 A    
C17   O11   1.349560 S    
C33   C34   1.394195 A    
C10   C11   1.399640 A    
C35   C36   1.427520 A    
C22   C23   1.399003 A    
O3    Cu1   1.939044 S    
C59   H24   1.106199 S    
C49   C51   1.448315 A    
C61   H31   1.110218 S    
C28   H7    1.076806 S    
C11   C12   1.400572 A    
C46   N4    1.375254 A    
C5    C9    1.398867 A    
C37   C41   1.417120 A    
C60   H29   1.109804 S    
C1    C44   1.493960 S    
C13   C14   1.410815 A    
C20   C21   1.401072 A    
C20   H4    1.083378 S    
C46   C47   1.408623 A    
C3    C32   1.467286 S    
C14   C15   1.402691 A    
C50   C54   1.402925 A    
C23   C62   1.505448 S    
N2    C24   1.435792 S    
C34   C35   1.396666 A    
O1    C1    1.322394 A    
N2    C18   1.367819 A    
C51   C52   1.410173 A    
C37   C44   1.427337 A    
Cu2   O8    1.939045 S    
N5    O14   1.301041 A    
C6    C7    1.413972 A    
C12   C17   1.403583 A    
C52   C53   1.396298 A    
N7    O18   1.301718 A    
H8    C43   1.079587 S    
C62   H35   1.111028 S    
C32   C42   1.399834 A    
O8    C4    1.306665 A    
C57   H18   1.111341 S    
C57   H19   1.108824 S    
C6    O10   1.347918 S    
O3    C2    1.311417 A    
C22   H5    1.082745 S    
C63   H38   1.109449 S    
C23   C24   1.409889 A    
C62   H34   1.109853 S    
C15   H2    1.083167 S    
C14   C18   1.402464 A    
Cu1   O5    1.937275 S    
C11   H1    1.083724 S    
C25   C26   1.399671 A    
O1    Cu1   1.951824 S    
O2    Cu2   1.937278 S    
C45   C52   1.389973 A    
C48   C49   1.402177 A    
O6    C3    1.312808 A    
C63   H37   1.110295 S    
O4    Cu2   1.942825 S    
C35   N7    1.437945 S    
N6    O16   1.301598 A    
C32   C43   1.400266 A    
C5    O9    1.349794 S    
C9    C16   1.404709 A    
C57   H20   1.107441 S    
N8    O19   1.298182 A    
C58   H23   1.101176 S    
C38   C39   1.417112 A    
C8    C13   1.413041 A    
C56   N8    1.430121 S    
O4    C2    1.310216 A    
C31   C43   1.392366 A    
C16   H3    1.083197 S    
C42   H11   1.077695 S    
H9    C40   1.084465 S    
C25   C30   1.412534 A    
N5    O13   1.301338 A    
C60   H28   1.110575 S    
O2    C1    1.310732 A    
C39   C40   1.387703 A    
C48   H16   1.072656 S    
N7    O17   1.301623 A    
C33   C44   1.416354 A    
C47   C48   1.391615 A    
N3    C55   1.394825 A    
Cu2   O6    1.951823 S    
C27   C28   1.397022 A    
N6    O15   1.300900 A    
C33   C57   1.508284 S    
C61   H30   1.110821 S    
C46   C59   1.509003 S    
Cu2   N4    2.043125 S    
C45   C56   1.392184 A    
C47   C60   1.508552 S    
C31   H10   1.084047 S    
C59   H26   1.101403 S    
C29   C30   1.415902 A    
C62   H33   1.110215 S    
C10   N5    1.433415 S    
