data_mof_unit_54887.cif
_audit_creation_date              2012-12-10T18:05:45-0500
_audit_creation_method            fapswitch 2.2
_symmetry_space_group_name_H-M    P1
_symmetry_Int_Tables_number       1
_space_group_crystal_system       triclinic
_cell_length_a                    10.921077
_cell_length_b                    10.912238
_cell_length_c                    9.706945
_cell_angle_alpha                 88.949604
_cell_angle_beta                  91.161242
_cell_angle_gamma                 93.716447
_cell_volume                      1153.97184531

loop_
_atom_site_label
_atom_site_type_symbol
_atom_type_description
_atom_site_fract_x
_atom_site_fract_y
_atom_site_fract_z
_atom_type_partial_charge
C1    C     C_R   0.503300 0.262827 0.502040 0.802547
C2    C     C_R   0.496700 0.737173 0.497960 0.802547
C3    C     C_R   0.872785 0.508505 0.507131 -0.138975
C4    C     C_R   0.127215 0.491495 0.492869 -0.138975
C5    C     C_R   0.937271 0.450822 0.614805 -0.189545
C6    C     C_R   0.062729 0.549178 0.385195 -0.189545
C7    C     C_R   0.524482 0.070518 0.381922 -0.202127
C8    C     C_R   0.475517 0.929481 0.618078 -0.202126
C9    C     C_R   0.513470 0.943595 0.372900 -0.011882
C10   C     C_R   0.486529 0.056405 0.627099 -0.011883
C11   C     C_R   0.492695 0.871299 0.493836 -0.132458
C12   C     C_R   0.507304 0.128701 0.506164 -0.132457
C13   C     C_R   0.447964 0.401943 0.072225 0.056614
C14   C     C_R   0.552036 0.598057 0.927775 0.056614
C15   C     C_R   0.449212 0.403277 0.925129 -0.084022
C16   C     C_R   0.550788 0.596723 0.074871 -0.084022
C17   C     C_R   0.262272 0.495665 0.497898 0.885528
C18   C     C_R   0.737727 0.504335 0.502102 0.885528
C19   C     C_R   0.202871 0.611355 0.035268 -0.097408
C20   C     C_R   0.797130 0.388645 0.964732 -0.097409
C21   C     C_R   0.164518 0.631933 0.169061 -0.072574
C22   C     C_R   0.835482 0.368067 0.830939 -0.072573
C23   C     C_R   0.102057 0.536621 0.242536 0.112691
C24   C     C_R   0.897943 0.463379 0.757464 0.112691
C25   C     C_R   0.075396 0.422780 0.180972 -0.111140
C26   C     C_R   0.924604 0.577220 0.819028 -0.111140
C27   C     C_R   0.117264 0.400042 0.049719 0.039973
C28   C     C_R   0.882737 0.599959 0.950281 0.039973
C29   C     C_R   0.180620 0.495710 0.976354 -0.220583
C30   C     C_R   0.819380 0.504290 0.023646 -0.220583
C31   C     C_R   0.938105 0.567893 0.400500 0.331435
C32   C     C_R   0.061895 0.432107 0.599499 0.331435
Cu1   Cu    Cu3+1 0.500000 0.500020 0.640660 1.011138
Cu2   Cu    Cu3+1 0.500000 0.499980 0.359340 1.011138
H1    H     H_    0.213783 0.481284 0.874410 0.214430
H2    H     H_    0.786217 0.518716 0.125590 0.214430
H3    H     H_    0.405295 0.327649 0.868813 0.214969
H4    H     H_    0.594705 0.672350 0.131187 0.214970
H5    H     H_    0.250856 0.684482 0.977285 0.165585
H6    H     H_    0.749144 0.315518 0.022715 0.165585
H7    H     H_    0.183409 0.720837 0.215248 0.169094
H8    H     H_    0.816591 0.279163 0.784752 0.169094
H9    H     H_    0.027370 0.349471 0.239314 0.160982
H10   H     H_    0.972630 0.650529 0.760686 0.160982
H11   H     H_    0.544036 0.124346 0.289365 0.197404
H12   H     H_    0.455962 0.875653 0.710635 0.197405
N1    N     N_R   0.500030 0.500030 0.852070 -0.208543
N2    N     N_R   0.499970 0.499970 0.147930 -0.208543
O1    O     O_R   0.499990 0.319660 0.618740 -0.571103
O2    O     O_R   0.500010 0.680340 0.381260 -0.571104
O3    O     O_R   0.499990 0.319630 0.381170 -0.585097
O4    O     O_R   0.500010 0.680370 0.618830 -0.585097
O5    O     O_R   0.319650 0.500020 0.618780 -0.565507
O6    O     O_R   0.680350 0.499980 0.381220 -0.565506
O7    O     O_R   0.319640 0.500000 0.381210 -0.538077
O8    O     O_R   0.680360 0.500000 0.618790 -0.538077
C33   C     C_2   0.101930 0.273518 0.997372 0.830197
O9    O     O_2   0.179489 0.234416 0.923805 -0.542328
O10   O     O_R   0.001365 0.196363 0.037781 -0.773868
H13   H     H_    0.000721 0.112324 0.995026 0.344103
C34   C     C_2   0.898070 0.726482 0.002628 0.830196
O11   O     O_2   0.820511 0.765584 0.076194 -0.542327
O12   O     O_R   0.998636 0.803637 0.962219 -0.773867
H14   H     H_    0.999279 0.887677 0.004974 0.344103
O13   O     O_3   0.879476 0.648040 0.315003 -0.709660
H15   H     H_    0.942950 0.708791 0.279270 0.342679
O14   O     O_3   0.120524 0.351960 0.684997 -0.709660
H16   H     H_    0.057050 0.291209 0.720730 0.342679
C35   C     C_2   0.514860 0.894167 0.233160 0.922397
O15   O     O_2   0.603571 0.918363 0.160507 -0.513073
O16   O     O_R   0.409986 0.830006 0.180416 -0.761739
H17   H     H_    0.416587 0.811520 0.079182 0.342368
C36   C     C_2   0.485139 0.105833 0.766840 0.922394
O17   O     O_2   0.396431 0.081633 0.839495 -0.513073
O18   O     O_R   0.590014 0.169996 0.819582 -0.761738
H18   H     H_    0.583413 0.188481 0.920817 0.342366
C37   C     C_2   0.386491 0.291272 0.137040 0.879372
O19   O     O_2   0.406693 0.189778 0.095249 -0.585319
O20   O     O_R   0.300470 0.301019 0.239705 -0.733750
H19   H     H_    0.263888 0.218206 0.273015 0.325273
C38   C     C_2   0.613509 0.708728 0.862959 0.879373
O21   O     O_2   0.593307 0.810221 0.904751 -0.585320
O22   O     O_R   0.699530 0.698981 0.760295 -0.733750
H20   H     H_    0.736112 0.781794 0.726985 0.325273

loop_
_geom_bond_atom_site_label_1
_geom_bond_atom_site_label_2
_ccdc_geom_bond_type
C27   C29   A    
C36   O17   D    
C15   N1    A    
C16   N2    A    
C38   O21   D    
C26   H10   S    
C20   C30   A    
C37   O19   D    
Cu1   O4    S    
Cu2   O3    S    
C7    H11   S    
C19   C21   A    
C24   C26   A    
C20   H6    S    
C10   C36   S    
C33   O10   S    
Cu1   O1    S    
C3    C18   S    
C34   O12   S    
C35   O16   S    
C15   H3    S    
C2    O2    A    
C17   O7    A    
C18   O8    A    
C5    C32   A    
C28   C34   S    
Cu1   O8    S    
C6    C31   A    
O10   H13   S    
C36   O18   S    
C25   H9    S    
C34   O11   D    
C1    C12   S    
C2    C11   S    
C10   C12   A    
C38   O22   S    
C37   O20   S    
Cu1   O5    S    
C7    C12   A    
C13   C37   S    
Cu2   O2    S    
O14   H16   S    
C4    C6    A    
C27   C33   S    
O12   H14   S    
O18   H18   S    
C9    C11   A    
O22   H20   S    
Cu1   Cu2   S    
C3    C31   A    
C1    O3    A    
C4    C32   A    
C2    O4    A    
C32   O14   S    
C21   H7    S    
C4    C17   S    
C8    C10   A    
C20   C22   A    
Cu2   O6    S    
C13   C15   A    
Cu1   N1    S    
C22   C24   A    
Cu2   N2    S    
C19   C29   A    
C17   O5    A    
C31   O13   S    
C9    C35   S    
C3    C5    A    
C13   N2    A    
C14   N1    A    
C25   C27   A    
C29   H1    S    
C26   C28   A    
C30   H2    S    
C21   C23   A    
O16   H17   S    
C33   O9    D    
C22   H8    S    
C5    C24   S    
C8    C11   A    
C6    C23   S    
C28   C30   A    
C14   C16   A    
C23   C25   A    
C35   O15   D    
C8    H12   S    
C18   O6    A    
O20   H19   S    
C7    C9    A    
Cu2   O7    S    
C19   H5    S    
O13   H15   S    
C14   C38   S    
C1    O1    A    
C16   H4    S    
