data_mof_unit_62511.cif
_audit_creation_date              2012-12-10T16:41:28-0500
_audit_creation_method            fapswitch 2.2
_symmetry_space_group_name_H-M    P1
_symmetry_Int_Tables_number       1
_space_group_crystal_system       triclinic
_cell_length_a                    18.870141
_cell_length_b                    19.161554
_cell_length_c                    19.025198
_cell_angle_alpha                 110.270529
_cell_angle_beta                  109.28351
_cell_angle_gamma                 109.546691
_cell_volume                      5249.87960607

loop_
_atom_site_label
_atom_site_type_symbol
_atom_type_description
_atom_site_fract_x
_atom_site_fract_y
_atom_site_fract_z
_atom_type_partial_charge
C1    C     C_R   0.381882 0.386623 0.503111 0.815845
C2    C     C_R   0.496750 0.671974 0.757979 0.099614
C3    C     C_R   0.496538 0.679361 0.686351 -0.091126
C4    C     C_R   0.499732 0.751239 0.681250 -0.197354
C5    C     C_R   0.504214 0.816763 0.746722 -0.199460
C6    C     C_R   0.506094 0.811928 0.818827 -0.095989
C7    C     C_2   0.246444 0.263440 0.574520 -0.157010
C8    C     C_2   0.202076 0.178749 0.513615 0.023235
C9    C     C_2   0.320579 0.327349 0.578554 -0.165254
C10   C     C_2   0.311899 0.327720 0.505958 -0.306795
C11   C     C_2   0.492138 0.174841 0.247782 -0.156980
C12   C     C_R   0.498102 0.615770 0.618464 0.770083
C13   C     C_2   0.507986 0.184314 0.187030 -0.302624
C14   C     C_2   0.504301 0.248009 0.321001 -0.175930
C15   C     C_2   0.489761 0.308865 0.311380 -0.270940
C16   C     C_2   0.759195 0.736206 0.427770 -0.201275
C17   C     C_2   0.808717 0.817970 0.494404 -0.401183
C18   C     C_2   0.683736 0.671962 0.421783 0.474324
C19   C     C_2   0.687165 0.675460 0.495107 -0.452529
C20   C     C_R   0.381780 0.994939 0.878092 0.852131
C21   C     C_R   0.502795 0.878891 0.881486 0.784395
C22   C     C_R   0.618311 0.999048 0.115723 0.831413
C23   C     C_R   0.618041 0.614331 0.497459 0.918348
C24   C     C_R   0.501980 0.115337 0.116775 0.845019
C25   C     C_R   0.880833 0.998434 0.382584 0.851896
C26   C     C_R   0.122349 0.117057 0.504193 0.820912
C27   C     C_R   0.119312 0.001649 0.617364 0.840091
C28   C     C_R   0.880678 0.882648 0.498443 0.885870
C29   C     C_2   0.250111 0.991948 0.675326 -0.152534
C30   C     C_2   0.189617 0.008282 0.686241 -0.307219
C31   C     C_2   0.322893 0.003344 0.747685 -0.153898
C32   C     C_2   0.312208 0.987759 0.807976 -0.309991
C33   C     C_2   0.750317 0.008463 0.322838 -0.147523
C34   C     C_R   0.497290 0.379696 0.381138 0.886466
C35   C     C_2   0.811031 0.991740 0.313180 -0.306924
C36   C     C_2   0.677477 0.995298 0.248964 -0.148499
C37   C     C_2   0.687796 0.007401 0.186898 -0.311907
C38   C     C_R   0.487254 0.597319 0.762207 -0.170817
C39   C     C_R   0.492538 0.593702 0.835561 -0.138901
C40   C     C_R   0.507355 0.663948 0.905860 -0.125838
C41   C     C_R   0.513777 0.736970 0.901937 -0.169024
C42   C     C_R   0.505227 0.740816 0.826807 0.093420
Cu1   Cu    Cu3+1 0.561020 0.499620 0.560640 0.960973
Cu2   Cu    Cu3+1 0.438980 0.500380 0.439360 1.032643
Cu3   Cu    Cu3+1 0.561070 0.057880 0.996780 0.964471
Cu4   Cu    Cu3+1 0.439050 0.935860 0.996810 0.957371
Cu5   Cu    Cu3+1 0.000000 0.061410 0.561410 0.957122
Cu6   Cu    Cu3+1 1.000000 0.938590 0.438590 0.966299
H1    H     H_    0.499692 0.757108 0.626582 0.158184
H2    H     H_    0.248746 0.285608 0.446592 0.171323
H3    H     H_    0.475144 0.114359 0.246872 0.163072
H4    H     H_    0.534169 0.247308 0.193164 0.170405
H5    H     H_    0.520914 0.249215 0.381953 0.164189
H6    H     H_    0.463949 0.302695 0.248004 0.173110
H7    H     H_    0.771686 0.717066 0.374396 0.220168
H8    H     H_    0.792624 0.839826 0.544624 0.160127
H9    H     H_    0.747364 0.721520 0.556918 0.127834
H10   H     H_    0.249182 0.974751 0.614157 0.162535
H11   H     H_    0.474509 0.540678 0.708859 0.140947
H12   H     H_    0.195827 0.034584 0.749948 0.156086
H13   H     H_    0.384315 0.020171 0.748609 0.161957
H14   H     H_    0.248307 0.961816 0.801823 0.156044
H15   H     H_    0.750907 0.026910 0.383926 0.164587
H16   H     H_    0.805068 0.964236 0.249661 0.155216
H17   H     H_    0.616221 0.979897 0.248150 0.163617
H18   H     H_    0.751535 0.032238 0.192615 0.155125
H19   H     H_    0.485793 0.536388 0.838104 0.136925
H20   H     H_    0.513269 0.661638 0.963471 0.146985
H21   H     H_    0.526681 0.790373 0.958746 0.152618
H22   H     H_    0.504783 0.870998 0.740378 0.154668
H23   H     H_    0.226927 0.287037 0.621232 0.149593
H24   H     H_    0.379931 0.375248 0.640634 0.153953
O1    O     O_R   0.462500 0.410660 0.551220 -0.592356
O2    O     O_R   0.359500 0.945890 0.908340 -0.582057
O3    O     O_R   0.551580 0.958790 0.907180 -0.586928
O4    O     O_R   0.448540 0.855750 0.907210 -0.587029
O5    O     O_R   0.640630 0.047850 0.085250 -0.583361
O6    O     O_R   0.537580 0.944800 0.085280 -0.590568
O7    O     O_R   0.551590 0.137990 0.086380 -0.580073
O8    O     O_R   0.448540 0.034950 0.086410 -0.583313
O9    O     O_R   0.910970 0.052410 0.463390 -0.579772
O10   O     O_R   0.910970 0.948690 0.359670 -0.583881
O11   O     O_R   0.089030 0.140870 0.551850 -0.598113
O12   O     O_R   0.359440 0.411300 0.448810 -0.590553
O13   O     O_R   0.089030 0.037160 0.448130 -0.582783
O14   O     O_R   0.089030 0.051310 0.640330 -0.588837
O15   O     O_R   0.089030 0.947590 0.536610 -0.581792
O16   O     O_R   0.910970 0.962840 0.551870 -0.589081
O17   O     O_R   0.910970 0.859130 0.448150 -0.577855
O18   O     O_R   0.551530 0.589280 0.640810 -0.594959
O19   O     O_R   0.448470 0.589920 0.538390 -0.587056
O20   O     O_R   0.640560 0.588700 0.551190 -0.592523
O21   O     O_R   0.537500 0.589340 0.448780 -0.516105
O22   O     O_R   0.551530 0.410080 0.461610 -0.588171
O23   O     O_R   0.448470 0.410720 0.359190 -0.555099
O24   O     O_R   0.462540 0.048930 0.908310 -0.580030
S1    S     S_3+6 0.595660 0.587756 0.316469 0.010714
O25   O     O_2   0.574637 0.501942 0.309579 -0.319146
O26   O     O_2   0.517217 0.597958 0.300394 -0.270909
O27   O     O_3   0.621908 0.591686 0.241047 -0.548719
H25   H     H_    0.569811 0.543014 0.184819 0.375463
C43   C     C_3   0.236497 0.140419 0.457731 -0.813047
H26   H     H_    0.233691 0.081738 0.458126 0.232328
H27   H     H_    0.195966 0.122356 0.389880 0.227001
H28   H     H_    0.305829 0.183863 0.481592 0.244925

loop_
_geom_bond_atom_site_label_1
_geom_bond_atom_site_label_2
_ccdc_geom_bond_type
Cu1   O1    S    
C26   O11   A    
C8    C26   S    
C41   C42   A    
C31   H13   S    
C12   O19   A    
C9    H24   S    
C33   C36   S    
Cu4   O4    S    
S1    O25   D    
C7    C8    D    
Cu3   Cu4   S    
C19   H9    S    
C1    O12   A    
C21   O4    A    
C5    H22   S    
C12   O18   A    
C36   C37   D    
C7    H23   S    
C38   C39   A    
C11   C14   S    
C11   C13   D    
Cu1   O22   S    
C43   H28   S    
C18   C19   D    
Cu2   O21   S    
C24   O8    A    
C31   C32   D    
C16   C17   D    
C30   H12   S    
C28   O16   A    
C28   O17   A    
C3    C12   S    
C18   S1    S    
Cu5   O11   S    
C9    C10   D    
C15   C34   S    
C20   O24   A    
C27   C30   S    
C25   O9    A    
S1    O26   D    
Cu1   O18   S    
Cu5   O14   S    
C34   O23   A    
C22   O6    A    
C39   C40   A    
Cu4   O6    S    
C36   H17   S    
C6    C21   S    
C23   O21   A    
C13   C24   S    
C27   O14   A    
C19   C23   S    
Cu1   Cu2   S    
C15   H6    S    
C29   C30   D    
C13   H4    S    
C2    C38   A    
C24   O7    A    
Cu5   Cu6   S    
C33   H15   S    
C37   H18   S    
Cu6   O15   S    
C20   O2    A    
Cu3   O7    S    
C43   H27   S    
C17   H8    S    
C35   H16   S    
Cu2   O19   S    
C25   C35   S    
C40   C41   A    
Cu6   O17   S    
C6    C42   A    
C25   O10   A    
C3    C4    A    
C10   H2    S    
Cu4   O2    S    
S1    O27   S    
C41   H21   S    
C20   C32   S    
C7    C9    S    
C23   O20   A    
C17   C28   S    
C39   H19   S    
Cu6   O13   S    
C1    C10   S    
C34   O22   A    
C22   O5    A    
C4    C5    A    
Cu2   O12   S    
C21   O3    A    
Cu1   O20   S    
C4    H1    S    
Cu3   O3    S    
C1    O1    A    
Cu5   O16   S    
C2    C3    A    
C16   H7    S    
C32   H14   S    
C29   C31   S    
Cu2   O23   S    
C27   O15   A    
Cu4   O8    S    
C22   C37   S    
C5    C6    A    
C2    C42   A    
C26   O13   A    
O27   H25   S    
C33   C35   D    
Cu6   O10   S    
Cu5   O9    S    
C43   H26   S    
C11   H3    S    
C38   H11   S    
C14   H5    S    
C29   H10   S    
C16   C18   S    
C40   H20   S    
C14   C15   D    
Cu3   O5    S    
Cu3   O24   S    
C8    C43   S    
