data_mof_unit_16812.cif
_audit_creation_date              2012-12-11T14:49:53-0500
_audit_creation_method            fapswitch 2.2
_symmetry_space_group_name_H-M    P1
_symmetry_Int_Tables_number       1
_space_group_crystal_system       triclinic
_cell_length_a                    17.234614
_cell_length_b                    16.810348
_cell_length_c                    19.512544
_cell_angle_alpha                 118.013621
_cell_angle_beta                  63.17294
_cell_angle_gamma                 100.540261
_cell_volume                      4450.6478161

loop_
_atom_site_label
_atom_site_type_symbol
_atom_type_description
_atom_site_fract_x
_atom_site_fract_y
_atom_site_fract_z
_atom_type_partial_charge
C1    C     C_R   0.046502 0.756962 0.002780 0.454055
C2    C     C_R   0.249253 0.524933 0.825941 -0.165633
C3    C     C_R   0.183074 0.487718 0.086296 0.482559
C4    C     C_R   0.758210 0.435789 0.171101 0.152669
C5    C     C_R   0.989163 0.340772 0.759185 -0.141525
C6    C     C_R   0.255341 0.536839 0.063864 -0.150927
C7    C     C_R   0.941483 0.264830 0.757802 0.086590
C8    C     C_R   0.251825 0.469345 0.745358 0.077232
C9    C     C_R   0.035323 0.222151 0.993979 0.048990
C10   C     C_R   0.936142 0.218876 0.619431 -0.265879
C11   C     C_R   0.907687 0.207281 0.693726 0.098254
C12   C     C_R   0.757651 0.473970 0.251438 0.045824
C13   C     C_R   0.853809 0.135804 0.702163 -0.207033
C14   C     C_R   0.839229 0.069178 0.632325 0.106412
C15   C     C_R   0.877879 0.075528 0.554318 0.025938
C16   C     C_R   0.809462 0.551109 0.947717 -0.156625
C17   C     C_R   0.923117 0.152799 0.549192 0.168100
C18   C     C_R   0.793700 0.992489 0.637016 -0.383759
C19   C     C_R   0.794493 0.917291 0.562345 0.521256
C20   C     C_R   0.842130 0.920113 0.482835 0.038488
C21   C     C_R   0.879501 0.001073 0.479590 -0.049732
C22   C     C_R   0.926839 0.004651 0.400347 0.182506
C23   C     C_R   0.729519 0.532352 0.997610 0.150746
C24   C     C_R   0.965612 0.084224 0.397004 -0.220278
C25   C     C_R   0.962987 0.158511 0.471376 -0.208887
C26   C     C_R   0.861361 0.841494 0.406046 -0.215288
C27   C     C_R   0.918899 0.843332 0.328020 0.080712
C28   C     C_R   0.955026 0.674443 0.247860 -0.100581
C29   C     C_R   0.943484 0.926176 0.325093 -0.254123
C30   C     C_R   0.396679 0.408608 0.636748 -0.311772
C31   C     C_R   0.323811 0.460264 0.667084 -0.050975
C32   C     C_R   0.316958 0.501149 0.621427 0.423280
C33   C     C_R   0.382079 0.483092 0.540266 -0.007434
C34   C     C_R   0.962345 0.759887 0.252254 0.083188
C35   C     C_R   0.461926 0.444259 0.516449 -0.075500
C36   C     C_R   0.468547 0.402070 0.562042 0.105076
C37   C     C_R   0.373863 0.511359 0.485944 0.182155
C38   C     C_R   0.449557 0.527214 0.425828 -0.275111
C39   C     C_R   0.531466 0.504518 0.411887 0.057324
C40   C     C_R   0.740221 0.473656 0.024001 -0.104854
C41   C     C_R   0.536340 0.453626 0.450888 0.032508
C42   C     C_R   0.616285 0.416204 0.427435 0.132370
C43   C     C_R   0.621052 0.366145 0.465780 -0.275664
C44   C     C_R   0.547756 0.358105 0.533184 0.145830
C45   C     C_R   0.246441 0.571181 0.015836 0.082484
C46   C     C_R   0.608766 0.526060 0.356398 0.073981
C47   C     C_R   0.685495 0.479585 0.328021 0.061350
C48   C     C_R   0.690282 0.427264 0.363897 -0.313342
C49   C     C_R   0.648461 0.551573 0.004292 0.024635
C50   C     C_R   0.333478 0.541245 0.073761 0.137388
C51   C     C_R   0.415155 0.590488 0.158179 -0.196820
C52   C     C_R   0.021536 0.752303 0.172113 -0.199851
C53   C     C_R   0.335312 0.578321 0.153698 -0.209559
C54   C     C_R   0.409139 0.517931 0.999082 -0.224495
C55   C     C_R   0.488124 0.534685 0.002877 0.148690
C56   C     C_R   0.922041 0.262152 0.833889 -0.138705
C57   C     C_R   0.492695 0.566937 0.082416 0.011488
C58   C     C_R   0.574938 0.573565 0.082408 0.422616
C59   C     C_R   0.642625 0.529489 0.928376 -0.266216
C60   C     C_R   0.562311 0.519762 0.927436 -0.219729
C61   C     C_R   0.826282 0.139000 0.065083 0.033626
C62   C     C_R   0.982434 0.853431 0.968325 0.160159
C63   C     C_R   0.945052 0.921198 0.900467 0.514390
C64   C     C_R   0.837576 0.506390 0.246323 -0.203862
C65   C     C_R   0.981450 0.849709 0.895654 -0.372580
C66   C     C_R   0.951227 0.931364 0.046144 -0.242451
C67   C     C_R   0.168302 0.455199 0.751546 -0.092560
C68   C     C_R   0.911455 0.003447 0.054134 0.006867
C69   C     C_R   0.907339 0.996637 0.980150 0.071713
C70   C     C_R   0.863207 0.064291 0.987379 -0.213439
C71   C     C_R   0.831391 0.147770 0.137243 -0.169340
C72   C     C_R   0.872159 0.080204 0.134435 0.154097
C73   C     C_R   0.966117 0.687521 0.930137 -0.241731
C74   C     C_R   0.999067 0.769956 0.967025 0.034763
C75   C     C_3   0.694057 0.370248 0.142061 -0.478991
C76   C     C_3   0.661703 0.302750 0.180483 -0.232995
C77   C     C_3   0.623082 0.221050 0.128283 -0.907328
C78   C     C_R   0.054458 0.306686 0.046602 -0.116756
C79   C     C_3   0.286969 0.521167 0.487265 -0.344607
C80   C     C_3   0.284105 0.459838 0.400100 -0.337535
C81   C     C_3   0.194466 0.464902 0.404186 -0.890578
C82   C     C_3   0.612918 0.599752 0.329604 -0.434026
C83   C     C_3   0.664041 0.680229 0.367415 -0.228915
C84   C     C_3   0.675507 0.749470 0.334027 -0.852861
C85   C     C_3   0.557743 0.303638 0.572579 -0.428862
C86   C     C_3   0.582934 0.363581 0.647090 -0.253545
C87   C     C_3   0.596079 0.308216 0.684791 -0.913885
C88   C     C_3   0.872483 0.088642 0.215870 -0.421278
C89   C     C_R   0.978721 0.239004 0.968713 -0.103032
C90   C     C_3   0.819747 0.170408 0.299152 -0.283191
C91   C     C_3   0.823078 0.173422 0.376995 -0.904459
C92   C     C_3   0.290779 0.652428 0.002913 -0.413430
C93   C     C_3   0.278706 0.734656 0.088215 -0.242884
C94   C     C_3   0.318917 0.817658 0.074529 -0.901598
H1    H     H_    0.875733 0.219788 0.859860 0.087404
H2    H     H_    0.837651 0.778105 0.407926 0.168674
H3    H     H_    0.983451 0.929686 0.265196 0.125877
H4    H     H_    0.002174 0.087331 0.336298 0.136214
H5    H     H_    0.997244 0.218018 0.467028 0.130548
H6    H     H_    0.397679 0.378730 0.674832 0.155380
H7    H     H_    0.442697 0.552581 0.387319 0.125240
H8    H     H_    0.823109 0.587265 0.910493 0.101774
H9    H     H_    0.751277 0.393285 0.340326 0.137838
H10   H     H_    0.682770 0.335294 0.444697 0.137588
H11   H     H_    0.700070 0.511925 0.868346 0.148875
H12   H     H_    0.148149 0.419957 0.699867 0.109922
H13   H     H_    0.415053 0.620549 0.220850 0.135799
H14   H     H_    0.558167 0.498037 0.867385 0.138149
H15   H     H_    0.275778 0.600089 0.211969 0.135867
H16   H     H_    0.406106 0.490032 0.937569 0.115816
H17   H     H_    0.857001 0.060180 0.933033 0.170796
H18   H     H_    0.917046 0.656191 0.299256 0.091660
H19   H     H_    0.802032 0.208038 0.195292 0.101422
H20   H     H_    0.006141 0.789297 0.835658 0.141141
H21   H     H_    0.952801 0.931955 0.101184 0.140036
H22   H     H_    0.689068 0.438169 0.053456 0.101795
H23   H     H_    0.095626 0.318174 0.078335 0.170408
H24   H     H_    0.043232 0.806116 0.153920 0.145064
H25   H     H_    0.861584 0.527487 0.294564 0.125341
H26   H     H_    0.935573 0.670757 0.887667 0.129999
H27   H     H_    0.149001 0.776589 0.022519 0.305173
H28   H     H_    0.204599 0.461477 0.162502 0.312601
H29   H     H_    0.566995 0.242696 0.126696 0.260406
H30   H     H_    0.672775 0.184930 0.061761 0.259714
H31   H     H_    0.600141 0.173909 0.158080 0.253117
H32   H     H_    0.715720 0.280465 0.183684 0.202023
H33   H     H_    0.610072 0.335216 0.246462 0.203304
H34   H     H_    0.951041 0.189145 0.926706 0.111781
H35   H     H_    0.635820 0.408918 0.161841 0.181383
H36   H     H_    0.726290 0.332100 0.071202 0.198860
H37   H     H_    0.724106 0.848688 0.625428 0.319438
H38   H     H_    0.234680 0.597759 0.721355 0.331757
H39   H     H_    0.144183 0.441678 0.450992 0.256742
H40   H     H_    0.177671 0.535193 0.423186 0.264453
H41   H     H_    0.194777 0.420841 0.340225 0.255485
H42   H     H_    0.332674 0.479987 0.350238 0.203964
H43   H     H_    0.299564 0.388857 0.380502 0.211035
H44   H     H_    0.232405 0.501390 0.534147 0.235174
H45   H     H_    0.304378 0.551055 0.841105 0.112141
H46   H     H_    0.275556 0.592714 0.505303 0.198371
H47   H     H_    0.713870 0.718924 0.263501 0.274788
H48   H     H_    0.611174 0.774323 0.350229 0.263919
H49   H     H_    0.710751 0.807693 0.363826 0.246787
H50   H     H_    0.628465 0.713037 0.438338 0.215802
H51   H     H_    0.729463 0.658020 0.350976 0.201436
H52   H     H_    0.643084 0.571809 0.258880 0.218692
H53   H     H_    0.548528 0.627773 0.350999 0.191214
H54   H     H_    0.534551 0.276350 0.711082 0.263512
H55   H     H_    0.647863 0.254965 0.634962 0.267031
H56   H     H_    0.003577 0.372461 0.718014 0.089650
H57   H     H_    0.616105 0.352733 0.737248 0.247856
H58   H     H_    0.644501 0.397212 0.624018 0.203699
H59   H     H_    0.531320 0.416625 0.698198 0.193946
H60   H     H_    0.497482 0.267580 0.593542 0.187207
H61   H     H_    0.609223 0.249796 0.523120 0.191832
H62   H     H_    0.538680 0.573519 0.192239 0.295081
H63   H     H_    0.971750 0.859967 0.778785 0.319699
H64   H     H_    0.804931 0.107892 0.380086 0.271020
H65   H     H_    0.889478 0.190194 0.373824 0.266681
H66   H     H_    0.777073 0.227002 0.436266 0.242513
H67   H     H_    0.975533 0.274713 0.612218 0.118392
H68   H     H_    0.846537 0.234171 0.294950 0.198015
H69   H     H_    0.750549 0.166779 0.309275 0.202857
H70   H     H_    0.844283 0.027022 0.224060 0.189960
H71   H     H_    0.941031 0.091879 0.207510 0.193732
H72   H     H_    0.389827 0.805105 0.033091 0.264934
H73   H     H_    0.287520 0.834893 0.044233 0.270619
H74   H     H_    0.309312 0.875888 0.137191 0.252711
H75   H     H_    0.208234 0.749407 0.131082 0.203231
H76   H     H_    0.310196 0.720987 0.120426 0.215788
H77   H     H_    0.361118 0.636015 0.960580 0.186397
H78   H     H_    0.828568 0.127765 0.760260 0.120908
H79   H     H_    0.262012 0.670527 0.971234 0.183150
H80   H     H_    0.762030 0.989033 0.697758 0.146966
N1    N     N_R   0.036080 0.671900 0.995420 -0.099342
N2    N     N_R   0.867430 0.509300 0.948100 -0.037972
N3    N     N_R   0.003360 0.617250 0.167070 -0.035451
N4    N     N_R   0.825450 0.461270 0.995400 -0.053842
N5    N     N_R   0.045340 0.665280 0.119770 -0.052109
N6    N     N_R   0.883740 0.497640 0.167070 -0.043638
N7    N     N_R   0.987050 0.628910 0.948110 -0.054858
N8    N     N_R   0.174550 0.538730 0.004600 -0.086728
N9    N     N_R   0.954660 0.334720 0.880230 -0.042431
N10   N     N_R   0.116260 0.502360 0.832930 -0.044426
N11   N     N_R   0.012950 0.371090 0.051890 -0.038433
N12   N     N_R   0.963920 0.328100 0.004580 -0.052156
N13   N     N_R   0.165290 0.545350 0.880240 -0.049079
N14   N     N_R   0.132570 0.490700 0.051900 -0.079578
N15   N     N_R   0.996640 0.382750 0.832930 -0.039592
N16   N     N_R   0.834710 0.454650 0.119760 -0.060044
Ni1   Ni    Ni4+2 0.104370 0.604370 0.000010 0.194014
Ni2   Ni    Ni4+2 0.895630 0.395630 0.999990 0.203543
Ni3   Ni    Ni4+2 0.991920 0.505780 0.891500 0.210534
Ni4   Ni    Ni4+2 0.008080 0.494220 0.108500 0.257073
O1    O     O_3   0.111933 0.811803 0.018931 -0.776595
O2    O     O_3   0.155583 0.457843 0.147986 -0.790546
O3    O     O_3   0.753995 0.839196 0.565081 -0.774458
O4    O     O_3   0.253239 0.566716 0.658630 -0.789920
O5    O     O_3   0.586558 0.597494 0.155247 -0.779736
O6    O     O_3   0.942648 0.917141 0.829006 -0.773101

loop_
_geom_bond_atom_site_label_1
_geom_bond_atom_site_label_2
_ccdc_geom_bond_type
C61   C70   A    
C56   H1    S    
C66   C68   A    
C63   C65   A    
C41   C42   A    
C93   C94   S    
N15   Ni3   S    
C6    C45   A    
C27   C29   A    
C76   H32   S    
C65   H20   S    
C14   C18   A    
C35   C36   A    
N11   Ni4   S    
C75   C76   S    
C3    C6    A    
C3    N14   A    
C94   H72   S    
C82   H53   S    
C57   C58   A    
C77   H31   S    
C81   H40   S    
C39   C41   A    
C40   H22   S    
C85   C86   S    
C28   H18   S    
C7    C11   S    
C37   C79   S    
C93   H75   S    
C26   C27   A    
C59   H11   S    
C64   H25   S    
C90   H68   S    
C83   C84   S    
C24   H4    S    
C1    C74   A    
C22   C29   A    
C86   H59   S    
C38   H7    S    
N1    Ni1   S    
C83   H50   S    
C64   N6    A    
C23   C49   S    
C92   H77   S    
C23   C40   A    
C30   H6    S    
C73   N7    A    
C63   O6    S    
C71   H19   S    
C18   C19   A    
C89   N12   A    
C90   C91   S    
C45   C92   S    
C43   H10   S    
C91   H64   S    
C32   O4    S    
C72   C88   S    
C83   H51   S    
C70   H17   S    
C25   H5    S    
C13   H78   S    
C63   C69   A    
C42   C43   A    
C68   C69   A    
C4    C75   S    
C51   C57   A    
N2    Ni3   S    
C4    C12   A    
N7    Ni3   S    
C28   N3    A    
C91   H65   S    
C60   H14   S    
C75   H36   S    
N1    N7    A    
C55   C60   A    
C85   H60   S    
C16   N2    A    
N2    N4    A    
C79   H46   S    
N14   Ni4   S    
C59   C60   A    
C73   H26   S    
C46   C82   S    
C13   C14   A    
N9    Ni2   S    
C7    C56   A    
C12   C47   S    
C35   C41   A    
N9    N15   A    
C82   H52   S    
C45   N8    A    
C81   H41   S    
C27   C34   S    
C26   H2    S    
C93   H76   S    
C58   O5    S    
C19   O3    S    
C50   C53   A    
C87   H54   S    
C62   C66   A    
C4    N16   A    
C78   H23   S    
C24   C25   A    
C66   H21   S    
C94   H74   S    
C67   N10   A    
C5    C7    A    
C86   C87   S    
N8    N14   A    
C84   H49   S    
N3    N5    A    
C88   H70   S    
C48   H9    S    
C33   C37   A    
C5    H56   S    
C51   C53   A    
C54   H16   S    
C42   C48   A    
C43   C44   A    
C37   C38   A    
C77   H29   S    
C86   H58   S    
N4    Ni2   S    
C80   H43   S    
C47   C48   A    
C84   H48   S    
C30   C31   A    
C68   C72   A    
H38   O4    S    
C78   N11   A    
C85   H61   S    
C76   C77   S    
C91   H66   S    
H37   O3    S    
C39   C46   A    
C40   N4    A    
C18   H80   S    
C16   H8    S    
C88   C90   S    
C82   C83   S    
C10   H67   S    
C55   C57   A    
C22   C24   A    
C36   C44   A    
H62   O5    S    
N8    Ni1   S    
C2    H45   S    
C9    C89   A    
C44   C85   S    
C73   C74   A    
N6    Ni4   S    
C53   H15   S    
C15   C17   A    
C54   C55   A    
C1    N1    A    
N16   Ni2   S    
C6    C50   S    
C62   C65   A    
C1    O1    S    
C8    C31   S    
N13   Ni1   S    
C31   C32   A    
C2    C8    A    
H28   O2    S    
C80   C81   S    
C80   H42   S    
C94   H73   S    
C67   H12   S    
C81   H39   S    
C56   N9    A    
C29   H3    S    
C92   H79   S    
C16   C23   A    
C34   C52   A    
C3    O2    S    
C49   C59   A    
N10   N13   A    
C30   C36   A    
C90   H69   S    
H63   O6    S    
C17   C25   A    
C32   C33   A    
C19   C20   A    
C52   N5    A    
C5    N15   A    
C71   C72   A    
C50   C54   A    
C77   H30   S    
N6    N16   A    
C11   C13   A    
C61   C71   A    
N11   N12   A    
C38   C39   A    
C20   C26   A    
C84   H47   S    
C12   C64   A    
C92   C93   S    
C33   C35   A    
C9    C78   A    
N12   Ni2   S    
C69   C70   A    
C2    N13   A    
N3    Ni4   S    
C46   C47   A    
C10   C11   A    
C49   C58   A    
C28   C34   A    
C79   C80   S    
C75   H35   S    
C15   C21   A    
C79   H44   S    
N5    Ni1   S    
C20   C21   A    
C8    C67   A    
C51   H13   S    
C88   H71   S    
C87   H55   S    
C76   H33   S    
C14   C15   A    
C62   C74   S    
C87   H57   S    
C10   C17   A    
C21   C22   A    
H27   O1    S    
N10   Ni3   S    
C89   H34   S    
C52   H24   S    
