data_mof_unit_31216.cif
_audit_creation_date              2013-03-05T15:40:28-0500
_audit_creation_method            fapswitch 2.2
_symmetry_space_group_name_H-M    P1
_symmetry_Int_Tables_number       1
_space_group_crystal_system       triclinic
_cell_length_a                    7.499017
_cell_length_b                    8.69377
_cell_length_c                    13.408828
_cell_angle_alpha                 94.767051
_cell_angle_beta                  78.399857
_cell_angle_gamma                 103.261854
_cell_volume                      832.865675808

loop_
_atom_site_label
_atom_site_type_symbol
_atom_site_description
_atom_site_fract_x
_atom_site_fract_y
_atom_site_fract_z
_atom_type_partial_charge
O1    O     O_R   0.383920 0.714220 0.492660 -0.591607
O2    O     O_R   0.685730 0.742660 0.511730 -0.567852
C1    C     C_R   0.545171 0.799963 0.503173 0.878716
O3    O     O_R   0.275440 0.478800 0.636790 -0.633669
O4    O     O_R   0.577250 0.507240 0.655860 -0.572053
C2    C     C_R   0.400455 0.466894 0.691373 0.773814
Cu1   Cu    Cu3+1 0.321300 0.483160 0.488710 1.044093
Cu2   Cu    Cu3+1 0.678700 0.516840 0.511290 1.055874
O5    O     O_R   0.314270 0.257340 0.488270 -0.574664
O6    O     O_R   0.616080 0.285780 0.507340 -0.547334
O7    O     O_R   0.422750 0.492760 0.344140 -0.550935
O8    O     O_R   0.724560 0.521200 0.363210 -0.509301
C3    C     C_R   0.454635 0.199889 0.496838 0.874253
C4    C     C_R   0.600276 0.517063 0.306754 0.856915
C5    C     C_R   0.881901 0.614782 0.043136 -0.240929
H1    H     H_    0.950203 0.556660 0.844476 0.154380
H2    H     H_    0.021677 0.670158 0.006117 0.181603
C6    C     C_R   0.656789 0.535300 0.196291 -0.163049
C7    C     C_R   0.162053 0.347537 0.838817 -0.243473
C8    C     C_R   0.105184 0.324709 0.942896 -0.135963
C9    C     C_R   0.232596 0.371250 0.008159 -0.121946
C10   C     C_R   0.424961 0.424379 0.968569 0.041957
C11   C     C_R   0.483335 0.425457 0.861358 0.062992
C12   C     C_R   0.562602 0.478118 0.030604 0.067835
C13   C     C_R   0.749143 0.542515 0.984131 0.056839
C14   C     C_R   0.804472 0.522652 0.879489 -0.303712
C15   C     C_R   0.676052 0.439325 0.822139 0.259762
C16   C     C_R   0.522268 0.469478 0.136553 -0.216626
C17   C     C_R   0.835589 0.617750 0.149466 0.341543
C18   C     C_R   0.348048 0.411868 0.797917 -0.097723
H3    H     H_    0.387495 0.407108 0.174100 0.202265
H4    H     H_    0.060517 0.316119 0.790235 0.163007
H5    H     H_    0.176262 0.363676 0.088531 0.181441
H6    H     H_    0.959487 0.278139 0.973812 0.164559
C19   C     C_2   0.570021 0.967889 0.504441 -0.311284
H7    H     H_    0.705660 0.039238 0.512706 0.210394
C20   C     C_2   0.429058 0.031657 0.495552 -0.337999
H8    H     H_    0.293114 0.959946 0.487261 0.196161
N1    N     N_2   0.947230 0.542220 0.528320 -0.201434
H9    H     H_    0.004845 0.607912 0.586023 0.180803
N2    N     N_2   0.052770 0.457780 0.471680 0.023355
N3    N     N_R   0.967697 0.709815 0.207425 0.154997
O9    O     O_R   0.145841 0.726357 0.172695 -0.338542
O10   O     O_R   0.912442 0.801077 0.283732 -0.326770
N4    N     N_R   0.992411 0.380489 0.386008 0.293110
O11   O     O_R   0.936936 0.227478 0.385512 -0.352464
O12   O     O_R   0.057989 0.446324 0.298777 -0.332996
N5    N     N_2   0.739574 0.346321 0.735288 -0.388884
H10   H     H_    0.876988 0.384560 0.701326 0.248340
C21   C     C_3   0.685014 0.177269 0.747883 -0.679951
H11   H     H_    0.751217 0.115317 0.679817 0.220635
H12   H     H_    0.531245 0.136725 0.756712 0.232239
H13   H     H_    0.731446 0.145543 0.815640 0.219275

loop_
_geom_bond_atom_site_label_1
_geom_bond_atom_site_label_2
_geom_bond_distance
_ccdc_geom_bond_type
C15   N5    1.426180 S    
O4    Cu2   1.936039 S    
C21   H12   1.110623 S    
C20   H8    1.087555 S    
Cu2   N1    2.031886 S    
C11   C15   1.415842 A    
C17   N3    1.438219 S    
C12   C16   1.396383 A    
C4    C6    1.467790 S    
C3    C20   1.429901 S    
C7    C8    1.391667 A    
C1    C19   1.427818 S    
Cu2   O8    1.947857 S    
C8    H6    1.082730 S    
N5    C21   1.446899 S    
O2    C1    1.292841 A    
Cu1   Cu2   2.704100 S    
N1    N2    1.293933 D    
C6    C17   1.414610 A    
O1    Cu1   1.953983 S    
N4    O11   1.299383 A    
C8    C9    1.393727 A    
Cu1   O7    1.936038 S    
C14   C15   1.388783 A    
N3    O10   1.301346 A    
O3    Cu1   1.947857 S    
C7    H4    1.073882 S    
O3    C2    1.326017 A    
N5    H10   1.029098 S    
C19   C20   1.330233 D    
O8    C4    1.306452 A    
C5    C17   1.397485 A    
Cu1   N2    2.031885 S    
H1    C14   1.081948 S    
O4    C2    1.291515 A    
O7    C4    1.299380 A    
C10   C12   1.426535 A    
C5    C13   1.399647 A    
C21   H13   1.111625 S    
C9    H5    1.077103 S    
N3    O9    1.301918 A    
C11   C18   1.429072 A    
Cu1   O5    1.951356 S    
C6    C16   1.403796 A    
C12   C13   1.416575 A    
Cu2   O6    1.953983 S    
N4    O12   1.299363 A    
N1    H9    1.029216 S    
C5    H2    1.084342 S    
O5    C3    1.292292 A    
C10   C11   1.416194 A    
N2    N4    1.384666 S    
C21   H11   1.108294 S    
C13   C14   1.388964 A    
C9    C10   1.415338 A    
C7    C18   1.394423 A    
C2    C18   1.491919 S    
C16   H3    1.076219 S    
O2    Cu2   1.951356 S    
C19   H7    1.084474 S    
O1    C1    1.294332 A    
O6    C3    1.295941 A    
