data_mof_unit_52490.cif
_audit_creation_date              2012-12-10T16:47:31-0500
_audit_creation_method            fapswitch 2.2
_symmetry_space_group_name_H-M    P1
_symmetry_Int_Tables_number       1
_space_group_crystal_system       triclinic
_cell_length_a                    10.597227
_cell_length_b                    8.714742
_cell_length_c                    7.450133
_cell_angle_alpha                 101.960971
_cell_angle_beta                  94.883713
_cell_angle_gamma                 92.483839
_cell_volume                      669.340087403

loop_
_atom_site_label
_atom_site_type_symbol
_atom_type_description
_atom_site_fract_x
_atom_site_fract_y
_atom_site_fract_z
_atom_type_partial_charge
Br1   Br    Br    0.628190 0.954382 0.248745 -0.524125
Br2   Br    Br    0.371810 0.045618 0.751255 -0.524125
C1    C     C_R   0.498915 0.200785 0.455432 0.878156
C2    C     C_3   0.122578 0.499843 0.501307 0.020058
C3    C     C_3   0.969130 0.517359 0.673754 -0.132733
C4    C     C_3   0.030870 0.482641 0.326246 -0.132733
C5    C     C_2   0.519667 0.038355 0.437106 0.012655
C6    C     C_2   0.480333 0.961645 0.562894 0.012655
C7    C     C_R   0.501085 0.799215 0.544568 0.878156
C8    C     C_R   0.259414 0.499622 0.500942 0.791348
C9    C     C_R   0.740586 0.500377 0.499058 0.791349
C10   C     C_3   0.041347 0.380177 0.572620 -0.171876
C11   C     C_3   0.958653 0.619823 0.427380 -0.171875
C12   C     C_3   0.947355 0.363012 0.397953 -0.155545
C13   C     C_3   0.052645 0.636988 0.602047 -0.155545
C14   C     C_3   0.877422 0.500157 0.498693 0.020058
Cu1   Cu    Cu3+1 0.514140 0.517380 0.684380 1.021944
Cu2   Cu    Cu3+1 0.485860 0.482620 0.315620 1.021944
H1    H     H_    0.900926 0.251298 0.314358 0.168893
H2    H     H_    0.099074 0.748702 0.685642 0.168893
H3    H     H_    0.078548 0.282573 0.632323 0.159057
H4    H     H_    0.921452 0.717427 0.367677 0.159057
H5    H     H_    0.395954 0.385238 0.950092 0.257566
H6    H     H_    0.604046 0.614762 0.049908 0.257566
H7    H     H_    0.941395 0.531584 0.816421 0.150937
H8    H     H_    0.058605 0.468416 0.183579 0.150937
N1    N     N_2   0.464560 0.456420 0.038510 -0.193599
N2    N     N_2   0.535440 0.543580 0.961490 -0.193598
O1    O     O_R   0.509190 0.286130 0.619780 -0.569180
O2    O     O_R   0.490810 0.713870 0.380220 -0.569180
O3    O     O_R   0.485310 0.256770 0.308360 -0.536489
O4    O     O_R   0.514690 0.743230 0.691640 -0.536489
O5    O     O_R   0.328790 0.514640 0.655680 -0.585036
O6    O     O_R   0.671210 0.485360 0.344320 -0.585037
O7    O     O_R   0.304910 0.485280 0.344260 -0.592031
O8    O     O_R   0.695090 0.514720 0.655740 -0.592030

loop_
_geom_bond_atom_site_label_1
_geom_bond_atom_site_label_2
_ccdc_geom_bond_type
C8    O7    A    
Cu2   O2    S    
Cu1   O8    S    
H5    N1    S    
C4    C12   S    
Cu1   O1    S    
Cu2   O7    S    
C2    C13   S    
Cu1   Cu2   S    
C5    C6    D    
C4    C11   S    
C1    O3    A    
Cu2   O6    S    
C4    H8    S    
Cu1   O5    S    
C7    O2    A    
C3    H7    S    
C10   H3    S    
C9    O8    A    
C10   C12   S    
C11   H4    S    
C8    O5    A    
C1    C5    S    
C11   C13   S    
C13   H2    S    
C12   C14   S    
C3    C13   S    
C2    C10   S    
C2    C8    S    
C3    C10   S    
C2    C4    S    
C9    C14   S    
C11   C14   S    
N1    N2    D    
C1    O1    A    
Cu1   O4    S    
C3    C14   S    
Cu2   O3    S    
C7    O4    A    
Br1   C5    S    
Cu1   N2    S    
C12   H1    S    
C9    O6    A    
Br2   C6    S    
Cu2   N1    S    
H6    N2    S    
C6    C7    S    
