data_mof_unit_28929.cif
_audit_creation_date              2012-12-10T18:51:30-0500
_audit_creation_method            fapswitch 2.2
_symmetry_space_group_name_H-M    P1
_symmetry_Int_Tables_number       1
_space_group_crystal_system       triclinic
_cell_length_a                    10.720864
_cell_length_b                    10.012783
_cell_length_c                    10.489129
_cell_angle_alpha                 90.443311
_cell_angle_beta                  93.637621
_cell_angle_gamma                 89.979859
_cell_volume                      1123.66059513

loop_
_atom_site_label
_atom_site_type_symbol
_atom_type_description
_atom_site_fract_x
_atom_site_fract_y
_atom_site_fract_z
_atom_type_partial_charge
C1    C     C_R   0.872393 0.499994 0.500415 -0.005825
C2    C     C_R   0.127607 0.500005 0.499585 -0.005825
C3    C     C_R   0.260358 0.500008 0.499551 0.847140
C4    C     C_R   0.739642 0.499991 0.500449 0.847140
C5    C     C_R   0.499486 0.499433 0.257721 0.851808
C6    C     C_R   0.500514 0.500567 0.742279 0.851808
C7    C     C_3   0.398035 0.564747 0.036209 -0.189462
C8    C     C_3   0.601965 0.435253 0.963791 -0.189462
C9    C     C_3   0.502121 0.627632 0.961112 -0.137577
C10   C     C_3   0.497879 0.372368 0.038888 -0.137577
C11   C     C_3   0.396250 0.438963 0.949994 -0.171157
C12   C     C_3   0.603750 0.561037 0.050006 -0.171157
C13   C     C_3   0.500333 0.501689 0.877582 0.036078
C14   C     C_3   0.499667 0.498311 0.122418 0.036078
C15   C     C_R   0.580173 0.072242 0.582633 0.209401
C16   C     C_R   0.419827 0.927758 0.417367 0.209401
C17   C     C_R   0.419871 0.071054 0.417367 0.201847
C18   C     C_R   0.580129 0.928946 0.582633 0.201847
C19   C     C_R   0.064153 0.378306 0.503393 -0.203755
C20   C     C_R   0.935847 0.621694 0.496607 -0.203755
C21   C     C_R   0.936397 0.378306 0.503855 -0.203100
C22   C     C_R   0.063603 0.621694 0.496145 -0.203100
H1    H     H_    0.311900 0.389539 0.904427 0.135730
H2    H     H_    0.688100 0.610461 0.095573 0.135730
H3    H     H_    0.315188 0.617255 0.070632 0.130901
H4    H     H_    0.684812 0.382745 0.929368 0.130901
H5    H     H_    0.503903 0.731711 0.925487 0.143718
H6    H     H_    0.496097 0.268289 0.074513 0.143718
H7    H     H_    0.112666 0.283330 0.506225 0.161382
H8    H     H_    0.887334 0.716670 0.493775 0.161382
H9    H     H_    0.888330 0.283338 0.506905 0.160858
H10   H     H_    0.111670 0.716662 0.493095 0.160858
N1    N     N_R   0.500000 0.857200 0.500000 -0.117401
N2    N     N_R   0.500000 0.142800 0.500000 -0.117401
O1    O     O_R   0.316770 0.614620 0.499990 -0.631032
O2    O     O_R   0.683230 0.385380 0.500010 -0.631032
O3    O     O_R   0.683230 0.614620 0.500010 -0.631585
O4    O     O_R   0.316770 0.385380 0.499990 -0.631585
O5    O     O_R   0.499970 0.614650 0.313950 -0.623009
O6    O     O_R   0.500030 0.385350 0.686050 -0.623009
O7    O     O_R   0.500030 0.614650 0.686050 -0.629737
O8    O     O_R   0.499970 0.385350 0.313950 -0.629737
Zn1   Zn    Zn3+2 0.500000 0.653120 0.500000 0.927026
Zn2   Zn    Zn3+2 0.500000 0.346880 0.500000 0.927027
C23   C     C_3   0.670812 0.143550 0.676400 -0.840709
H11   H     H_    0.668496 0.251577 0.671148 0.287266
H12   H     H_    0.650301 0.118244 0.775740 0.215166
H13   H     H_    0.768214 0.114590 0.659058 0.206947
C24   C     C_3   0.329188 0.856450 0.323600 -0.840709
H14   H     H_    0.331504 0.748423 0.328852 0.287266
H15   H     H_    0.231786 0.885410 0.340942 0.206947
H16   H     H_    0.349699 0.881756 0.224260 0.215166
C25   C     C_3   0.329153 0.141193 0.323951 -0.841539
H17   H     H_    0.333273 0.249302 0.328124 0.289819
H18   H     H_    0.348094 0.112887 0.224537 0.210838
H19   H     H_    0.231688 0.114302 0.342835 0.209963
C26   C     C_3   0.670847 0.858807 0.676049 -0.841539
H20   H     H_    0.666727 0.750698 0.671876 0.289819
H21   H     H_    0.768312 0.885698 0.657165 0.209963
H22   H     H_    0.651906 0.887113 0.775463 0.210838

loop_
_geom_bond_atom_site_label_1
_geom_bond_atom_site_label_2
_ccdc_geom_bond_type
O3    Zn1   S    
C15   C18   A    
C17   N2    A    
C5    O8    A    
C4    O2    A    
C1    C21   A    
C8    C13   S    
C16   N1    A    
C11   C13   S    
C12   H2    S    
C15   N2    A    
C7    H3    S    
C3    O1    A    
C8    C12   S    
C1    C4    S    
O1    Zn1   S    
C24   H16   S    
C5    O5    A    
C2    C3    S    
C26   H20   S    
C23   H11   S    
C20   H8    S    
C2    C22   A    
C16   C24   S    
C6    C13   S    
C7    C11   S    
C21   H9    S    
C5    C14   S    
O8    Zn2   S    
C11   H1    S    
C19   C21   A    
C12   C14   S    
O4    Zn2   S    
C10   C11   S    
C23   H12   S    
C8    H4    S    
C18   N1    A    
C6    O6    A    
C26   H21   S    
O2    Zn2   S    
C9    C12   S    
C15   C23   S    
C25   H18   S    
C18   C26   S    
C19   H7    S    
C17   C25   S    
O6    Zn2   S    
C22   H10   S    
N2    Zn2   S    
C4    O3    A    
C9    H5    S    
C8    C10   S    
C24   H14   S    
C10   C14   S    
C25   H19   S    
C10   H6    S    
C7    C9    S    
C9    C13   S    
C26   H22   S    
O5    Zn1   S    
C23   H13   S    
C24   H15   S    
C2    C19   A    
C25   H17   S    
C7    C14   S    
O7    Zn1   S    
C3    O4    A    
C20   C22   A    
C16   C17   A    
C1    C20   A    
C6    O7    A    
N1    Zn1   S    
