data_mof_unit_36287.cif
_audit_creation_date              2012-12-11T21:01:55-0500
_audit_creation_method            fapswitch 2.2
_symmetry_space_group_name_H-M    P1
_symmetry_Int_Tables_number       1
_space_group_crystal_system       triclinic
_cell_length_a                    8.221928
_cell_length_b                    18.742207
_cell_length_c                    22.866828
_cell_angle_alpha                 99.761292
_cell_angle_beta                  89.635238
_cell_angle_gamma                 91.65969
_cell_volume                      3471.2367495

loop_
_atom_site_label
_atom_site_type_symbol
_atom_type_description
_atom_site_fract_x
_atom_site_fract_y
_atom_site_fract_z
_atom_type_partial_charge
Ba1   Ba    Ba6+2 0.157800 0.534120 0.474430 1.645854
Ba2   Ba    Ba6+2 0.652390 0.465870 0.525520 1.654184
C1    C     C_3   0.379659 0.707048 0.262753 -0.329453
C2    C     C_R   0.078758 0.905987 0.559047 0.032385
C3    C     C_R   0.229009 0.929747 0.585284 -0.081223
C4    C     C_3   0.920897 0.727164 0.357084 0.354185
C5    C     C_R   0.289898 0.999735 0.583613 -0.087746
C6    C     C_R   0.200561 0.047719 0.556445 0.031192
C7    C     C_R   0.049688 0.024542 0.529819 0.015314
C8    C     C_R   0.259532 0.118567 0.556196 -0.109233
C9    C     C_R   0.168246 0.168214 0.531043 -0.037355
C10   C     C_R   0.018306 0.144513 0.502718 -0.005293
C11   C     C_R   0.959962 0.072400 0.502135 -0.005979
C12   C     C_3   0.401901 0.687035 0.323750 0.320153
C13   C     C_R   0.221028 0.241188 0.533869 -0.008389
C14   C     C_R   0.122156 0.289543 0.511467 -0.298452
C15   C     C_R   0.980235 0.266352 0.479854 0.043988
C16   C     C_3   0.937496 0.803038 0.342231 -0.360066
C17   C     C_R   0.927526 0.192435 0.474419 -0.051838
C18   C     C_R   0.839339 0.929339 0.503611 -0.006191
C19   C     C_R   0.781541 0.857110 0.502782 -0.005066
C20   C     C_R   0.875109 0.808597 0.529474 -0.046484
C21   C     C_R   0.018704 0.835423 0.560069 -0.042671
C22   C     C_R   0.785903 0.165000 0.442697 -0.030772
C23   C     C_3   0.480263 0.687138 0.624878 0.316030
C24   C     C_R   0.723478 0.094998 0.444959 0.033024
C25   C     C_R   0.810709 0.048362 0.474636 0.006518
C26   C     C_R   0.749459 0.977222 0.475979 0.014918
C27   C     C_R   0.573433 0.071148 0.418540 -0.069982
C28   C     C_3   0.821134 0.373130 0.342999 0.323303
C29   C     C_R   0.510648 0.001696 0.421318 -0.086266
C30   C     C_R   0.598711 0.954003 0.449258 0.029643
C31   C     C_R   0.631023 0.833519 0.474820 -0.042205
C32   C     C_R   0.539345 0.883244 0.449804 -0.103410
C33   C     C_R   0.578809 0.760416 0.471675 0.004254
C34   C     C_3   0.483682 0.768560 0.645748 -0.390591
C35   C     C_R   0.677361 0.712105 0.494455 -0.302291
C36   C     C_R   0.823188 0.734668 0.523708 0.035963
C37   C     C_R   0.645103 0.524845 0.335404 -0.318402
C38   C     C_R   0.396862 0.552460 0.943325 -0.025962
C39   C     C_R   0.344701 0.547439 0.883957 0.593147
C40   C     C_3   0.809474 0.351215 0.275845 0.537632
C41   C     C_R   0.244507 0.425376 0.883641 0.576956
C42   C     C_R   0.291541 0.429285 0.943353 -0.016284
C43   C     C_R   0.369469 0.492991 0.973146 -0.053850
C44   C     C_R   0.476957 0.615438 0.973476 -0.074088
C45   C     C_3   0.860555 0.268556 0.645011 0.382404
C46   C     C_R   0.526628 0.619618 0.032309 -0.071849
C47   C     C_R   0.498118 0.560886 0.062858 -0.015799
C48   C     C_R   0.420483 0.497146 0.032958 -0.053409
C49   C     C_R   0.263597 0.370416 0.973804 -0.070620
C50   C     C_R   0.314739 0.374327 0.032346 -0.069563
C51   C     C_R   0.394573 0.437391 0.062487 -0.030587
C52   C     C_3   0.983897 0.619207 0.654248 0.295232
C53   C     C_R   0.448754 0.441951 0.121444 0.595750
C54   C     C_R   0.545071 0.564688 0.122670 0.574288
C55   C     C_2   0.089972 0.444999 0.768706 -0.085530
C56   C     C_3   0.834039 0.195091 0.664053 -0.367256
C57   C     C_3   0.074130 0.421064 0.702459 -0.051131
C58   C     C_1   0.305595 0.503428 0.692415 0.004410
C59   C     C_2   0.349520 0.503626 0.748192 -0.094228
C60   C     C_2   0.231310 0.477514 0.791058 0.195026
C61   C     C_R   0.714541 0.542635 0.235712 -0.095407
C62   C     C_R   0.753558 0.550206 0.296006 -0.030866
C63   C     C_R   0.501254 0.488348 0.314928 0.034117
C64   C     C_3   0.002213 0.636601 0.721462 -0.360703
C65   C     C_R   0.457335 0.483815 0.255117 -0.073848
C66   C     C_R   0.563176 0.511243 0.214459 0.194318
C67   C     C_3   0.391312 0.303025 0.676356 0.343754
C68   C     C_2   0.179324 0.465312 0.666996 -0.286900
C69   C     C_3   0.316661 0.313220 0.391663 0.329719
C70   C     C_3   0.304884 0.231696 0.371185 -0.353325
C71   C     C_3   0.409923 0.277019 0.735298 -0.354901
C72   C     C_R   0.989233 0.953208 0.530697 0.008267
F1    F     F_    0.694751 0.295535 0.261644 -0.654124
H1    H     H_    0.326349 0.637490 0.325819 0.098381
H2    H     H_    0.399259 0.324931 0.430539 0.058359
H3    H     H_    0.251976 0.723641 0.257318 0.152555
H4    H     H_    0.214914 0.218479 0.334565 0.137472
H5    H     H_    0.265850 0.203890 0.408263 0.039864
H6    H     H_    0.425529 0.211571 0.355024 0.145557
H7    H     H_    0.532206 0.675781 0.329482 -0.041056
H8    H     H_    0.403992 0.659007 0.228085 0.123436
H9    H     H_    0.606958 0.669986 0.614740 0.016667
H10   H     H_    0.405219 0.675151 0.583948 0.055445
H11   H     H_    0.561531 0.782722 0.685799 0.134516
H12   H     H_    0.773430 0.397771 0.255324 -0.072493
H13   H     H_    0.534015 0.796479 0.610201 0.052984
H14   H     H_    0.358380 0.787194 0.656631 0.119412
H15   H     H_    0.466043 0.752651 0.257126 0.125091
H16   H     H_    0.884348 0.842676 0.378260 0.073276
H17   H     H_    0.810585 0.265862 0.599593 0.080556
H18   H     H_    0.994265 0.278901 0.643812 -0.081998
H19   H     H_    0.703654 0.178782 0.661374 0.148463
H20   H     H_    0.903446 0.153656 0.634576 0.070035
H21   H     H_    0.876861 0.197519 0.710166 0.122480
H22   H     H_    0.259518 0.304487 0.666917 -0.057274
H23   H     H_    0.929445 0.332891 0.257441 0.022106
H24   H     H_    0.447663 0.358246 0.680200 0.075152
H25   H     H_    0.357102 0.316952 0.771142 0.131279
H26   H     H_    0.540572 0.271267 0.745252 0.153377
H27   H     H_    0.987337 0.726691 0.399103 0.085406
H28   H     H_    0.345176 0.223849 0.733689 0.114504
H29   H     H_    0.300413 0.893992 0.606709 0.064161
H30   H     H_    0.406561 0.016520 0.604003 0.071927
H31   H     H_    0.162120 0.345626 0.515326 0.066379
H32   H     H_    0.375880 0.134512 0.576712 0.110106
H33   H     H_    0.087818 0.801657 0.583983 0.097407
H34   H     H_    0.099776 0.598917 0.634267 0.011632
H35   H     H_    0.719380 0.198043 0.417319 0.110041
H36   H     H_    0.503677 0.106385 0.396078 0.068670
H37   H     H_    0.394123 0.984921 0.400792 0.075725
H38   H     H_    0.422655 0.867335 0.429452 0.113180
H39   H     H_    0.789797 0.714723 0.363340 -0.060560
H40   H     H_    0.637366 0.656037 0.490801 0.076026
H41   H     H_    0.290589 0.327866 0.054123 0.132638
H42   H     H_    0.202102 0.320852 0.952431 0.126633
H43   H     H_    0.588023 0.669144 0.053760 0.125461
H44   H     H_    0.802777 0.560489 0.205549 0.122284
H45   H     H_    0.887678 0.576453 0.643422 0.087833
H46   H     H_    0.502136 0.661692 0.951567 0.125904
H47   H     H_    0.471638 0.521662 0.762658 0.126464
H48   H     H_    0.997034 0.427485 0.797571 0.122163
H49   H     H_    0.341794 0.458135 0.240352 0.126786
H50   H     H_    0.677753 0.529484 0.381686 0.086435
H51   H     H_    0.067855 0.817856 0.337432 0.143539
H52   H     H_    0.170146 0.452896 0.618968 0.078289
H53   H     H_    0.872736 0.805486 0.300254 0.127228
H54   H     H_    0.699957 0.389017 0.360909 -0.007111
H55   H     H_    0.909298 0.419544 0.353356 -0.034794
H56   H     H_    0.104316 0.676515 0.733556 0.146614
H57   H     H_    0.027231 0.586756 0.739374 0.069568
H58   H     H_    0.887853 0.659484 0.741877 0.130390
H59   H     H_    0.194196 0.333187 0.404164 -0.012459
N1    N     N_R   0.271510 0.483959 0.854069 -0.424512
N2    N     N_R   0.518701 0.505870 0.151989 -0.427195
O1    O     O_2   0.110690 0.676100 0.539200 -0.464360
O2    O     O_2   0.743431 0.462973 0.706766 -0.496128
O3    O     O_3   0.781167 0.322156 0.684916 -0.585769
O4    O     O_3   0.863220 0.586720 0.534720 -0.487391
O5    O     O_3   0.450900 0.461390 0.429220 -0.493475
O6    O     O_2   0.599830 0.538970 0.641850 -0.460334
O7    O     O_3   0.413312 0.652653 0.669824 -0.627815
O8    O     O_2   0.557233 0.242512 0.522075 -0.495172
O9    O     O_3   0.470159 0.255271 0.632153 -0.600363
O10   O     O_2   0.363222 0.600038 0.859090 -0.593089
O11   O     O_2   0.181907 0.369010 0.857696 -0.615146
O12   O     O_3   0.376804 0.345365 0.344820 -0.584175
O13   O     O_2   0.436140 0.388302 0.145236 -0.564660
O14   O     O_2   0.608159 0.620917 0.148724 -0.611704
O15   O     O_3   0.368310 0.629070 0.432760 -0.487006
O16   O     O_2   0.239647 0.756216 0.474063 -0.491830
O17   O     O_3   0.942450 0.682326 0.633376 -0.640241
O18   O     O_3   0.351338 0.744631 0.366871 -0.608830
O19   O     O_2   0.210480 0.460990 0.358130 -0.472152
O20   O     O_3   0.959520 0.592090 0.401630 -0.485124
O21   O     O_2   0.092259 0.545314 0.295812 -0.505904
O22   O     O_3   0.987840 0.677688 0.310748 -0.594939
O23   O     O_2   0.699610 0.323860 0.460780 -0.467472
O24   O     O_3   0.947090 0.413280 0.465240 -0.487854
O25   O     O_3   0.442000 0.370930 0.567190 -0.478723
O26   O     O_3   0.873264 0.313807 0.366719 -0.631240
O27   O     O_3   0.359410 0.538600 0.570730 -0.479225
O28   O     O_3   0.850780 0.407910 0.598320 -0.481289
P1    P     P_3+3 0.935930 0.665430 0.555670 0.975779
P2    P     P_3+3 0.382700 0.439650 0.365620 1.019309
P3    P     P_3+3 0.949147 0.589999 0.325104 0.946811
P4    P     P_3+3 0.874370 0.334570 0.444280 0.987834
P5    P     P_3+3 0.861109 0.406469 0.674262 0.954533
P6    P     P_3+3 0.384928 0.722954 0.437176 0.935011
P7    P     P_3+3 0.415402 0.558915 0.645702 0.960753
P8    P     P_3+3 0.421496 0.277183 0.563234 0.934633

loop_
_geom_bond_atom_site_label_1
_geom_bond_atom_site_label_2
_ccdc_geom_bond_type
C34   H14   S    
C68   H52   S    
C71   H25   S    
C28   O26   S    
C37   H50   S    
C52   H45   S    
C36   P1    S    
O12   P2    S    
C45   H17   S    
C69   H2    S    
C56   H20   S    
C65   H49   S    
O21   P3    D    
C52   O17   S    
O1    P1    D    
O28   P5    S    
C5    C6    A    
C34   H13   S    
C32   H38   S    
C38   C44   A    
C37   C62   A    
C26   C30   A    
O5    P2    S    
O15   P6    S    
C58   C59   D    
C1    H15   S    
C16   H16   S    
Ba1   P2    S    
C57   C68   S    
C33   C35   A    
C22   C24   A    
C62   P3    S    
C40   H23   S    
C55   C57   S    
C19   C31   A    
O19   P2    D    
C13   C14   A    
C20   C36   A    
C70   H5    S    
C61   H44   S    
O23   P4    D    
O18   P6    S    
Ba1   Ba2   S    
Ba1   O19   S    
C7    C11   A    
C4    H39   S    
C56   H21   S    
C16   H53   S    
O25   P8    S    
C9    C13   A    
Ba1   O5    S    
C39   O10   D    
C14   C15   A    
C63   C65   A    
C23   H9    S    
C29   H37   S    
C5    H30   S    
C44   H46   S    
C67   C71   S    
Ba1   P1    S    
O27   P7    S    
Ba1   O15   S    
C2    C72   A    
C70   H6    S    
C14   H31   S    
C50   H41   S    
C69   O12   S    
C3    H29   S    
C19   C20   A    
C12   O18   S    
O2    P5    D    
C37   C63   A    
C8    H32   S    
C23   O7    S    
C69   H59   S    
Ba2   O25   S    
C54   N2    Am   
O22   P3    S    
C53   O13   D    
C64   H57   S    
C51   C53   A    
C45   H18   S    
C38   C43   A    
C4    C16   S    
C44   C46   A    
C48   C51   A    
C49   C50   A    
C55   C60   D    
C22   H35   S    
Ba2   O28   S    
C3    C5    A    
C2    C21   A    
C6    C7    A    
C46   H43   S    
C18   C26   A    
O20   P3    S    
C34   H11   S    
C28   H55   S    
C63   P2    S    
C65   C66   A    
C52   H34   S    
C59   H47   S    
C30   C32   A    
C60   N1    S    
Ba1   O20   S    
C41   C42   A    
C35   C36   A    
C55   H48   S    
C64   H58   S    
O16   P6    D    
C67   O9    S    
C29   C30   A    
C58   C68   D    
C23   H10   S    
C31   C32   A    
C40   F1    S    
C18   C72   A    
C10   C11   A    
C66   N2    S    
C41   N1    Am   
Ba1   O4    S    
C1    C12   S    
O26   P4    S    
C67   H24   S    
C42   C49   A    
Ba2   O24   S    
C46   C47   A    
C24   C25   A    
C49   H42   S    
C7    C72   A    
Ba2   O23   S    
C54   O14   D    
C28   H54   S    
Ba2   P4    S    
C39   N1    Am   
Ba1   O1    S    
C50   C51   A    
C64   H56   S    
O4    P1    S    
C33   P6    S    
C61   C66   A    
C38   C39   A    
O17   P1    S    
C58   P7    S    
C27   H36   S    
Ba1   O24   S    
C28   C40   S    
C42   C43   A    
C2    C3    A    
C15   P4    S    
Ba2   O27   S    
C4    O22   S    
C9    C10   A    
C52   C64   S    
C70   H4    S    
C47   C54   A    
O8    P8    D    
Ba2   O4    S    
C17   C22   A    
C56   H19   S    
O7    P7    S    
C69   C70   S    
C27   C29   A    
C35   H40   S    
C16   H51   S    
C45   C56   S    
C1    H8    S    
C43   C48   A    
Ba2   O6    S    
C21   H33   S    
C10   C17   A    
C71   H26   S    
C31   C33   A    
C13   P8    S    
O3    P5    S    
C4    H27   S    
C59   C60   S    
O24   P4    S    
O9    P8    S    
C41   O11   D    
C8    C9    A    
C23   C34   S    
C61   C62   A    
C15   C17   A    
C71   H28   S    
C18   C19   A    
Ba1   O27   S    
C24   C27   A    
C6    C8    A    
C47   C48   A    
C45   O3    S    
C25   C26   A    
Ba2   O5    S    
C12   H7    S    
C20   C21   A    
C11   C25   A    
C40   H12   S    
C57   P5    S    
C1    H3    S    
C53   N2    Am   
C12   H1    S    
O6    P7    D    
C67   H22   S    
