data_mof_unit_48143.cif
_audit_creation_date              2012-12-10T20:20:46-0500
_audit_creation_method            fapswitch 2.2
_symmetry_space_group_name_H-M    P1
_symmetry_Int_Tables_number       1
_space_group_crystal_system       triclinic
_cell_length_a                    19.088834
_cell_length_b                    18.442754
_cell_length_c                    10.723253
_cell_angle_alpha                 90.754753
_cell_angle_beta                  90.442607
_cell_angle_gamma                 92.038597
_cell_volume                      3772.28494399

loop_
_atom_site_label
_atom_site_type_symbol
_atom_type_description
_atom_site_fract_x
_atom_site_fract_y
_atom_site_fract_z
_atom_type_partial_charge
C1    C     C_R   0.364691 0.498400 0.500059 0.991180
C2    C     C_R   0.635065 0.501350 0.492375 0.818670
C3    C     C_R   0.828836 0.560670 0.472171 0.157211
C4    C     C_R   0.180212 0.562672 0.467518 0.134074
C5    C     C_R   0.756136 0.562956 0.497078 -0.052748
C6    C     C_R   0.248756 0.556775 0.516852 -0.042466
C7    C     C_R   0.710260 0.504193 0.457925 -0.243038
C8    C     C_R   0.287616 0.494619 0.486641 -0.166375
C9    C     C_R   0.964045 0.469745 0.486548 -0.241319
C10   C     C_R   0.035823 0.472411 0.489212 -0.227114
C11   C     C_R   0.073264 0.495322 0.385137 0.025627
C12   C     C_R   0.928238 0.492595 0.381401 0.068725
C13   C     C_R   0.039044 0.509057 0.270417 0.126114
C14   C     C_R   0.964219 0.507127 0.268072 0.157132
C15   C     C_R   0.558816 0.729082 0.533381 -0.007223
C16   C     C_R   0.440999 0.723377 0.464019 0.036256
C17   C     C_R   0.559620 0.805106 0.533529 -0.255081
C18   C     C_R   0.439403 0.799344 0.463078 -0.283332
C19   C     C_R   0.499229 0.841679 0.498562 0.140532
C20   C     C_R   0.461788 0.960185 0.407509 -0.226947
C21   C     C_R   0.535243 0.964147 0.591502 -0.225814
C22   C     C_R   0.495964 0.499604 0.260661 0.843131
C23   C     C_R   0.499190 0.500450 0.739874 0.977867
C24   C     C_R   0.460685 0.036590 0.406985 0.150195
C25   C     C_R   0.535858 0.040600 0.593071 0.152474
C26   C     C_R   0.498238 0.077846 0.500208 0.043453
C27   C     C_R   0.498722 0.923103 0.499160 0.058075
C28   C     C_R   0.459639 0.197560 0.587519 -0.298190
C29   C     C_R   0.538017 0.198334 0.412167 -0.279966
C30   C     C_R   0.461112 0.273622 0.585963 0.013317
C31   C     C_R   0.537656 0.274326 0.413345 0.043220
C32   C     C_R   0.498639 0.159007 0.500037 0.147999
C33   C     C_R   0.531060 0.549217 0.065741 0.025053
C34   C     C_R   0.533389 0.548929 0.941270 -0.023468
C35   C     C_R   0.489543 0.499812 0.129710 -0.176263
C36   C     C_R   0.491027 0.501552 0.870740 -0.144586
C37   C     C_R   0.440044 0.454567 0.063483 -0.116526
C38   C     C_R   0.440575 0.455708 0.931196 -0.022928
C39   C     C_3   0.599718 0.596248 0.938347 0.260753
C40   C     C_3   0.587875 0.607074 0.083927 0.277999
C41   C     C_R   0.735895 0.449775 0.377055 0.009040
C42   C     C_R   0.253621 0.433615 0.426426 -0.030228
C43   C     C_R   0.807162 0.448701 0.351990 -0.198351
C44   C     C_R   0.185229 0.439198 0.384315 -0.174570
C45   C     C_R   0.853219 0.502718 0.398129 0.026354
C46   C     C_R   0.148957 0.502202 0.403429 0.020269
H1    H     H_    0.605449 0.701899 0.559645 0.157363
H2    H     H_    0.394715 0.691721 0.435795 0.124872
H3    H     H_    0.607578 0.834859 0.559237 0.151042
H4    H     H_    0.391281 0.824556 0.436442 0.134961
H5    H     H_    0.433819 0.929412 0.334949 0.138123
H6    H     H_    0.563448 0.936442 0.663654 0.139363
H7    H     H_    0.428273 0.168945 0.656120 0.138609
H8    H     H_    0.568669 0.170359 0.343248 0.147768
H9    H     H_    0.430894 0.303215 0.653185 0.133768
H10   H     H_    0.567257 0.304325 0.344588 0.142373
H11   H     H_    0.827438 0.405057 0.295619 0.182291
H12   H     H_    0.158000 0.392323 0.341822 0.190086
H13   H     H_    0.936024 0.454813 0.570529 0.156039
H14   H     H_    0.062667 0.458926 0.574895 0.167930
N1    N     N_R   0.500000 0.689440 0.500000 -0.100458
N2    N     N_R   0.500000 0.310560 0.500000 -0.101356
O1    O     O_R   0.398180 0.560840 0.499970 -0.606491
O2    O     O_R   0.601820 0.560840 0.500030 -0.642618
O3    O     O_R   0.398180 0.439210 0.499910 -0.638572
O4    O     O_R   0.601820 0.439210 0.500090 -0.610529
O5    O     O_R   0.499990 0.560820 0.316770 -0.623060
O6    O     O_R   0.500010 0.560820 0.683230 -0.612443
O7    O     O_R   0.499990 0.439200 0.316710 -0.664516
O8    O     O_R   0.500010 0.439200 0.683290 -0.623951
Zn1   Zn    Zn3+2 0.500000 0.581210 0.500000 0.948432
Zn2   Zn    Zn3+2 0.500000 0.418790 0.500000 0.944204
C47   C     C_2   0.385318 0.411646 0.131941 0.363166
H15   H     H_    0.397420 0.385725 0.219004 0.121031
O9    O     O_2   0.324940 0.406817 0.093475 -0.532943
C48   C     C_2   0.390065 0.408190 0.858770 0.490921
H16   H     H_    0.376956 0.353790 0.890489 0.062639
O10   O     O_2   0.360748 0.430289 0.765953 -0.561021
C49   C     C_3   0.417952 0.072132 0.306559 -0.428352
C50   C     C_3   0.347255 0.095016 0.356287 -0.800482
H17   H     H_    0.317362 0.047238 0.393036 0.250971
H18   H     H_    0.354276 0.136502 0.431524 0.265926
H19   H     H_    0.316382 0.118622 0.279623 0.261778
H20   H     H_    0.447020 0.119659 0.267610 0.212955
H21   H     H_    0.407974 0.033882 0.226852 0.200962
C51   C     C_3   0.578593 0.080570 0.693726 -0.424680
C52   C     C_3   0.649850 0.106590 0.644657 -0.814056
H22   H     H_    0.679330 0.059780 0.609386 0.257527
H23   H     H_    0.643667 0.145943 0.568403 0.268885
H24   H     H_    0.680659 0.133764 0.721277 0.250262
H25   H     H_    0.550055 0.127181 0.731705 0.212350
H26   H     H_    0.587599 0.044400 0.774002 0.201769
C53   C     C_3   0.663857 0.550016 0.897757 -0.403445
C54   C     C_3   0.658329 0.467344 0.917229 -0.887859
H27   H     H_    0.636094 0.452276 0.008723 0.254463
H28   H     H_    0.624974 0.441052 0.843170 0.258096
H29   H     H_    0.711279 0.444651 0.910147 0.259086
H30   H     H_    0.672096 0.556231 0.796592 0.190146
H31   H     H_    0.712590 0.571940 0.942973 0.219616
C55   C     C_3   0.554684 0.679885 0.130408 -0.352926
C56   C     C_3   0.475810 0.688896 0.106098 -0.861323
H32   H     H_    0.460589 0.677080 0.007923 0.261965
H33   H     H_    0.444065 0.652473 0.166768 0.275977
H34   H     H_    0.462126 0.745537 0.128971 0.241489
H35   H     H_    0.561572 0.685072 0.233231 0.231921
H36   H     H_    0.583611 0.727392 0.092001 0.204321
C57   C     C_3   0.594054 0.664962 0.856825 -0.407823
C58   C     C_3   0.659401 0.715688 0.864003 -0.908869
H37   H     H_    0.671544 0.733645 0.960804 0.263063
H38   H     H_    0.705844 0.688643 0.826363 0.255037
H39   H     H_    0.650539 0.764460 0.807132 0.260986
H40   H     H_    0.587680 0.647824 0.758242 0.222222
H41   H     H_    0.547452 0.696305 0.879156 0.223253
C59   C     C_3   0.648335 0.585196 0.172516 -0.447706
C60   C     C_3   0.706526 0.644018 0.187341 -0.848841
H42   H     H_    0.734717 0.653060 0.098754 0.250362
H43   H     H_    0.685822 0.696141 0.220739 0.262008
H44   H     H_    0.744280 0.626755 0.258809 0.272585
H45   H     H_    0.626647 0.575851 0.266214 0.231354
H46   H     H_    0.672125 0.533822 0.145076 0.209622
C61   C     C_2   0.688891 0.397433 0.307248 0.384117
H47   H     H_    0.635515 0.411057 0.285379 0.073031
O11   O     O_2   0.709951 0.339324 0.269947 -0.589203
C62   C     C_2   0.284935 0.361232 0.413049 0.411961
H48   H     H_    0.318942 0.340791 0.484806 0.100087
O12   O     O_2   0.270293 0.321811 0.323488 -0.557580
C63   C     C_3   0.880570 0.616630 0.531977 -0.369242
C64   C     C_3   0.908609 0.672010 0.438646 -0.807434
H49   H     H_    0.945740 0.646619 0.373886 0.251207
H50   H     H_    0.864991 0.695241 0.384946 0.286387
H51   H     H_    0.937512 0.716789 0.489321 0.242413
H52   H     H_    0.856881 0.646197 0.610829 0.221396
H53   H     H_    0.925168 0.590075 0.576613 0.188032
C65   C     C_3   0.140041 0.632071 0.484923 -0.423763
C66   C     C_3   0.168238 0.691684 0.399032 -0.887374
H54   H     H_    0.223019 0.708549 0.423138 0.241690
H55   H     H_    0.167084 0.672247 0.300740 0.275100
H56   H     H_    0.135221 0.739859 0.407174 0.254572
H57   H     H_    0.083387 0.623789 0.463454 0.227086
H58   H     H_    0.142500 0.650815 0.583703 0.193981
C67   C     C_2   0.728036 0.627935 0.559249 0.363404
H59   H     H_    0.690243 0.622168 0.632614 0.057877
O13   O     O_2   0.745074 0.688893 0.524999 -0.588827
C68   C     C_2   0.276731 0.611710 0.609827 0.407282
H60   H     H_    0.262173 0.667791 0.606550 0.058053
O14   O     O_2   0.314532 0.593817 0.695701 -0.525090
C69   C     C_3   0.082604 0.524645 0.154334 -0.374159
C70   C     C_3   0.076649 0.602587 0.109151 -0.862455
H61   H     H_    0.035526 0.605469 0.036025 0.257544
H62   H     H_    0.064372 0.640072 0.187206 0.261548
H63   H     H_    0.126891 0.621436 0.066815 0.255036
H64   H     H_    0.138977 0.515775 0.171552 0.230852
H65   H     H_    0.067794 0.485412 0.078467 0.194780
C71   C     C_3   0.922922 0.516905 0.147468 -0.392912
C72   C     C_3   0.892400 0.591951 0.137982 -0.879344
H66   H     H_    0.854348 0.600312 0.213076 0.273192
H67   H     H_    0.934008 0.635254 0.145122 0.263417
H68   H     H_    0.864765 0.596690 0.047106 0.245025
H69   H     H_    0.954912 0.507315 0.063784 0.208826
H70   H     H_    0.879758 0.475270 0.139873 0.199684

loop_
_geom_bond_atom_site_label_1
_geom_bond_atom_site_label_2
_ccdc_geom_bond_type
C66   H56   S    
C52   H22   S    
C26   C32   S    
C56   H32   S    
C72   H67   S    
C1    C8    S    
C47   O9    D    
C47   H15   S    
C44   H12   S    
C69   C70   S    
C23   O8    A    
C70   H63   S    
C15   H1    S    
C64   H49   S    
C16   H2    S    
C59   C60   S    
C42   C62   S    
C66   H54   S    
C4    C46   A    
C39   C57   S    
C22   C35   S    
C55   H35   S    
C53   C54   S    
C62   O12   D    
C35   C37   A    
C48   O10   D    
C29   C32   A    
C51   H25   S    
C67   O13   D    
C65   H58   S    
C49   H20   S    
C3    C63   S    
C29   H8    S    
C60   H42   S    
C58   H37   S    
C66   H55   S    
C18   C19   A    
C57   H40   S    
O2    Zn1   S    
C41   C61   S    
C63   H52   S    
C57   H41   S    
C21   C25   A    
C2    C7    S    
C17   C19   A    
O4    Zn2   S    
C20   C24   A    
C44   C46   A    
C60   H43   S    
C1    O3    A    
C57   C58   S    
C31   H10   S    
C19   C27   S    
C9    C10   A    
C53   H31   S    
C22   O7    A    
O5    Zn1   S    
C59   H45   S    
N1    Zn1   S    
C21   C27   A    
C56   H33   S    
C13   C14   A    
C14   C71   S    
C72   H68   S    
C41   C43   A    
C31   N2    A    
C42   C44   A    
C50   H19   S    
C39   C53   S    
C1    O1    A    
C2    O2    A    
C40   C59   S    
C33   C40   S    
C34   C39   S    
C63   H53   S    
C28   C32   A    
C48   H16   S    
C4    C6    A    
C17   H3    S    
C39   C40   S    
C5    C7    A    
C51   C52   S    
C12   C45   S    
C6    C8    A    
C54   H29   S    
C3    C5    A    
C25   C26   A    
C3    C45   A    
C9    H13   S    
C23   O6    A    
O7    Zn2   S    
C10   H14   S    
C71   H70   S    
C37   C38   A    
C24   C49   S    
C5    C67   S    
C60   H44   S    
C33   C34   A    
C15   N1    A    
N2    Zn2   S    
C70   H61   S    
C54   H28   S    
C43   C45   A    
C71   C72   S    
C61   H47   S    
O1    Zn1   S    
C50   H18   S    
C70   H62   S    
C68   O14   D    
C38   C48   S    
C12   C14   A    
C56   H34   S    
C30   N2    A    
C16   N1    A    
C13   C69   S    
C6    C68   S    
C63   C64   S    
C64   H51   S    
C65   H57   S    
C18   H4    S    
C4    C65   S    
C15   C17   A    
C37   C47   S    
C24   C26   A    
C8    C42   A    
C50   H17   S    
C2    O4    A    
C64   H50   S    
C40   C55   S    
O8    Zn2   S    
C28   H7    S    
C65   C66   S    
C20   C27   A    
C20   H5    S    
O3    Zn2   S    
C30   H9    S    
C55   H36   S    
C58   H39   S    
C68   H60   S    
C28   C30   A    
C69   H64   S    
C71   H69   S    
C29   C31   A    
C51   H26   S    
C67   H59   S    
C11   C13   A    
O6    Zn1   S    
C36   C38   A    
C25   C51   S    
C33   C35   A    
C49   H21   S    
C58   H38   S    
C34   C36   A    
C7    C41   A    
C54   H27   S    
C69   H65   S    
C9    C12   A    
C22   O5    A    
C61   O11   D    
C10   C11   A    
C43   H11   S    
C49   C50   S    
C16   C18   A    
C23   C36   S    
C52   H24   S    
C72   H66   S    
C52   H23   S    
C11   C46   S    
C55   C56   S    
C53   H30   S    
C21   H6    S    
C59   H46   S    
C62   H48   S    
