data_mof_unit_24997.cif
_audit_creation_date              2012-12-11T15:54:42-0500
_audit_creation_method            fapswitch 2.2
_symmetry_space_group_name_H-M    P1
_symmetry_Int_Tables_number       1
_space_group_crystal_system       triclinic
_cell_length_a                    6.955432
_cell_length_b                    14.476612
_cell_length_c                    16.239133
_cell_angle_alpha                 89.949167
_cell_angle_beta                  89.498213
_cell_angle_gamma                 90.40013
_cell_volume                      1635.03269456

loop_
_atom_site_label
_atom_site_type_symbol
_atom_type_description
_atom_site_fract_x
_atom_site_fract_y
_atom_site_fract_z
_atom_type_partial_charge
O1    O     O_R   0.638180 0.333920 0.163320 -0.550444
O2    O     O_R   0.361820 0.666080 0.836680 -0.552096
O3    O     O_R   0.308470 0.344960 0.336080 -0.546074
O4    O     O_R   0.691530 0.655040 0.663920 -0.545996
O5    O     O_R   0.138140 0.166110 0.336680 -0.537337
O6    O     O_R   0.861860 0.833890 0.663320 -0.524246
C1    C     C_R   0.477733 0.367989 0.364113 0.740956
C2    C     C_R   0.521936 0.632279 0.635332 0.748863
O7    O     O_R   0.308460 0.344950 0.163930 -0.550352
O8    O     O_R   0.691540 0.655050 0.836070 -0.552052
O9    O     O_R   0.138140 0.166100 0.163310 -0.519050
O10   O     O_R   0.861860 0.833900 0.836690 -0.496165
C3    C     C_R   0.478133 0.367365 0.135213 0.673603
C4    C     C_R   0.521923 0.632965 0.865036 0.662867
O11   O     O_R   0.638180 0.333930 0.336700 -0.521507
O12   O     O_R   0.361820 0.666070 0.663300 -0.520587
O13   O     O_3   0.471670 0.191340 0.250000 -0.365258
O14   O     O_3   0.528330 0.808660 0.750000 -0.349117
V1    V     V_3+5 0.196830 0.260900 0.250000 1.478072
V2    V     V_3+5 0.803170 0.739100 0.750000 1.527915
O15   O     O_R   0.808420 0.155070 0.163920 -0.535854
O16   O     O_R   0.191580 0.844930 0.836080 -0.541286
C5    C     C_R   0.978400 0.132910 0.134961 0.806469
C6    C     C_R   0.022784 0.863022 0.867951 0.811176
O17   O     O_R   0.808420 0.155080 0.336070 -0.532725
O18   O     O_R   0.191580 0.844920 0.663930 -0.547330
C7    C     C_R   0.974462 0.133529 0.365095 0.780239
C8    C     C_R   0.025117 0.869976 0.636896 0.771328
V3    V     V_3+5 0.696830 0.239130 0.250000 1.501704
V4    V     V_3+5 0.303170 0.760870 0.750000 1.518714
O19   O     O_3   0.971850 0.308690 0.250010 -0.380812
O20   O     O_3   0.028150 0.691310 0.749990 -0.376221
H1    H     H_    0.319307 0.852923 0.283377 0.162894
H2    H     H_    0.634076 0.149128 0.718340 0.195841
C9    C     C_R   0.759760 0.162895 0.517730 -0.200920
C10   C     C_R   0.289941 0.872515 0.490742 -0.265032
C11   C     C_R   0.663566 0.182093 0.590879 0.382815
C12   C     C_R   0.366101 0.849094 0.413740 0.389822
C13   C     C_R   0.697394 0.128916 0.659926 -0.138844
C14   C     C_R   0.277070 0.880373 0.342770 -0.169111
C15   C     C_R   0.824192 0.054801 0.656302 0.310655
C16   C     C_R   0.129877 0.945074 0.348634 0.287899
C17   C     C_R   0.906094 0.025614 0.579900 0.007739
C18   C     C_R   0.079111 0.982504 0.426273 0.043383
C19   C     C_R   0.879537 0.084474 0.509865 -0.033983
C20   C     C_R   0.132078 0.933271 0.497838 -0.023210
C21   C     C_R   0.025010 0.945390 0.572409 -0.096730
C22   C     C_R   0.973350 0.064754 0.433878 -0.093191
H3    H     H_    0.737576 0.210706 0.467883 0.164603
H4    H     H_    0.359601 0.843502 0.543527 0.168946
C23   C     C_R   0.178761 0.965898 0.973186 -0.284481
C24   C     C_R   0.825768 0.028163 0.030938 -0.273921
H5    H     H_    0.316785 0.945716 0.949283 0.219470
H6    H     H_    0.688415 0.055733 0.048283 0.206572
C25   C     C_R   0.171794 0.026501 0.040643 0.489086
C26   C     C_R   0.832476 0.957118 0.972359 0.535799
C27   C     C_R   0.992956 0.062273 0.067933 -0.180338
C28   C     C_R   0.010852 0.929483 0.938392 -0.190500
C29   C     C_R   0.321925 0.468265 0.471081 -0.229223
C30   C     C_R   0.675381 0.530492 0.528375 -0.220232
H7    H     H_    0.183456 0.443054 0.451507 0.208691
H8    H     H_    0.812893 0.550726 0.551563 0.204742
C31   C     C_R   0.329238 0.534315 0.534218 0.509060
C32   C     C_R   0.667847 0.474095 0.458274 0.505794
C33   C     C_R   0.508311 0.563813 0.566248 -0.181703
C34   C     C_R   0.489690 0.437548 0.431705 -0.186097
C35   C     C_R   0.321545 0.474126 0.033102 -0.140538
C36   C     C_R   0.678669 0.527240 0.967928 -0.142495
H9    H     H_    0.181232 0.454743 0.057090 0.113513
H10   H     H_    0.818980 0.546711 0.943996 0.115036
C37   C     C_R   0.331973 0.537661 0.967947 -0.141923
C38   C     C_R   0.668248 0.463698 0.033081 -0.142729
H11   H     H_    0.199437 0.565320 0.944012 0.112918
H12   H     H_    0.800794 0.436112 0.057072 0.114976
C39   C     C_R   0.510662 0.564993 0.934213 -0.043980
C40   C     C_R   0.489510 0.436042 0.066572 -0.042772
Cl1   Cl    Cl    0.510849 0.277840 0.597749 -0.646244
Cl2   Cl    Cl    0.561318 0.773104 0.406442 -0.716221
Cl3   Cl    Cl    0.907587 0.019647 0.752321 -0.654081
Cl4   Cl    Cl    0.978187 0.957362 0.263046 -0.728560
O21   O     O_3   0.342870 0.052011 0.076973 -0.556591
C41   C     C_3   0.378916 0.991741 0.143640 -0.159102
H13   H     H_    0.328278 0.919397 0.133308 0.116653
H14   H     H_    0.315037 0.019886 0.200752 0.192153
H15   H     H_    0.535480 0.988660 0.154820 0.162140
O22   O     O_3   0.662280 0.916704 0.947849 -0.536160
C42   C     C_3   0.630666 0.836919 0.996490 -0.225268
H16   H     H_    0.619474 0.854295 0.063024 0.136178
H17   H     H_    0.745678 0.784880 0.986870 0.108150
H18   H     H_    0.492888 0.804273 0.978075 0.135863
O23   O     O_3   0.159149 0.570971 0.562886 -0.549706
C43   C     C_3   0.119114 0.649450 0.514516 -0.194495
H19   H     H_    0.082160 0.629512 0.450709 0.143943
H20   H     H_    0.242705 0.697653 0.512674 0.143357
H21   H     H_    0.995924 0.687035 0.541978 0.156725
O24   O     O_3   0.837248 0.455344 0.416892 -0.553273
C44   C     C_3   0.854082 0.516547 0.349256 -0.222904
H22   H     H_    0.829651 0.589793 0.367216 0.161044
H23   H     H_    0.752573 0.497495 0.299538 0.132066
H24   H     H_    0.001935 0.511715 0.323504 0.148634

loop_
_geom_bond_atom_site_label_1
_geom_bond_atom_site_label_2
_ccdc_geom_bond_type
C7    C22   S    
V4    O20   S    
C42   H16   S    
C31   C33   A    
C8    C21   S    
C16   Cl4   S    
O13   V3    S    
O4    C2    A    
V1    O19   S    
C44   H22   S    
C13   C15   A    
C36   C39   A    
O9    V1    S    
C9    C11   A    
O3    C1    A    
C29   C34   A    
O12   V4    S    
C30   H8    S    
O7    C3    A    
O5    C7    A    
O7    V1    S    
O6    C8    A    
O8    V2    S    
C9    H3    S    
O3    V1    S    
O14   V4    S    
C25   O21   S    
C35   C37   A    
C38   C40   A    
C24   H6    S    
C14   C16   A    
C2    C33   S    
C2    O12   A    
C12   C14   A    
V3    O19   S    
C15   C17   A    
C16   C18   A    
O1    V3    S    
C44   H23   S    
C18   C20   A    
O11   V3    S    
O17   V3    S    
C29   H7    S    
H1    C14   S    
H2    C13   S    
C32   O24   S    
C38   H12   S    
O8    C4    A    
O23   C43   S    
C37   H11   S    
O22   C42   S    
C1    O11   A    
C12   Cl2   S    
C23   C25   A    
O15   V3    S    
C43   H21   S    
O21   C41   S    
C23   H5    S    
C32   C34   A    
C26   O22   S    
C3    C40   S    
C36   C38   A    
O24   C44   S    
O10   V2    S    
C43   H20   S    
C23   C28   A    
C10   C20   A    
C17   C19   A    
C36   H10   S    
C30   C33   A    
O18   V4    S    
C41   H14   S    
C25   C27   A    
O16   C6    A    
O1    C3    A    
C10   C12   A    
C9    C19   A    
C44   H24   S    
C10   H4    S    
V2    O20   S    
C19   C22   A    
C5    C27   S    
C20   C21   A    
O16   V4    S    
C29   C31   A    
C15   Cl3   S    
O5    V1    S    
O17   C7    A    
C41   H15   S    
O6    V2    S    
O10   C6    A    
O18   C8    A    
O2    V4    S    
C30   C32   A    
C4    C39   S    
O15   C5    A    
C11   C13   A    
C1    C34   S    
C37   C39   A    
C11   Cl1   S    
O9    C5    A    
C43   H19   S    
O13   V1    S    
C26   C28   A    
O14   V2    S    
O2    C4    A    
C24   C27   A    
O4    V2    S    
C18   C22   A    
C6    C28   S    
C41   H13   S    
C42   H18   S    
C31   O23   S    
C42   H17   S    
C35   C40   A    
C35   H9    S    
C17   C21   A    
C24   C26   A    
