data_mof_unit_63545.cif
_audit_creation_date              2012-12-10T17:30:43-0500
_audit_creation_method            fapswitch 2.2
_symmetry_space_group_name_H-M    P1
_symmetry_Int_Tables_number       1
_space_group_crystal_system       triclinic
_cell_length_a                    21.612201
_cell_length_b                    21.585039
_cell_length_c                    22.073057
_cell_angle_alpha                 61.019897
_cell_angle_beta                  118.992061
_cell_angle_gamma                 89.349596
_cell_volume                      7460.03005051

loop_
_atom_site_label
_atom_site_type_symbol
_atom_type_description
_atom_site_fract_x
_atom_site_fract_y
_atom_site_fract_z
_atom_type_partial_charge
C1    C     C_R   0.619857 0.499787 0.499840 0.795454
C2    C     C_3   0.290274 0.708718 0.083032 0.067939
C3    C     C_3   0.203544 0.713780 0.972279 -0.207898
C4    C     C_3   0.208622 0.790019 0.916894 0.081886
C5    C     C_3   0.203757 0.739613 0.027289 -0.297787
C6    C     C_3   0.208993 0.814982 0.971197 0.403000
C7    C     C_1   0.336375 0.663263 0.174773 -0.001157
C8    C     C_1   0.162646 0.836103 0.825213 -0.007587
C9    C     C_3   0.756300 0.484570 0.585007 -0.080681
C10   C     C_3   0.828838 0.476539 0.587508 -0.491271
C11   C     C_3   0.708206 0.441675 0.483874 -0.407384
C12   C     C_R   0.419760 0.580157 0.339866 0.808389
C13   C     C_3   0.676964 0.577741 0.429384 -0.475807
C14   C     C_3   0.689211 0.499219 0.500931 0.047811
C15   C     C_3   0.810461 0.501992 0.499505 0.035383
C16   C     C_3   0.775373 0.448157 0.475699 0.231938
C17   C     C_3   0.750755 0.581983 0.434304 0.169077
C18   C     C_3   0.719116 0.199584 0.028420 0.334149
C19   C     C_3   0.681474 0.284652 0.972449 0.354445
C20   C     C_1   0.623615 0.375131 0.749505 -0.173874
C21   C     C_1   0.875170 0.125028 0.250364 -0.168635
C22   C     C_3   0.745478 0.204997 0.972789 -0.127540
C23   C     C_R   0.378361 0.501943 0.496537 0.760567
C24   C     C_3   0.707184 0.291041 0.916256 -0.008761
C25   C     C_3   0.817529 0.215528 0.027501 0.333787
C26   C     C_3   0.791491 0.209188 0.083528 -0.002155
C27   C     C_3   0.779440 0.300521 0.971511 0.348492
C28   C     C_3   0.753404 0.295612 0.027547 -0.394242
C29   C     C_1   0.661026 0.337337 0.824751 0.065371
C30   C     C_1   0.837497 0.162985 0.175066 0.086638
C31   C     C_3   0.273191 0.446440 0.474223 -0.037649
C32   C     C_3   0.206501 0.440512 0.484633 -0.167241
C33   C     C_3   0.328856 0.479607 0.582304 -0.440734
C34   C     C_R   0.579518 0.419948 0.660012 0.815638
C35   C     C_3   0.249677 0.581826 0.429707 -0.389818
C36   C     C_3   0.308479 0.502698 0.494750 0.047400
C37   C     C_3   0.189619 0.500339 0.500357 0.092495
C38   C     C_3   0.258083 0.484048 0.583873 0.268812
C39   C     C_3   0.177431 0.578723 0.427828 -0.371102
C40   C     C_R   0.999712 0.880517 0.498912 0.771138
C41   C     C_R   0.080067 0.919734 0.660108 0.808239
C42   C     C_R   0.000392 0.118954 0.501650 0.777431
C43   C     C_R   0.919976 0.079978 0.339964 0.807519
C44   C     C_R   0.002629 0.379658 0.500011 0.788324
C45   C     C_3   0.295207 0.759159 0.972409 -0.313213
C46   C     C_R   0.879642 0.502178 0.499878 0.874891
C47   C     C_R   0.997900 0.620276 0.499982 0.820739
C48   C     C_R   0.120375 0.501693 0.500145 0.778765
C49   C     C_3   0.059529 0.789683 0.486547 -0.366221
C50   C     C_3   0.059125 0.717336 0.488672 -0.497385
C51   C     C_3   0.011042 0.745359 0.582776 -0.109487
C52   C     C_3   0.923086 0.824079 0.426238 -0.436331
C53   C     C_3   0.000162 0.810988 0.500094 0.100667
C54   C     C_3   0.997924 0.688959 0.500493 0.114627
C55   C     C_3   0.015691 0.672034 0.585573 0.232124
C56   C     C_3   0.294173 0.784149 0.026738 0.371919
C57   C     C_3   0.921159 0.751707 0.427956 -0.357870
C58   C     C_3   0.080274 0.175805 0.574289 -0.059096
C59   C     C_3   0.080419 0.248975 0.571469 -0.419528
C60   C     C_3   0.983209 0.252035 0.417993 -0.541670
C61   C     C_3   0.939173 0.210524 0.513135 0.248857
C62   C     C_3   0.000919 0.186924 0.503556 0.090699
C63   C     C_3   0.003200 0.310516 0.499907 0.031389
C64   C     C_3   0.982565 0.325845 0.413998 -0.038337
C65   C     C_3   0.944309 0.280481 0.516229 -0.432298
C66   C     C_1   0.374436 0.625328 0.250144 -0.173850
C67   C     C_1   0.124939 0.874278 0.749831 -0.172864
C68   C     C_3   0.290179 0.683123 0.028868 0.104890
Cu1   Cu    Cu3+1 0.500030 0.437550 0.499970 0.924386
Cu2   Cu    Cu3+1 0.499970 0.562450 0.500030 0.958509
Cu3   Cu    Cu3+1 0.062480 0.999860 0.500010 0.937416
Cu4   Cu    Cu3+1 0.937520 0.999990 0.499990 0.971589
Cu5   Cu    Cu3+1 0.041430 0.458600 0.582880 0.954071
Cu6   Cu    Cu3+1 0.958570 0.541400 0.417120 0.956168
H1    H     H_    0.867801 0.418406 0.635693 0.202782
H2    H     H_    0.719109 0.383798 0.532775 0.184444
H3    H     H_    0.632319 0.588914 0.367845 0.198811
H4    H     H_    0.657414 0.622791 0.433285 0.166790
H5    H     H_    0.772898 0.618910 0.455912 0.106957
H6    H     H_    0.659090 0.453065 0.424433 0.153943
H7    H     H_    0.753878 0.472979 0.408961 0.190053
H8    H     H_    0.332562 0.767336 0.950032 0.153723
H9    H     H_    0.756343 0.333011 0.049260 0.175765
H10   H     H_    0.318007 0.391931 0.519895 0.169772
H11   H     H_    0.155169 0.457850 0.423514 0.145373
H12   H     H_    0.369431 0.422087 0.630597 0.115715
H13   H     H_    0.266413 0.430133 0.637208 0.112257
H14   H     H_    0.271635 0.621342 0.446652 0.206704
H15   H     H_    0.237311 0.604119 0.366464 0.146539
H16   H     H_    0.132150 0.590519 0.366277 0.159053
H17   H     H_    0.159276 0.623821 0.432470 0.200983
H18   H     H_    0.357745 0.516608 0.599172 0.205128
H19   H     H_    0.116548 0.783512 0.532598 0.174615
H20   H     H_    0.046350 0.835741 0.424542 0.182126
H21   H     H_    0.049065 0.728260 0.429376 0.189396
H22   H     H_    0.166514 0.732486 0.049721 0.158573
H23   H     H_    0.114918 0.673911 0.540561 0.184811
H24   H     H_    0.073181 0.631175 0.635975 0.119532
H25   H     H_    0.876918 0.841594 0.429732 0.187412
H26   H     H_    0.912454 0.870077 0.365573 0.171450
H27   H     H_    0.907119 0.764140 0.366759 0.180279
H28   H     H_    0.876203 0.732950 0.435616 0.190696
H29   H     H_    0.958574 0.760643 0.577910 0.179061
H30   H     H_    0.120480 0.165956 0.559546 0.152932
H31   H     H_    0.166255 0.684649 0.948990 0.147379
H32   H     H_    0.095539 0.238785 0.632143 0.192194
H33   H     H_    0.123780 0.268450 0.561749 0.149177
H34   H     H_    0.024577 0.236758 0.407221 0.198468
H35   H     H_    0.883421 0.225267 0.457106 0.103833
H36   H     H_    0.959077 0.266875 0.578120 0.219255
H37   H     H_    0.888525 0.324469 0.468146 0.176148
H38   H     H_    0.927696 0.260304 0.366441 0.144423
H39   H     H_    0.924125 0.365058 0.366060 0.164274
H40   H     H_    0.745187 0.537027 0.581842 0.154147
H41   H     H_    0.858656 0.511859 0.606969 0.174948
O1    O     O_R   0.591180 0.447260 0.499980 -0.597440
O2    O     O_R   0.947190 0.908860 0.499960 -0.598662
O3    O     O_R   0.113220 0.939420 0.620930 -0.585375
O4    O     O_R   0.007690 0.939530 0.620920 -0.566317
O5    O     O_R   0.052810 0.090990 0.500040 -0.608958
O6    O     O_R   0.947280 0.091100 0.500030 -0.553913
O7    O     O_R   0.992310 0.060320 0.379080 -0.573507
O8    O     O_R   0.886780 0.060430 0.379070 -0.577538
O9    O     O_R   0.035070 0.373890 0.570020 -0.591997
O10   O     O_R   0.965090 0.443800 0.430050 -0.596059
O11   O     O_R   0.943830 0.465050 0.569970 -0.592455
O12   O     O_R   0.591140 0.552730 0.500040 -0.595078
O13   O     O_R   0.873850 0.534970 0.430000 -0.536948
O14   O     O_R   0.034910 0.556200 0.569950 -0.573431
O15   O     O_R   0.964930 0.626120 0.429980 -0.604470
O16   O     O_R   0.126150 0.465040 0.570000 -0.586009
O17   O     O_R   0.056170 0.534950 0.430030 -0.611524
O18   O     O_R   0.439570 0.507730 0.379050 -0.587910
O19   O     O_R   0.439520 0.613200 0.379110 -0.569679
O20   O     O_R   0.408860 0.447270 0.499960 -0.602339
O21   O     O_R   0.408820 0.552740 0.500020 -0.583303
O22   O     O_R   0.560480 0.386800 0.620890 -0.584515
O23   O     O_R   0.560430 0.492270 0.620950 -0.570663
O24   O     O_R   0.052720 0.908740 0.499970 -0.596628
O25   O     O_3   0.340771 0.820980 0.056203 -0.720084
H42   H     H_    0.331027 0.867518 0.005536 0.325745
O26   O     O_3   0.827922 0.377579 0.521849 -0.776669
H43   H     H_    0.844244 0.351264 0.580898 0.324951
O27   O     O_3   0.736285 0.612543 0.354377 -0.722008
H44   H     H_    0.710154 0.666974 0.321222 0.329425
O28   O     O_3   0.609043 0.320364 0.942308 -0.711932
H45   H     H_    0.609810 0.306144 0.992687 0.334834
O29   O     O_3   0.686978 0.147319 0.059439 -0.724254
H46   H     H_    0.641651 0.154643 0.009428 0.331370
O30   O     O_3   0.811189 0.353144 0.940288 -0.713790
H47   H     H_    0.856459 0.346010 0.990211 0.334477
O31   O     O_3   0.890054 0.180347 0.057374 -0.723975
H48   H     H_    0.889246 0.195047 0.006855 0.331160
C69   C     C_3   0.740132 0.155470 0.940333 -0.387447
C70   C     C_3   0.784192 0.073102 0.012105 -0.295940
C71   C     C_3   0.778797 0.024423 0.978790 -0.864551
H49   H     H_    0.719627 0.028671 0.940314 0.257199
H50   H     H_    0.802177 0.042174 0.940171 0.257687
H51   H     H_    0.811129 0.965132 0.031977 0.246336
H52   H     H_    0.843959 0.066607 0.051617 0.249464
H53   H     H_    0.761900 0.053181 0.051816 0.247972
H54   H     H_    0.680329 0.161844 0.901112 0.201430
H55   H     H_    0.762334 0.175065 0.900542 0.200194
C72   C     C_3   0.248690 0.467475 0.385624 -0.401191
C73   C     C_3   0.247408 0.398947 0.380726 -0.355751
C74   C     C_3   0.226011 0.419795 0.294822 -0.848968
H56   H     H_    0.170612 0.463939 0.245010 0.257160
H57   H     H_    0.268456 0.440482 0.283144 0.257803
H58   H     H_    0.223181 0.369742 0.292210 0.242835
H59   H     H_    0.303614 0.355810 0.428734 0.221256
H60   H     H_    0.206942 0.374367 0.393477 0.217267
H61   H     H_    0.192707 0.510956 0.336760 0.191137
H62   H     H_    0.287277 0.492325 0.369139 0.212518
C75   C     C_3   0.212838 0.358765 0.545689 -0.455572
C76   C     C_3   0.290186 0.303806 0.626064 -0.323934
C77   C     C_3   0.282922 0.233397 0.685376 -0.878159
H63   H     H_    0.247512 0.247863 0.702973 0.255020
H64   H     H_    0.258126 0.203350 0.655182 0.245821
H65   H     H_    0.339050 0.195597 0.743145 0.249983
H66   H     H_    0.325398 0.285236 0.610650 0.207526
H67   H     H_    0.320105 0.328871 0.660274 0.212970
H68   H     H_    0.173099 0.361253 0.563033 0.208816
H69   H     H_    0.193304 0.332633 0.509973 0.182343
O32   O     O_3   0.166568 0.885357 0.939470 -0.730240
H70   H     H_    0.178961 0.884981 0.989182 0.329625
O33   O     O_3   0.244921 0.540938 0.594539 -0.745931
H71   H     H_    0.282377 0.521773 0.654023 0.322023
C78   C     C_3   0.072851 0.733694 0.666729 -0.468618
C79   C     C_3   0.152403 0.721593 0.686752 -0.322074
C80   C     C_3   0.210465 0.687330 0.779277 -0.872263
H72   H     H_    0.199146 0.722812 0.798368 0.259331
H73   H     H_    0.209544 0.630442 0.817526 0.251903
H74   H     H_    0.267003 0.682710 0.791167 0.246555
H75   H     H_    0.165031 0.683731 0.670873 0.216260
H76   H     H_    0.158065 0.776341 0.650643 0.230905
H77   H     H_    0.057403 0.782450 0.667513 0.201027
H78   H     H_    0.072657 0.684734 0.717815 0.205346
O34   O     O_3   0.964854 0.639760 0.601987 -0.763890
H79   H     H_    0.986546 0.616839 0.662226 0.317701
C81   C     C_3   0.108559 0.106996 0.663230 -0.313704
C82   C     C_3   0.192958 0.084797 0.725633 -0.445222
C83   C     C_3   0.220462 0.013764 0.810498 -0.767145
H80   H     H_    0.190455 0.021735 0.836505 0.279714
H81   H     H_    0.211508 0.966032 0.804389 0.261667
H82   H     H_    0.281162 0.000255 0.854688 0.231403
H83   H     H_    0.223821 0.075031 0.701206 0.225613
H84   H     H_    0.205733 0.130414 0.734744 0.231701
H85   H     H_    0.079012 0.119097 0.687663 0.254533
H86   H     H_    0.096943 0.058075 0.660638 0.206952
C84   C     C_3   0.032700 0.362600 0.384804 -0.393179
C85   C     C_3   0.992360 0.402701 0.289730 -0.344347
C86   C     C_3   0.043353 0.432188 0.261129 -0.863583
H87   H     H_    0.066711 0.469002 0.281890 0.253144
H88   H     H_    0.089438 0.384630 0.286892 0.260332
H89   H     H_    0.011104 0.464989 0.191833 0.247540
H90   H     H_    0.972553 0.363792 0.270899 0.224161
H91   H     H_    0.942947 0.450493 0.257358 0.219891
H92   H     H_    0.047811 0.404187 0.400370 0.200557
H93   H     H_    0.086054 0.319502 0.417417 0.191985
O35   O     O_3   0.945447 0.151841 0.584884 -0.731075
H94   H     H_    0.898253 0.165754 0.579515 0.332002
C87   C     C_3   0.337977 0.606272 0.065146 -0.381253
C88   C     C_3   0.322997 0.596071 0.995882 -0.355167
C89   C     C_3   0.372012 0.520069 0.031910 -0.836519
H95   H     H_    0.432008 0.514828 0.067416 0.256290
H96   H     H_    0.360670 0.474394 0.074006 0.254149
H97   H     H_    0.359615 0.514308 0.980173 0.244552
H98   H     H_    0.263443 0.600267 0.959604 0.220242
H99   H     H_    0.334519 0.640676 0.953010 0.229167
H100  H     H_    0.397810 0.600658 0.102874 0.202786
H101  H     H_    0.324930 0.562603 0.106963 0.196382
C90   C     C_3   0.766255 0.423824 0.668360 -0.378237
C91   C     C_3   0.774888 0.344277 0.688197 -0.339892
C92   C     C_3   0.803539 0.287188 0.779535 -0.841219
H102  H     H_    0.860447 0.285430 0.821591 0.260022
H103  H     H_    0.765652 0.301722 0.794333 0.261611
H104  H     H_    0.806191 0.230756 0.791229 0.236567
H105  H     H_    0.719783 0.341439 0.648545 0.228876
H106  H     H_    0.814924 0.328100 0.676748 0.211866
H107  H     H_    0.816311 0.422380 0.719949 0.217668
H108  H     H_    0.718040 0.441799 0.668612 0.192278

loop_
_geom_bond_atom_site_label_1
_geom_bond_atom_site_label_2
_ccdc_geom_bond_type
Cu2   O12   S    
C58   C62   S    
Cu2   O21   S    
Cu5   O16   S    
Cu1   O1    S    
C73   H60   S    
C80   H72   S    
Cu6   O17   S    
Cu4   O6    S    
Cu5   Cu6   S    
C54   C55   S    
Cu3   O7    S    
C16   O26   S    
C35   C36   S    
C18   C26   S    
C61   O35   S    
C4    C8    S    
C61   H35   S    
C89   H95   S    
C75   H68   S    
C63   C65   S    
C41   C67   S    
C91   H105  S    
C31   C32   S    
C3    H31   S    
C81   H86   S    
C57   H28   S    
C58   C81   S    
C73   C74   S    
C83   H81   S    
Cu3   O5    S    
C47   O14   A    
C17   O27   S    
C9    H40   S    
C46   O13   A    
C72   C73   S    
C3    C68   S    
C2    C68   S    
C11   H2    S    
C31   C36   S    
C22   C69   S    
C5    C6    S    
C56   O25   S    
C11   C14   S    
C50   H21   S    
Cu6   O10   S    
Cu5   O11   S    
C51   H29   S    
C15   C16   S    
C23   C36   S    
C40   O24   A    
C17   H5    S    
C33   C36   S    
O32   H70   S    
C55   H24   S    
C60   C62   S    
C18   C19   S    
C35   H14   S    
C75   C76   S    
C65   H37   S    
C51   C78   S    
C80   H74   S    
C21   C43   S    
C9    C90   S    
C79   H75   S    
C77   H65   S    
Cu6   O13   S    
C88   C89   S    
C45   C56   S    
C81   C82   S    
C22   C25   S    
Cu4   O2    S    
C80   H73   S    
C82   H83   S    
C24   C27   S    
C48   O16   A    
O34   H79   S    
C1    O1    A    
C49   H20   S    
C91   C92   S    
C42   C62   S    
C39   H16   S    
C61   C62   S    
C60   H34   S    
C76   H67   S    
C20   C34   S    
C77   H64   S    
C85   H90   S    
Cu1   O20   S    
C12   O19   A    
C13   C14   S    
C28   H9    S    
C74   H57   S    
C64   C84   S    
C79   C80   S    
C92   H103  S    
C39   H17   S    
O35   H94   S    
C46   O11   A    
C60   C64   S    
C13   H3    S    
C20   C29   T    
C44   C63   S    
Cu1   O22   S    
C85   H91   S    
Cu5   O14   S    
C44   O10   A    
C59   H32   S    
C83   H80   S    
C31   C72   S    
C47   O15   A    
C4    C45   S    
C19   O28   S    
C69   H55   S    
O25   H42   S    
C4    C6    S    
C52   C57   S    
C33   H18   S    
C88   H98   S    
Cu3   O24   S    
C25   C26   S    
C38   O33   S    
C32   C75   S    
C34   O23   A    
C45   H8    S    
C70   H53   S    
C84   H93   S    
C90   H108  S    
C6    O32   S    
C78   C79   S    
C51   C53   S    
C92   H104  S    
C35   C39   S    
C9    C14   S    
C37   C38   S    
C60   H38   S    
C10   H1    S    
C79   H76   S    
C85   C86   S    
C86   H89   S    
Cu5   O9    S    
C45   C68   S    
C82   H84   S    
C72   H62   S    
C50   C54   S    
C32   C37   S    
C41   O4    A    
C37   C48   S    
C19   C28   S    
C43   O7    A    
C78   H77   S    
C69   C70   S    
C10   H41   S    
C8    C67   T    
C47   C54   S    
C23   O21   A    
C77   H63   S    
C35   H15   S    
C86   H88   S    
C87   H101  S    
Cu2   O23   S    
C27   O30   S    
C12   O18   A    
C25   O31   S    
Cu4   O8    S    
C2    C7    S    
C74   H56   S    
C41   O3    A    
C22   C24   S    
C72   H61   S    
C2    C5    S    
C58   H30   S    
C92   H102  S    
C3    C4    S    
C89   H97   S    
C43   O8    A    
C70   C71   S    
C5    H22   S    
C52   C53   S    
C90   H107  S    
O28   H45   S    
C9    C10   S    
C73   H59   S    
C15   C17   S    
C13   H4    S    
C71   H49   S    
C50   H23   S    
Cu1   O18   S    
C64   H39   S    
C52   H25   S    
Cu3   O3    S    
C70   H52   S    
C18   C22   S    
C59   C63   S    
C69   H54   S    
C71   H51   S    
C68   C87   S    
C1    O12   A    
C6    C56   S    
O27   H44   S    
C3    C5    S    
C89   H96   S    
C75   H69   S    
C40   C53   S    
C26   C30   S    
C76   H66   S    
C23   O20   A    
C25   C27   S    
C57   H27   S    
C21   C30   T    
C34   O22   A    
C26   C28   S    
C33   C38   S    
O30   H47   S    
C82   C83   S    
C13   C17   S    
C38   H13   S    
C10   C15   S    
Cu6   O15   S    
C19   C24   S    
C58   C59   S    
Cu3   Cu4   S    
C37   C39   S    
C76   C77   S    
C2    C56   S    
C7    C66   T    
C42   O5    A    
C86   H87   S    
C12   C66   S    
C78   H78   S    
C49   C53   S    
C32   H11   S    
Cu4   O4    S    
C71   H50   S    
C16   H7    S    
C44   O9    A    
C40   O2    A    
C51   C55   S    
O29   H46   S    
C84   C85   S    
C91   H106  S    
Cu1   Cu2   S    
C59   H33   S    
C65   H36   S    
C11   C16   S    
C11   H6    S    
C31   H10   S    
C18   O29   S    
C63   C64   S    
C55   O34   S    
C61   C65   S    
C24   C29   S    
O31   H48   S    
C87   H100  S    
C74   H58   S    
C81   H85   S    
C49   C50   S    
C27   C28   S    
Cu2   O19   S    
C52   H26   S    
O26   H43   S    
C48   O17   A    
C1    C14   S    
C83   H82   S    
C15   C46   S    
C49   H19   S    
O33   H71   S    
C87   C88   S    
C33   H12   S    
C84   H92   S    
C88   H99   S    
C42   O6    A    
C90   C91   S    
C54   C57   S    
