data_mof_unit_25937.cif
_audit_creation_date              2012-12-10T17:17:50-0500
_audit_creation_method            fapswitch 2.2
_symmetry_space_group_name_H-M    P1
_symmetry_Int_Tables_number       1
_space_group_crystal_system       triclinic
_cell_length_a                    14.54474
_cell_length_b                    16.127463
_cell_length_c                    9.589082
_cell_angle_alpha                 88.75775
_cell_angle_beta                  88.076221
_cell_angle_gamma                 90.21536
_cell_volume                      2247.48983228

loop_
_atom_site_label
_atom_site_type_symbol
_atom_type_description
_atom_site_fract_x
_atom_site_fract_y
_atom_site_fract_z
_atom_type_partial_charge
C1    C     C_R   0.376372 0.885442 0.503212 0.855796
C2    C     C_R   0.384455 0.121975 0.499683 0.886600
C3    C     C_R   0.876372 0.385442 0.503212 0.855796
C4    C     C_R   0.884455 0.621975 0.499683 0.886601
C5    C     C_R   0.257352 0.201635 0.385889 0.189766
C6    C     C_R   0.324370 0.743470 0.567875 0.115072
C7    C     C_R   0.757352 0.701635 0.385888 0.189766
C8    C     C_R   0.824369 0.243470 0.567875 0.115072
C9    C     C_R   0.685637 0.757441 0.402151 -0.188233
C10   C     C_R   0.757389 0.182281 0.567217 -0.110068
C11   C     C_R   0.185637 0.257441 0.402151 -0.188234
C12   C     C_R   0.257389 0.682280 0.567217 -0.110069
C13   C     C_R   0.693900 0.822203 0.493387 -0.060951
C14   C     C_R   0.678130 0.192402 0.490374 -0.047516
C15   C     C_R   0.193900 0.322203 0.493387 -0.060951
C16   C     C_R   0.178130 0.692401 0.490374 -0.047516
C17   C     C_R   0.667825 0.006594 0.136914 -0.072673
C18   C     C_R   0.167825 0.506594 0.136914 -0.072673
C19   C     C_R   0.750728 0.011651 0.061199 -0.138115
C20   C     C_R   0.250728 0.511650 0.061199 -0.138115
C21   C     C_R   0.751299 0.011339 0.917241 -0.210452
C22   C     C_R   0.251299 0.511339 0.917241 -0.210452
C23   C     C_R   0.669111 0.005128 0.848155 -0.109812
C24   C     C_R   0.169111 0.505128 0.848155 -0.109812
C25   C     C_R   0.583026 0.003405 0.921174 0.159456
C26   C     C_R   0.083026 0.503405 0.921174 0.159456
C27   C     C_R   0.582738 0.003829 0.070808 0.197006
C28   C     C_R   0.082738 0.503829 0.070808 0.197006
C29   C     C_R   0.421491 0.993476 0.079260 -0.076835
C30   C     C_R   0.921491 0.493476 0.079260 -0.076836
C31   C     C_R   0.613838 0.122709 0.496979 0.847105
C32   C     C_R   0.621467 0.883884 0.498763 0.831430
C33   C     C_R   0.113838 0.622709 0.496979 0.847104
C34   C     C_R   0.121467 0.383884 0.498763 0.831430
C35   C     C_R   0.421107 0.993407 0.932013 0.492287
C36   C     C_R   0.921107 0.493407 0.932013 0.492287
C37   C     C_R   0.392480 0.265177 0.701266 0.304457
C38   C     C_R   0.173273 0.920081 0.466158 0.282543
C39   C     C_R   0.892479 0.765177 0.701267 0.304457
C40   C     C_R   0.673274 0.420081 0.466157 0.282543
C41   C     C_R   0.429922 0.343328 0.729060 0.328871
C42   C     C_R   0.086891 0.933022 0.408786 0.347384
C43   C     C_R   0.929921 0.843328 0.729061 0.328871
C44   C     C_R   0.586892 0.433022 0.408785 0.347383
C45   C     C_R   0.896410 0.913811 0.662438 -0.267979
C46   C     C_R   0.543303 0.368762 0.343786 -0.230430
C47   C     C_R   0.396410 0.413811 0.662437 -0.267978
C48   C     C_R   0.043303 0.868762 0.343788 -0.230430
C49   C     C_R   0.818168 0.908482 0.583148 0.270581
C50   C     C_R   0.578302 0.288708 0.350525 0.282363
C51   C     C_R   0.318168 0.408482 0.583148 0.270580
C52   C     C_R   0.078302 0.788708 0.350525 0.282363
C53   C     C_R   0.775929 0.830850 0.564790 -0.017948
C54   C     C_R   0.657042 0.271514 0.430918 -0.045501
C55   C     C_R   0.275929 0.330850 0.564790 -0.017948
C56   C     C_R   0.157042 0.771514 0.430918 -0.045501
C57   C     C_R   0.326302 0.258710 0.595454 -0.109191
C58   C     C_R   0.213121 0.839532 0.467115 -0.091281
C59   C     C_R   0.826301 0.758710 0.595454 -0.109191
C60   C     C_R   0.713121 0.339532 0.467115 -0.091281
C61   C     C_R   0.320360 0.192573 0.497703 -0.050033
C62   C     C_R   0.303511 0.822729 0.513275 -0.035698
C63   C     C_R   0.820361 0.692573 0.497703 -0.050033
C64   C     C_R   0.803511 0.322730 0.513275 -0.035698
Cu1   Cu    Cu3+1 0.499990 1.000000 0.640660 1.054307
Cu2   Cu    Cu3+1 0.999990 0.500000 0.640660 1.054307
Cu3   Cu    Cu3+1 0.500010 1.000000 0.359340 0.997266
Cu4   Cu    Cu3+1 0.000010 0.500000 0.359340 0.997266
H1    H     H_    0.816052 0.014995 0.858821 0.170222
H2    H     H_    0.316052 0.514995 0.858821 0.170222
H3    H     H_    0.676704 0.000709 0.737951 0.209067
H4    H     H_    0.176704 0.500709 0.737951 0.209067
H5    H     H_    0.929927 0.973128 0.674867 0.237693
H6    H     H_    0.481191 0.381167 0.287690 0.234295
H7    H     H_    0.429928 0.473127 0.674866 0.237693
H8    H     H_    0.981191 0.881167 0.287692 0.234295
H9    H     H_    0.629639 0.757318 0.330139 0.163536
H10   H     H_    0.769017 0.124998 0.624400 0.178902
H11   H     H_    0.129639 0.257318 0.330140 0.163536
H12   H     H_    0.269017 0.624998 0.624400 0.178903
H13   H     H_    0.357631 0.986994 0.139094 0.159770
H14   H     H_    0.857631 0.486994 0.139094 0.159770
H15   H     H_    0.673516 0.003915 0.246937 0.231362
H16   H     H_    0.173516 0.503915 0.246937 0.231362
H17   H     H_    0.814990 0.014657 0.114788 0.206436
H18   H     H_    0.314990 0.514657 0.114788 0.206436
N1    N     N_R   0.501200 1.000000 0.147910 -0.215180
N2    N     N_R   0.001200 0.500000 0.147910 -0.215180
N3    N     N_R   0.501270 1.000000 0.852040 -0.224609
N4    N     N_R   0.001270 0.500000 0.852040 -0.224609
O1    O     O_R   0.409820 0.909830 0.618810 -0.523872
O2    O     O_R   0.409820 0.090170 0.618810 -0.473929
O3    O     O_R   0.909820 0.409830 0.618810 -0.523872
O4    O     O_R   0.909820 0.590170 0.618810 -0.473929
O5    O     O_R   0.409840 0.909830 0.381240 -0.598233
O6    O     O_R   0.409840 0.090170 0.381240 -0.577722
O7    O     O_R   0.909840 0.409830 0.381240 -0.598233
O8    O     O_R   0.909840 0.590170 0.381240 -0.577722
O9    O     O_R   0.590170 0.090170 0.618760 -0.593585
O10   O     O_R   0.590170 0.909830 0.618760 -0.606383
O11   O     O_R   0.090170 0.590170 0.618760 -0.593586
O12   O     O_R   0.090170 0.409830 0.618760 -0.606383
O13   O     O_R   0.590190 0.090180 0.381190 -0.541194
O14   O     O_R   0.590190 0.909820 0.381190 -0.604790
O15   O     O_R   0.090190 0.590180 0.381190 -0.541194
O16   O     O_R   0.090190 0.409820 0.381190 -0.604790
C65   C     C_3   0.272268 0.171283 0.237173 -0.375337
C66   C     C_3   0.213407 0.096413 0.206155 -0.692278
H19   H     H_    0.231096 0.043328 0.274824 0.265007
H20   H     H_    0.139632 0.112152 0.219688 0.286653
H21   H     H_    0.225869 0.078723 0.095985 0.271440
H22   H     H_    0.252991 0.221827 0.162901 0.217631
H23   H     H_    0.344917 0.160875 0.206302 0.278168
C67   C     C_3   0.415889 0.721637 0.630425 -0.380936
C68   C     C_3   0.411131 0.729046 0.788927 -0.725772
H24   H     H_    0.392924 0.793220 0.818666 0.280512
H25   H     H_    0.358914 0.685366 0.835775 0.249617
H26   H     H_    0.479123 0.713572 0.831676 0.248982
H27   H     H_    0.472824 0.760853 0.585746 0.196420
H28   H     H_    0.434464 0.656848 0.604330 0.262773
C69   C     C_3   0.772268 0.671283 0.237173 -0.375336
C70   C     C_3   0.713408 0.596414 0.206155 -0.692277
H29   H     H_    0.731096 0.543329 0.274824 0.265007
H30   H     H_    0.639632 0.612153 0.219687 0.286653
H31   H     H_    0.725870 0.578723 0.095984 0.271440
H32   H     H_    0.752991 0.721828 0.162901 0.217631
H33   H     H_    0.844917 0.660875 0.206302 0.278168
C71   C     C_3   0.915888 0.221637 0.630426 -0.380936
C72   C     C_3   0.911131 0.229047 0.788928 -0.725773
H34   H     H_    0.892922 0.293221 0.818667 0.280513
H35   H     H_    0.858914 0.185366 0.835776 0.249617
H36   H     H_    0.979122 0.213574 0.831677 0.248982
H37   H     H_    0.972823 0.260853 0.585747 0.196420
H38   H     H_    0.934463 0.156848 0.604331 0.262773
Cl1   Cl    Cl    0.314127 0.983779 0.856620 -0.482114
Cl2   Cl    Cl    0.814127 0.483779 0.856619 -0.482114
Cl3   Cl    Cl    0.398678 0.191020 0.838188 -0.493950
Cl4   Cl    Cl    0.217980 0.001511 0.561558 -0.513944
Cl5   Cl    Cl    0.898678 0.691020 0.838188 -0.493951
Cl6   Cl    Cl    0.717979 0.501511 0.561558 -0.513944
Cl7   Cl    Cl    0.519475 0.354694 0.846363 -0.458163
Cl8   Cl    Cl    0.031058 0.029657 0.415357 -0.591635
Cl9   Cl    Cl    0.019474 0.854694 0.846367 -0.458162
Cl10  Cl    Cl    0.531059 0.529657 0.415355 -0.591635
Cl11  Cl    Cl    0.794229 0.993115 0.472883 -0.708925
Cl12  Cl    Cl    0.532837 0.221575 0.228322 -0.545506
Cl13  Cl    Cl    0.294229 0.493115 0.472883 -0.708926
Cl14  Cl    Cl    0.032837 0.721576 0.228323 -0.545506

loop_
_geom_bond_atom_site_label_1
_geom_bond_atom_site_label_2
_ccdc_geom_bond_type
C58   C62   A    
Cu1   O2    S    
Cu2   Cu4   S    
C18   C28   A    
C40   C60   A    
C4    O8    A    
C65   H22   S    
C48   H8    S    
C13   C32   S    
C43   Cl9   S    
C14   C31   S    
C1    C62   S    
C67   C68   S    
C53   C59   A    
Cu3   O13   S    
Cu2   N4    S    
C54   C60   A    
C3    C64   S    
Cu1   N3    S    
C4    C63   S    
C34   O12   A    
C33   O11   A    
C19   C21   A    
C24   C26   A    
C38   C42   A    
C6    C12   A    
C68   H24   S    
C40   Cl6   S    
C66   H19   S    
C45   H5    S    
C57   C61   A    
Cu2   O12   S    
Cu4   O7    S    
C65   H23   S    
C9    C13   A    
C38   C58   A    
C11   C15   A    
C8    C71   S    
C6    C67   S    
C12   C16   A    
C56   C58   A    
C68   H25   S    
C20   H18   S    
C42   Cl8   S    
C18   H16   S    
C65   C66   S    
C32   O14   A    
C31   O9    A    
C15   C34   S    
C18   C20   A    
C67   H27   S    
C2    C61   S    
C44   Cl10  S    
Cu2   O4    S    
C72   H36   S    
C50   Cl12  S    
C52   Cl14  S    
C15   C55   A    
C37   Cl3   S    
C71   C72   S    
Cu3   O5    S    
Cu2   O11   S    
Cu4   O16   S    
C7    C69   S    
C67   H28   S    
C36   Cl2   S    
C44   C46   A    
Cu3   O14   S    
C13   C53   A    
C41   C47   A    
C39   Cl5   S    
C49   Cl11  S    
C34   O16   A    
C23   H3    S    
C33   O15   A    
Cu1   O9    S    
C10   C14   A    
C35   Cl1   S    
C47   C51   A    
C25   N3    A    
Cu1   Cu3   S    
C32   O10   A    
C21   H1    S    
C17   H15   S    
C17   C27   A    
C30   H14   S    
C2    O2    A    
C16   C56   A    
C28   N2    A    
C71   H38   S    
C16   C33   S    
C3    O7    A    
C51   Cl13  S    
C1    O5    A    
C68   H26   S    
C39   C59   A    
C45   C49   A    
C38   Cl4   S    
C5    C61   A    
C3    O3    A    
C42   C48   A    
C27   N1    A    
C43   C45   A    
C7    C63   A    
C69   C70   S    
C11   H11   S    
C8    C64   A    
Cu2   O3    S    
C4    O4    A    
C35   N3    A    
Cu1   O1    S    
C14   C54   A    
C20   C22   A    
C29   H13   S    
C55   C57   A    
Cu3   O6    S    
Cu4   N2    S    
C22   C24   A    
C59   C63   A    
C26   N4    A    
Cu4   O15   S    
C70   H30   S    
C46   H6    S    
C24   H4    S    
C72   H34   S    
C5    C65   S    
C36   N4    A    
C7    C9    A    
C46   C50   A    
Cu3   N1    S    
Cu1   O10   S    
C19   H17   S    
C39   C43   A    
C69   H33   S    
C5    C11   A    
C25   C27   A    
C41   Cl7   S    
C29   C35   A    
C26   C28   A    
C66   H21   S    
C30   C36   A    
C60   C64   A    
C6    C62   A    
C70   H31   S    
C21   C23   A    
C9    H9    S    
C47   H7    S    
C69   H32   S    
C50   C54   A    
C71   H37   S    
C49   C53   A    
C12   H12   S    
C2    O6    A    
C17   C19   A    
C66   H20   S    
C10   H10   S    
C51   C55   A    
C23   C25   A    
C37   C41   A    
Cu4   O8    S    
C29   N1    A    
C48   C52   A    
C8    C10   A    
C1    O1    A    
C40   C44   A    
C70   H29   S    
C30   N2    A    
C22   H2    S    
C37   C57   A    
C52   C56   A    
C31   O13   A    
C72   H35   S    
