data_mof_unit_14210.cif
_audit_creation_date              2013-03-05T16:08:03-0500
_audit_creation_method            fapswitch 2.2
_symmetry_space_group_name_H-M    P1
_symmetry_Int_Tables_number       1
_space_group_crystal_system       triclinic
_cell_length_a                    23.562451
_cell_length_b                    11.541842
_cell_length_c                    10.744864
_cell_angle_alpha                 90.038107
_cell_angle_beta                  89.915699
_cell_angle_gamma                 89.99991
_cell_volume                      2922.10586528

loop_
_atom_site_label
_atom_site_type_symbol
_atom_site_description
_atom_site_fract_x
_atom_site_fract_y
_atom_site_fract_z
_atom_type_partial_charge
O1    O     O_R   0.500000 0.334450 0.602530 -0.608123
O2    O     O_R   0.500000 0.665550 0.397470 -0.607206
O3    O     O_R   0.500000 0.665550 0.602530 -0.609055
O4    O     O_R   0.500000 0.334450 0.397470 -0.614541
C1    C     C_R   0.500018 0.281128 0.499965 0.907779
C2    C     C_R   0.500008 0.718872 0.500034 0.916697
O5    O     O_R   0.416150 0.500000 0.602560 -0.597044
O6    O     O_R   0.583850 0.500000 0.397440 -0.639009
O7    O     O_R   0.583850 0.500000 0.602560 -0.584964
O8    O     O_R   0.416150 0.500000 0.397440 -0.594397
C3    C     C_R   0.388807 0.499784 0.500120 0.936352
C4    C     C_R   0.611203 0.499971 0.499826 0.910446
Zn1   Zn    Zn3+2 0.500000 0.500000 0.636920 0.998630
Zn2   Zn    Zn3+2 0.500000 0.500000 0.363080 0.980327
C5    C     C_R   0.880994 0.602684 0.501763 0.587305
C6    C     C_R   0.119197 0.395345 0.500422 0.587223
C7    C     C_R   0.880845 0.396086 0.513335 0.585233
C8    C     C_R   0.119362 0.602157 0.507497 0.586664
N1    N     N_R   0.852997 0.499446 0.507247 -0.337398
N2    N     N_R   0.147156 0.498678 0.503214 -0.336010
C9    C     C_R   0.940286 0.392819 0.507461 -0.150583
C10   C     C_R   0.059896 0.605329 0.503659 -0.151591
C11   C     C_R   0.940428 0.605580 0.507349 -0.151789
C12   C     C_R   0.059774 0.392505 0.507127 -0.151562
C13   C     C_R   0.970237 0.499125 0.507018 -0.151272
C14   C     C_R   0.029960 0.498987 0.505993 -0.150871
C15   C     C_R   0.970224 0.286855 0.502475 0.378807
C16   C     C_R   0.029910 0.711239 0.498513 0.378111
C17   C     C_R   0.970505 0.711364 0.511951 0.378658
C18   C     C_R   0.029707 0.286774 0.513901 0.377578
O9    O     O_2   0.850959 0.701527 0.489029 -0.519987
O10   O     O_2   0.149290 0.296343 0.489673 -0.520384
O11   O     O_2   0.850633 0.297476 0.526258 -0.519574
O12   O     O_2   0.149671 0.700978 0.516966 -0.520769
C19   C     C_R   0.236555 0.536215 0.395736 0.072386
C20   C     C_R   0.764098 0.457245 0.400275 0.126250
C21   C     C_R   0.237066 0.460906 0.607696 0.072243
C22   C     C_R   0.762415 0.542653 0.607671 0.074432
C23   C     C_R   0.296111 0.538605 0.395076 -0.003893
C24   C     C_R   0.704831 0.455686 0.397573 -0.014282
C25   C     C_R   0.296604 0.458984 0.606764 -0.003363
C26   C     C_R   0.702879 0.545724 0.604654 0.016234
C27   C     C_R   0.326354 0.499093 0.500595 -0.101918
C28   C     C_R   0.673666 0.500729 0.500071 -0.134645
C29   C     C_R   0.207705 0.498519 0.502148 0.273965
C30   C     C_R   0.792423 0.499542 0.505206 0.249118
C31   C     C_1   0.500035 0.161071 0.499909 -0.181596
C32   C     C_1   0.500026 0.838931 0.500086 -0.180827
C33   C     C_1   0.500043 0.059133 0.499950 0.007345
C34   C     C_1   0.500039 0.940869 0.500043 0.007560
N3    N     N_1   0.500000 0.500000 0.180630 -0.080332
N4    N     N_1   0.500000 0.500000 0.819370 -0.075932
C35   C     C_1   0.500001 0.499999 0.069670 0.030940
C36   C     C_1   0.500001 0.499999 0.930330 0.038758
O13   O     O_3   0.941248 0.182378 0.494593 -0.608396
C37   C     C_3   0.950044 0.130431 0.376487 0.114171
H1    H     H_    0.946065 0.035263 0.388667 0.184121
H2    H     H_    0.993160 0.146037 0.337068 0.137295
C38   C     C_3   0.904836 0.170233 0.283593 -0.323588
H3    H     H_    0.861972 0.150252 0.321160 0.264872
H4    H     H_    0.908151 0.265379 0.269616 0.217587
C39   C     C_3   0.912094 0.109751 0.158144 -0.973840
H5    H     H_    0.954339 0.130152 0.117634 0.264307
H6    H     H_    0.878769 0.140074 0.092871 0.275093
H7    H     H_    0.908051 0.014401 0.169211 0.276900
O14   O     O_3   0.058821 0.815706 0.489276 -0.607473
C40   C     C_3   0.049350 0.867186 0.371320 0.116213
H8    H     H_    0.053674 0.962372 0.382981 0.182856
H9    H     H_    0.005918 0.851893 0.333740 0.137694
C41   C     C_3   0.093794 0.826440 0.276753 -0.322893
H10   H     H_    0.136972 0.846264 0.312385 0.264438
H11   H     H_    0.090197 0.731238 0.263429 0.217538
C42   C     C_3   0.085731 0.886249 0.151298 -0.978725
H12   H     H_    0.043156 0.865965 0.112669 0.265074
H13   H     H_    0.118510 0.855271 0.084801 0.274036
H14   H     H_    0.090042 0.981627 0.161675 0.277068
O15   O     O_3   0.941696 0.815939 0.521192 -0.608996
C43   C     C_3   0.950897 0.866964 0.639537 0.113975
H15   H     H_    0.946879 0.962227 0.628294 0.183212
H16   H     H_    0.994164 0.851053 0.677752 0.137075
C44   C     C_3   0.905991 0.826452 0.733094 -0.322962
H17   H     H_    0.863005 0.846674 0.696636 0.263529
H18   H     H_    0.909346 0.731205 0.746196 0.217734
C45   C     C_3   0.913650 0.886015 0.858888 -0.975348
H19   H     H_    0.956028 0.865342 0.898285 0.264478
H20   H     H_    0.880544 0.855193 0.924638 0.274378
H21   H     H_    0.909558 0.981440 0.848722 0.276975
O16   O     O_3   0.058569 0.182227 0.522581 -0.608003
C46   C     C_3   0.049831 0.131356 0.641156 0.115997
H22   H     H_    0.054038 0.036103 0.629880 0.182301
H23   H     H_    0.006642 0.146924 0.680230 0.137699
C47   C     C_3   0.094897 0.172494 0.733801 -0.323580
H24   H     H_    0.137833 0.152515 0.696598 0.264197
H25   H     H_    0.091393 0.267753 0.746791 0.217542
C48   C     C_3   0.087674 0.113221 0.859839 -0.977712
H26   H     H_    0.045359 0.133663 0.899996 0.265234
H27   H     H_    0.120888 0.144487 0.924912 0.274090
H28   H     H_    0.091924 0.017800 0.849765 0.276681
N5    N     N_3   0.204404 0.571833 0.289043 -0.460754
H29   H     H_    0.215856 0.520081 0.213228 0.180961
H30   H     H_    0.214164 0.658085 0.268670 0.194486
N6    N     N_3   0.796441 0.416167 0.295948 -0.455470
H31   H     H_    0.784929 0.464306 0.217551 0.195865
H32   H     H_    0.785804 0.329478 0.279986 0.214892
N7    N     N_3   0.205441 0.425108 0.715286 -0.460987
H33   H     H_    0.217121 0.476985 0.790760 0.180899
H34   H     H_    0.215426 0.338933 0.735441 0.194447
N8    N     N_3   0.793343 0.582830 0.714301 -0.458332
H35   H     H_    0.780846 0.534635 0.791937 0.181755
H36   H     H_    0.783551 0.669969 0.729742 0.195543
N9    N     N_3   0.325958 0.583196 0.288772 -0.424623
H37   H     H_    0.313495 0.668971 0.273900 0.186551
H38   H     H_    0.315285 0.533833 0.210667 0.186949
N10   N     N_3   0.677795 0.405403 0.290756 -0.463784
H39   H     H_    0.649619 0.340849 0.319807 0.206037
H40   H     H_    0.656184 0.469989 0.241936 0.218833
N11   N     N_3   0.326938 0.414312 0.712184 -0.424754
H41   H     H_    0.316498 0.463381 0.790722 0.186816
H42   H     H_    0.314694 0.328397 0.727086 0.186498
N12   N     N_3   0.671983 0.596772 0.706154 -0.424011
H43   H     H_    0.681618 0.552058 0.787992 0.187585
H44   H     H_    0.684517 0.683161 0.715897 0.185636

loop_
_geom_bond_atom_site_label_1
_geom_bond_atom_site_label_2
_geom_bond_distance
_ccdc_geom_bond_type
O13   C37   1.418127 S    
C42   H13   1.110358 S    
C42   H12   1.111100 S    
C19   C23   1.403569 A    
C48   H26   1.111101 S    
C45   H21   1.111065 S    
O3    C2    1.261956 A    
N10   H39   1.045490 S    
C48   H28   1.111068 S    
C31   C33   1.176554 T    
O15   C43   1.417965 S    
N8    H35   1.044936 S    
O5    C3    1.276216 A    
N7    H34   1.044962 S    
C2    C32   1.385697 S    
C21   C25   1.403065 A    
O1    C1    1.261889 A    
C11   C17   1.412599 A    
C16   C17   1.406925 A    
C45   H20   1.110360 S    
C22   C26   1.403675 A    
N11   H42   1.045099 S    
Zn2   N3    1.960400 S    
C43   H16   1.114890 S    
C37   H1    1.110224 S    
C20   N6    1.434900 S    
O7    Zn1   2.009376 S    
C39   H6    1.110347 S    
C5    N1    1.363244 A    
C24   N10   1.435684 S    
N9    H37   1.045092 S    
N12   H44   1.045139 S    
C20   C30   1.398714 A    
C41   H10   1.111333 S    
C46   H23   1.114795 S    
N2    C29   1.426723 S    
O3    Zn1   1.946395 S    
O6    C4    1.275822 A    
C5    C11   1.402166 A    
O14   C40   1.418103 S    
C9    C15   1.412813 A    
C38   H3    1.111344 S    
C6    C12   1.402282 A    
C10   C16   1.413056 A    
C15   C18   1.407096 A    
O4    Zn2   1.946396 S    
C25   C27   1.416114 A    
O2    C2    1.261882 A    
C26   C28   1.416964 A    
C19   N5    1.435375 S    
C44   H18   1.111226 S    
N4    C36   1.192254 T    
C44   H17   1.111345 S    
C37   H2    1.114809 S    
C3    C27   1.471566 S    
N1    C30   1.427492 S    
C38   H4    1.111218 S    
C40   H8    1.110365 S    
C20   C24   1.396929 A    
C45   H19   1.111106 S    
N9    H38   1.045059 S    
O8    Zn2   2.009379 S    
C43   H15   1.110272 S    
C23   C27   1.415731 A    
C13   C14   1.407234 A    
C35   C36   1.497189 S    
C47   C48   1.526945 S    
C7    C9    1.402403 A    
N3    C35   1.192247 T    
C16   O14   1.388420 S    
C21   N7    1.435448 S    
C39   H5    1.111110 S    
Zn1   N4    1.960399 S    
C1    C31   1.385683 S    
N5    H29   1.044949 S    
C24   C28   1.421021 A    
C6    N2    1.362830 A    
C41   C42   1.526987 S    
C47   H25   1.111252 S    
C7    O11   1.349566 S    
C46   C47   1.531811 S    
N6    H32   1.045577 S    
C32   C34   1.176557 T    
C8    O12   1.349571 S    
N5    H30   1.044972 S    
C42   H14   1.111066 S    
O1    Zn1   1.945914 S    
C18   O16   1.388365 S    
C19   C29   1.398958 A    
C44   C45   1.526949 S    
N12   H43   1.045136 S    
C40   H9    1.114730 S    
C9    C13   1.415459 A    
C38   C39   1.526942 S    
O6    Zn2   2.010444 S    
C39   H7    1.111072 S    
C8    C10   1.402313 A    
C12   C14   1.415678 A    
O4    C1    1.261941 A    
N10   H40   1.044720 S    
C48   H27   1.110343 S    
C5    O9    1.349649 S    
C6    O10   1.349588 S    
N7    H33   1.044949 S    
C15   O13   1.388329 S    
C37   C38   1.531567 S    
C40   C41   1.531836 S    
C4    C28   1.471816 S    
N11   H41   1.045060 S    
C43   C44   1.531740 S    
C26   N12   1.436439 S    
C23   N9    1.436164 S    
C47   H24   1.111365 S    
C7    N1    1.363171 A    
N8    H36   1.044952 S    
C8    N2    1.362826 A    
C11   C13   1.415282 A    
C22   N8    1.435452 S    
N6    H31   1.045530 S    
O2    Zn2   1.945913 S    
O7    C4    1.277420 A    
C12   C18   1.412939 A    
C22   C30   1.398800 A    
O8    C3    1.276807 A    
O5    Zn1   2.010447 S    
C17   O15   1.388205 S    
O16   C46   1.417960 S    
C33   C34   1.364982 S    
C10   C14   1.415847 A    
C41   H11   1.111252 S    
C25   N11   1.436282 S    
C46   H22   1.110391 S    
C21   C29   1.398641 A    
