data_mof_unit_45547.cif
_audit_creation_date              2012-12-11T14:01:40-0500
_audit_creation_method            fapswitch 2.2
_symmetry_space_group_name_H-M    P1
_symmetry_Int_Tables_number       1
_space_group_crystal_system       triclinic
_cell_length_a                    18.920005
_cell_length_b                    11.100803
_cell_length_c                    18.830448
_cell_angle_alpha                 90.0
_cell_angle_beta                  90.975088
_cell_angle_gamma                 89.999978
_cell_volume                      3954.33446252

loop_
_atom_site_label
_atom_site_type_symbol
_atom_type_description
_atom_site_fract_x
_atom_site_fract_y
_atom_site_fract_z
_atom_type_partial_charge
C1    C     C_R   0.272439 0.042098 0.852931 0.568051
C2    C     C_R   0.007946 0.656912 0.964100 0.454428
C3    C     C_R   0.492054 0.156912 0.035899 0.454427
C4    C     C_R   0.507946 0.156912 0.964101 0.454428
C5    C     C_2   0.249504 0.573907 0.915541 0.391289
C6    C     C_2   0.750496 0.573906 0.084459 0.391290
C7    C     C_2   0.749504 0.073907 0.915541 0.391289
C8    C     C_2   0.250496 0.073906 0.084459 0.391290
C9    C     C_2   0.254876 0.598336 0.083914 -0.058587
C10   C     C_2   0.745124 0.598336 0.916086 -0.058588
C11   C     C_2   0.754876 0.098336 0.083914 -0.058587
C12   C     C_R   0.727561 0.042098 0.147069 0.568051
C13   C     C_2   0.245124 0.098336 0.916086 -0.058588
C14   C     C_2   0.289261 0.535810 0.034406 0.115630
C15   C     C_2   0.710739 0.535811 0.965594 0.115630
C16   C     C_2   0.789261 0.035810 0.034406 0.115630
C17   C     C_2   0.210739 0.035811 0.965594 0.115630
C18   C     C_2   0.299021 0.589341 0.965982 -0.079800
C19   C     C_2   0.700979 0.589341 0.034018 -0.079799
C20   C     C_2   0.799021 0.089341 0.965982 -0.079800
C21   C     C_2   0.200979 0.089341 0.034018 -0.079799
C22   C     C_2   0.497761 0.834872 0.577694 -0.095102
C23   C     C_R   0.772439 0.542099 0.852931 0.568051
C24   C     C_2   0.502240 0.834872 0.422306 -0.095102
C25   C     C_2   0.997761 0.334872 0.577694 -0.095101
C26   C     C_2   0.002240 0.334872 0.422306 -0.095101
C27   C     C_2   0.491188 0.736024 0.461844 0.179153
C28   C     C_2   0.508814 0.736024 0.538157 0.179151
C29   C     C_2   0.991188 0.236024 0.461844 0.179154
C30   C     C_2   0.008814 0.236025 0.538157 0.179151
C31   C     C_2   0.280314 0.694783 0.562799 0.323874
C32   C     C_2   0.719686 0.694783 0.437201 0.323875
C33   C     C_2   0.780314 0.194784 0.562799 0.323875
C34   C     C_R   0.227561 0.542098 0.147069 0.568051
C35   C     C_2   0.219686 0.194783 0.437201 0.323876
C36   C     C_2   0.253649 0.595528 0.418503 -0.043817
C37   C     C_2   0.746351 0.595527 0.581496 -0.043815
C38   C     C_2   0.753649 0.095528 0.418503 -0.043819
C39   C     C_2   0.246351 0.095527 0.581496 -0.043816
C40   C     C_R   0.472173 0.821314 0.853122 0.539101
C41   C     C_R   0.527827 0.821314 0.146877 0.539102
C42   C     C_R   0.972173 0.321314 0.853122 0.539101
C43   C     C_R   0.027827 0.321314 0.146877 0.539102
C44   C     C_2   0.234044 0.704495 0.441472 0.110561
C45   C     C_R   0.485140 0.048435 0.072110 -0.050068
C46   C     C_2   0.765955 0.704495 0.558528 0.110561
C47   C     C_2   0.734043 0.204495 0.441472 0.110561
C48   C     C_2   0.265956 0.204495 0.558528 0.110561
C49   C     C_2   0.225970 0.721475 0.517991 0.050922
C50   C     C_2   0.774029 0.721475 0.482009 0.050922
C51   C     C_2   0.725969 0.221474 0.517991 0.050923
C52   C     C_2   0.274030 0.221475 0.482009 0.050922
C53   C     C_R   0.260094 0.632898 0.848771 0.588650
C54   C     C_R   0.739906 0.632898 0.151229 0.588651
C55   C     C_R   0.760094 0.132898 0.848771 0.588650
C56   C     C_R   0.514860 0.048435 0.927890 -0.050067
C57   C     C_R   0.239906 0.132898 0.151229 0.588651
C58   C     C_R   0.270722 0.047580 0.649104 0.539104
C59   C     C_R   0.729278 0.047581 0.350896 0.539103
C60   C     C_R   0.770722 0.547580 0.649104 0.539104
C61   C     C_R   0.229278 0.547580 0.350896 0.539103
C62   C     C_R   0.471069 0.823776 0.648782 0.559907
C63   C     C_R   0.528931 0.823776 0.351218 0.559906
C64   C     C_R   0.971069 0.323776 0.648782 0.559908
C65   C     C_R   0.028931 0.323776 0.351218 0.559906
C66   C     C_R   0.276290 0.696453 0.640154 0.599940
C67   C     C_R   0.985140 0.548435 0.072110 -0.050068
C68   C     C_R   0.723709 0.696453 0.359846 0.599939
C69   C     C_R   0.776291 0.196453 0.640154 0.599940
C70   C     C_R   0.223709 0.196453 0.359846 0.599940
C71   C     C_R   0.496766 0.826677 0.074548 0.002447
C72   C     C_R   0.503234 0.826677 0.925452 0.002446
C73   C     C_R   0.996766 0.326677 0.074548 0.002447
C74   C     C_R   0.003234 0.326677 0.925452 0.002446
C75   C     C_R   0.495507 0.937350 0.037186 -0.055874
C76   C     C_R   0.504493 0.937350 0.962814 -0.055874
C77   C     C_R   0.995507 0.437350 0.037186 -0.055874
C78   C     C_R   0.014860 0.548435 0.927890 -0.050067
C79   C     C_R   0.004493 0.437350 0.962814 -0.055874
C80   C     C_R   0.506127 0.717226 0.963714 0.068983
C81   C     C_R   0.493873 0.717226 0.036286 0.068984
C82   C     C_R   0.006127 0.217226 0.963714 0.068984
C83   C     C_R   0.993873 0.217226 0.036286 0.068984
C84   C     C_R   0.992054 0.656912 0.035899 0.454428
Cr1   Cr    Cr6+3 0.230530 0.836340 0.748870 1.114464
Cr2   Cr    Cr6+3 0.614360 0.677860 0.250770 1.129993
Cr3   Cr    Cr6+3 0.885640 0.177860 0.749230 1.129993
Cr4   Cr    Cr6+3 0.114360 0.177860 0.250770 1.129993
Cr5   Cr    Cr6+3 0.769470 0.836340 0.251130 1.114463
Cr6   Cr    Cr6+3 0.730530 0.336340 0.748870 1.114464
Cr7   Cr    Cr6+3 0.269470 0.336340 0.251130 1.114464
Cr8   Cr    Cr6+3 0.387420 0.989430 0.750820 1.086266
Cr9   Cr    Cr6+3 0.612580 0.989430 0.249180 1.086266
Cr10  Cr    Cr6+3 0.887420 0.489430 0.750820 1.086266
Cr11  Cr    Cr6+3 0.112580 0.489430 0.249180 1.086266
Cr12  Cr    Cr6+3 0.385640 0.677860 0.749230 1.129993
F1    F     F_    0.344885 0.670256 0.535814 -0.650142
F2    F     F_    0.812803 0.517469 0.071184 -0.643937
F3    F     F_    0.687197 0.017470 0.928816 -0.643937
F4    F     F_    0.312803 0.017469 0.071184 -0.643937
F5    F     F_    0.655115 0.670253 0.464186 -0.650141
F6    F     F_    0.844885 0.170259 0.535813 -0.650143
F7    F     F_    0.155115 0.170255 0.464186 -0.650142
F8    F     F_    0.984703 0.762125 0.071242 -0.551587
F9    F     F_    0.015297 0.762125 0.928758 -0.551587
F10   F     F_    0.484703 0.262125 0.071242 -0.551587
F11   F     F_    0.515297 0.262125 0.928758 -0.551587
F12   F     F_    0.187196 0.517470 0.928816 -0.643937
H1    H     H_    0.275472 0.529642 0.455580 0.155227
H2    H     H_    0.653340 0.641597 0.043051 0.107364
H3    H     H_    0.846661 0.141596 0.956948 0.107365
H4    H     H_    0.153340 0.141597 0.043051 0.107364
H5    H     H_    0.239558 0.690813 0.073732 0.134561
H6    H     H_    0.760442 0.690814 0.926268 0.134560
H7    H     H_    0.739558 0.190813 0.073732 0.134561
H8    H     H_    0.260441 0.190814 0.926268 0.134560
H9    H     H_    0.514780 0.920808 0.446669 0.093981
H10   H     H_    0.485221 0.920808 0.553332 0.093982
H11   H     H_    0.014780 0.420808 0.446669 0.093981
H12   H     H_    0.724529 0.529640 0.544420 0.155226
H13   H     H_    0.985221 0.420808 0.553332 0.093982
H14   H     H_    0.775473 0.029643 0.455579 0.155228
H15   H     H_    0.224529 0.029641 0.544420 0.155226
H16   H     H_    0.470072 0.052385 0.127213 0.183880
H17   H     H_    0.529928 0.052385 0.872787 0.183880
H18   H     H_    0.970072 0.552385 0.127213 0.183880
H19   H     H_    0.029928 0.552385 0.872787 0.183880
H20   H     H_    0.346661 0.641595 0.956948 0.107365
I1    I     I_    0.533180 0.548994 0.913920 -0.106907
I2    I     I_    0.881017 0.754729 0.453104 -0.193940
I3    I     I_    0.618981 0.254721 0.546897 -0.193939
I4    I     I_    0.381018 0.254727 0.453104 -0.193940
I5    I     I_    0.316352 0.351944 0.035538 -0.147936
I6    I     I_    0.683648 0.351945 0.964462 -0.147933
I7    I     I_    0.816352 0.851944 0.035538 -0.147935
I8    I     I_    0.183648 0.851945 0.964462 -0.147933
I9    I     I_    0.449240 0.572821 0.416776 -0.084085
I10   I     I_    0.550761 0.572821 0.583224 -0.084087
I11   I     I_    0.949241 0.072821 0.416777 -0.084086
I12   I     I_    0.466821 0.548994 0.086080 -0.106907
I13   I     I_    0.050761 0.072822 0.583225 -0.084089
I14   I     I_    0.033180 0.048994 0.913920 -0.106907
I15   I     I_    0.966821 0.048994 0.086080 -0.106907
I16   I     I_    0.198503 0.843625 0.371709 -0.182331
I17   I     I_    0.801494 0.843626 0.628292 -0.182337
I18   I     I_    0.698500 0.343625 0.371710 -0.182328
I19   I     I_    0.301495 0.343625 0.628291 -0.182334
I20   I     I_    0.118982 0.754726 0.546897 -0.193939
O1    O     O_R   0.215090 0.709860 0.828130 -0.458639
O2    O     O_R   0.543740 0.718170 0.330000 -0.460226
O3    O     O_R   0.956260 0.218170 0.670000 -0.460226
O4    O     O_R   0.043740 0.218170 0.330000 -0.460226
O5    O     O_R   0.320940 0.626760 0.674370 -0.432145
O6    O     O_R   0.679060 0.626760 0.325630 -0.432145
O7    O     O_R   0.820940 0.126760 0.674370 -0.432146
O8    O     O_R   0.179060 0.126760 0.325630 -0.432145
O9    O     O_3   0.334530 0.834540 0.749640 -0.325191
O10   O     O_3   0.665470 0.834540 0.250360 -0.325192
O11   O     O_3   0.834530 0.334540 0.749640 -0.325191
O12   O     O_R   0.784910 0.709860 0.171870 -0.458639
O13   O     O_3   0.165470 0.334540 0.250360 -0.325192
O14   O     O_R   0.236990 0.958390 0.823710 -0.472840
O15   O     O_R   0.763010 0.958390 0.176290 -0.472839
O16   O     O_R   0.736990 0.458390 0.823710 -0.472840
O17   O     O_R   0.263010 0.458390 0.176290 -0.472839
O18   O     O_R   0.332380 0.074750 0.830850 -0.487901
O19   O     O_R   0.667620 0.074750 0.169150 -0.487901
O20   O     O_R   0.832380 0.574750 0.830850 -0.487901
O21   O     O_R   0.167620 0.574750 0.169150 -0.487901
O22   O     O_R   0.445800 0.917770 0.825070 -0.513996
O23   O     O_R   0.715090 0.209860 0.828130 -0.458639
O24   O     O_R   0.554200 0.917770 0.174930 -0.513996
O25   O     O_R   0.945800 0.417770 0.825070 -0.513996
O26   O     O_R   0.054200 0.417770 0.174930 -0.513996
O27   O     O_R   0.456410 0.716580 0.829970 -0.482564
O28   O     O_R   0.543590 0.716580 0.170030 -0.482565
O29   O     O_R   0.956410 0.216580 0.829970 -0.482564
O30   O     O_R   0.043590 0.216580 0.170030 -0.482564
O31   O     O_R   0.321080 0.625290 0.822650 -0.524637
O32   O     O_R   0.678920 0.625290 0.177350 -0.524637
O33   O     O_R   0.821080 0.125290 0.822650 -0.524637
O34   O     O_R   0.284910 0.209860 0.171870 -0.458640
O35   O     O_R   0.178920 0.125290 0.177350 -0.524637
O36   O     O_R   0.214930 0.711450 0.668160 -0.509942
O37   O     O_R   0.785070 0.711450 0.331840 -0.509942
O38   O     O_R   0.714930 0.211450 0.668160 -0.509942
O39   O     O_R   0.285070 0.211450 0.331840 -0.509942
O40   O     O_R   0.236850 0.959870 0.675420 -0.512203
O41   O     O_R   0.763150 0.959870 0.324580 -0.512203
O42   O     O_R   0.736850 0.459870 0.675420 -0.512203
O43   O     O_R   0.263150 0.459870 0.324580 -0.512203
O44   O     O_R   0.332230 0.076350 0.670880 -0.474736
O45   O     O_R   0.445660 0.919250 0.676780 -0.498645
O46   O     O_R   0.667770 0.076350 0.329120 -0.474736
O47   O     O_R   0.832230 0.576350 0.670880 -0.474736
O48   O     O_R   0.167770 0.576350 0.329120 -0.474735
O49   O     O_R   0.554340 0.919250 0.323220 -0.498645
O50   O     O_R   0.945660 0.419250 0.676780 -0.498645
O51   O     O_R   0.054340 0.419250 0.323220 -0.498645
O52   O     O_R   0.456260 0.718170 0.670000 -0.460226

loop_
_geom_bond_atom_site_label_1
_geom_bond_atom_site_label_2
_ccdc_geom_bond_type
C44   C49   S    
C43   C73   S    
C31   C66   S    
C71   C75   A    
C43   O30   A    
Cr10  O11   S    
C56   C76   A    
Cr12  O27   S    
C64   O50   A    
C81   I12   S    
C14   C18   S    
C2    C84   A    
Cr9   O46   S    
C67   C77   A    
C24   C27   D    
C7    C55   S    
C72   C76   A    
C12   O19   A    
C40   O22   A    
Cr5   O10   S    
Cr9   O24   S    
C15   I6    S    
C32   C68   S    
C15   C19   S    
C6    C19   D    
C24   H9    S    
C69   O7    A    
C30   I13   S    
C7    F3    S    
C70   O8    A    
C6    F2    S    
C5    C53   S    
Cr11  O26   S    
C31   C49   D    
C35   F7    S    
C10   C15   D    
Cr2   O2    S    
C43   O26   A    
C46   I17   S    
C22   C62   S    
C42   O29   A    
Cr4   O13   S    
C48   I19   S    
C39   H15   S    
Cr12  O52   S    
Cr6   O11   S    
C75   C76   A    
C50   I2    S    
C18   H20   S    
C65   O51   A    
C35   C70   S    
Cr8   O22   S    
Cr6   O23   S    
C34   O17   A    
C11   H7    S    
C10   H6    S    
C33   C69   S    
C41   C71   S    
C27   C28   S    
Cr1   O40   S    
Cr12  O9    S    
C47   I18   S    
C67   C84   A    
C3    F10   S    
Cr3   O3    S    
C4    C56   A    
C53   O1    A    
Cr1   O14   S    
Cr4   O4    S    
C60   O47   A    
Cr1   O9    S    
C6    C54   S    
C78   H19   S    
C53   O31   A    
C55   O23   A    
C57   O34   A    
C4    F11   S    
C77   C79   A    
C59   O46   A    
C29   I11   S    
C41   O24   A    
C42   C74   S    
C64   O3    A    
C58   O40   A    
C33   F6    S    
C52   I4    S    
C28   I10   S    
C26   H11   S    
Cr8   O45   S    
C67   H18   S    
Cr10  O20   S    
C51   I3    S    
C78   C79   A    
Cr4   O35   S    
C47   C51   S    
C5    C18   D    
Cr6   O38   S    
C39   C58   S    
Cr7   O43   S    
C3    C45   A    
C17   C21   S    
C33   C51   D    
C38   C59   S    
C49   I20   S    
Cr6   O16   S    
Cr8   O9    S    
Cr10  O50   S    
C25   C64   S    
Cr9   O49   S    
C9    C14   D    
C63   O2    A    
C29   C30   S    
C2    C78   A    
Cr8   O18   S    
C8    C57   S    
Cr3   O29   S    
C20   H3    S    
Cr11  O21   S    
C11   C16   D    
C66   O36   A    
Cr12  O5    S    
C16   C20   S    
C82   I14   S    
C17   I8    S    
Cr2   O32   S    
C8    C21   D    
C55   O33   A    
C27   I9    S    
C56   H17   S    
Cr2   O10   S    
C61   O48   A    
C32   C50   D    
C38   C47   D    
C38   H14   S    
C34   O21   A    
C70   O39   A    
Cr11  O51   S    
C41   O28   A    
C68   O37   A    
C7    C20   D    
C24   C63   S    
C74   C79   A    
C58   O44   A    
C9    C34   S    
C84   F8    S    
Cr3   O7    S    
C36   C44   D    
C1    C13   S    
C37   C60   S    
C3    C4    A    
Cr4   O8    S    
C57   O35   A    
C21   H4    S    
Cr5   O12   S    
C23   O16   A    
Cr6   O42   S    
C19   H2    S    
C25   C30   D    
C22   H10   S    
Cr7   O39   S    
Cr5   O41   S    
C80   I1    S    
Cr11  O48   S    
C26   C65   S    
Cr5   O37   S    
Cr7   O17   S    
C80   C81   A    
C42   O25   A    
Cr3   O33   S    
C40   O27   A    
Cr10  O47   S    
Cr4   O30   S    
C36   C61   S    
C14   I5    S    
C10   C23   S    
Cr1   O36   S    
C66   O5    A    
C46   C50   S    
C2    F9    S    
C68   O6    A    
C13   C17   D    
C45   C75   A    
C9    H5    S    
C65   O4    A    
Cr11  O13   S    
C8    F4    S    
C62   O52   A    
C72   C80   A    
C12   O15   A    
C83   I15   S    
C35   C52   D    
C45   H16   S    
C37   H12   S    
C1    O18   A    
Cr3   O11   S    
C54   O32   A    
Cr5   O15   S    
Cr2   O28   S    
C31   F1    S    
Cr12  O31   S    
Cr2   O6    S    
Cr9   O10   S    
Cr1   O1    S    
C13   H8    S    
C59   O41   A    
C1    O14   A    
Cr10  O25   S    
C54   O12   A    
C23   O20   A    
C63   O49   A    
C48   C52   S    
C40   C72   S    
Cr9   O19   S    
C26   C29   D    
C60   O42   A    
C82   C83   A    
Cr7   O34   S    
C36   H1    S    
C61   O43   A    
C73   C77   A    
C32   F5    S    
Cr7   O13   S    
C22   C28   D    
C44   I16   S    
C62   O45   A    
C37   C46   D    
C16   I7    S    
C25   H13   S    
C69   O38   A    
C73   C83   A    
C74   C82   A    
Cr8   O44   S    
C11   C12   S    
C39   C48   D    
C71   C81   A    
C5    F12   S    
