data_mof_unit_59578.cif
_audit_creation_date              2012-10-26T19:44:27-0400
_audit_creation_method            fapswitch 2.2
_symmetry_space_group_name_H-M    P1
_symmetry_Int_Tables_number       1
_space_group_crystal_system       triclinic
_cell_length_a                    10.901294
_cell_length_b                    11.718448
_cell_length_c                    10.443935
_cell_angle_alpha                 90.604652
_cell_angle_beta                  89.444599
_cell_angle_gamma                 90.475459
_cell_volume                      1333.99171157

loop_
_atom_site_label
_atom_site_type_symbol
_atom_type_description
_atom_site_fract_x
_atom_site_fract_y
_atom_site_fract_z
_atom_type_partial_charge
C1    C     C_R   0.500213 0.283287 0.499454 0.530970
C2    C     C_R   0.500430 0.716722 0.500166 0.659272
C3    C     C_1   0.501114 0.161950 0.498545 0.007882
C4    C     C_3   0.066748 0.408364 0.571900 -0.272284
C5    C     C_3   0.072275 0.515688 0.369970 -0.260373
C6    C     C_3   0.925853 0.419148 0.582723 -0.272757
C7    C     C_3   0.932324 0.502219 0.366653 -0.256787
C8    C     C_1   0.501879 0.059740 0.498850 -0.001081
C9    C     C_3   0.073585 0.627916 0.592760 0.382518
C10   C     C_3   0.927426 0.643921 0.558369 0.375701
C11   C     C_3   0.121383 0.517673 0.510288 -0.036132
C12   C     C_3   0.878140 0.521710 0.503404 -0.037466
C13   C     C_1   0.501991 0.838171 0.500349 0.106524
C14   C     C_1   0.502358 0.940357 0.499768 0.026007
C15   C     C_R   0.259149 0.506785 0.502244 0.584812
C16   C     C_R   0.740443 0.510211 0.500168 0.594222
C17   C     C_1   0.500035 0.500027 0.071989 0.141731
C18   C     C_1   0.500061 0.500025 0.928006 0.182052
Cu1   Cu    Cu3+1 0.500000 0.500000 0.625300 1.167512
Cu2   Cu    Cu3+1 0.500000 0.500000 0.374700 1.074718
H1    H     H_    0.107241 0.390014 0.666358 0.206890
H2    H     H_    0.248169 0.834043 0.390059 0.361586
H3    H     H_    0.842189 0.840800 0.827720 0.365147
H4    H     H_    0.963537 0.820139 0.256633 0.376160
H5    H     H_    0.103557 0.591202 0.316524 0.248368
H6    H     H_    0.894732 0.425617 0.683389 0.224604
H7    H     H_    0.893664 0.559472 0.293806 0.221717
H8    H     H_    0.089368 0.332586 0.511071 0.133665
H9    H     H_    0.111297 0.441786 0.315803 0.145358
H10   H     H_    0.884263 0.337974 0.546512 0.131591
H11   H     H_    0.908707 0.414389 0.332470 0.140546
H12   H     H_    0.083207 0.709641 0.942953 0.368397
N1    N     N_1   0.500000 0.499990 0.186410 -0.185422
N2    N     N_1   0.500000 0.499990 0.813590 -0.146300
O1    O     O_R   0.500000 0.337200 0.605810 -0.508978
O2    O     O_2   0.229817 0.574609 0.799661 -0.246324
O3    O     O_3   0.082538 0.730850 0.851380 -0.398057
O4    O     O_2   0.100039 0.862711 0.585016 -0.166925
O5    O     O_2   0.277564 0.756351 0.643170 -0.244085
O6    O     O_3   0.220016 0.754731 0.405321 -0.542860
O7    O     O_2   0.713784 0.733932 0.649547 -0.267897
O8    O     O_2   0.815102 0.611409 0.798809 -0.261510
O9    O     O_3   0.898831 0.817180 0.757766 -0.398546
O10   O     O_2   0.771809 0.727791 0.376107 -0.311213
O11   O     O_2   0.883294 0.870869 0.495562 -0.170214
O12   O     O_R   0.500000 0.337200 0.394190 -0.505613
O13   O     O_3   0.996789 0.762740 0.315663 -0.529580
O14   O     O_R   0.317690 0.499990 0.605810 -0.448140
O15   O     O_R   0.317690 0.499990 0.394190 -0.503293
O16   O     O_R   0.682310 0.499990 0.605810 -0.466904
O17   O     O_R   0.682310 0.499990 0.394190 -0.493236
O18   O     O_R   0.500000 0.662810 0.605810 -0.420503
O19   O     O_R   0.500000 0.662810 0.394190 -0.476572
O20   O     O_2   0.019988 0.519092 0.830168 -0.310055
S1    S     S_3+6 0.101032 0.607850 0.769856 0.091929
S2    S     S_3+6 0.168063 0.754384 0.557409 0.102698
S3    S     S_3+6 0.836293 0.697679 0.695587 0.119471
S4    S     S_3+6 0.893874 0.754048 0.435667 0.067058

loop_
_geom_bond_atom_site_label_1
_geom_bond_atom_site_label_2
_ccdc_geom_bond_type
Cu2   O15   S    
C2    O18   A    
C9    S2    S    
C18   N2    T    
C9    C10   S    
O20   S1    D    
O5    S2    D    
C16   O17   A    
H2    O6    S    
H4    O13   S    
O6    S2    S    
C17   C18   S    
C7    H7    S    
O2    S1    D    
Cu1   O1    S    
C13   C14   T    
C4    C11   S    
C4    H1    S    
C9    C11   S    
Cu1   O16   S    
C6    H6    S    
C17   N1    T    
C15   O14   A    
C9    S1    S    
Cu2   N1    S    
C10   C12   S    
O8    S3    D    
C10   S4    S    
C16   O16   A    
C5    C11   S    
Cu2   O17   S    
C5    H9    S    
C15   O15   A    
C6    C12   S    
C7    C12   S    
O11   S4    D    
C5    H5    S    
C1    O12   A    
C7    H11   S    
O9    S3    S    
O7    S3    D    
O3    S1    S    
C12   C16   S    
C10   S3    S    
O4    S2    D    
C1    O1    A    
C4    C6    S    
C3    C8    T    
C1    C3    S    
C5    C7    S    
C2    C13   S    
Cu1   O14   S    
C8    C14   S    
C4    H8    S    
H12   O3    S    
H3    O9    S    
C11   C15   S    
Cu1   O18   S    
C6    H10   S    
Cu2   O12   S    
Cu1   Cu2   S    
C2    O19   A    
O10   S4    D    
Cu2   O19   S    
O13   S4    S    
Cu1   N2    S    
