data_mof_unit_22129.cif
_audit_creation_date              2012-10-26T19:24:16-0400
_audit_creation_method            fapswitch 2.2
_symmetry_space_group_name_H-M    P1
_symmetry_Int_Tables_number       1
_space_group_crystal_system       triclinic
_cell_length_a                    27.822651
_cell_length_b                    10.860808
_cell_length_c                    9.590937
_cell_angle_alpha                 90.454847
_cell_angle_beta                  90.022493
_cell_angle_gamma                 93.890453
_cell_volume                      2891.38460623

loop_
_atom_site_label
_atom_site_type_symbol
_atom_type_description
_atom_site_fract_x
_atom_site_fract_y
_atom_site_fract_z
_atom_type_partial_charge
C1    C     C_R   0.503803 0.263366 0.500211 0.540056
C2    C     C_R   0.971313 0.386962 0.513161 0.021746
C3    C     C_R   0.977402 0.608036 0.453583 0.032290
C4    C     C_R   0.407449 0.499534 0.499977 0.572939
C5    C     C_R   0.949119 0.497749 0.483963 0.026467
C6    C     C_R   0.941543 0.277584 0.532494 -0.131517
C7    C     C_R   0.891628 0.278666 0.530657 -0.103226
C8    C     C_R   0.869474 0.388732 0.510035 0.027142
C9    C     C_R   0.898089 0.498596 0.486728 -0.026700
C10   C     C_R   0.875605 0.609487 0.467181 0.024261
C11   C     C_R   0.825123 0.608293 0.470154 0.408931
C12   C     C_R   0.277539 0.498895 0.620206 -0.007381
C13   C     C_R   0.819106 0.391540 0.511591 0.404557
C14   C     C_R   0.721766 0.485217 0.620749 -0.012333
C15   C     C_R   0.671634 0.485051 0.624044 0.347677
C16   C     C_R   0.497431 0.737475 0.501695 0.561152
C17   C     C_R   0.670919 0.516311 0.373503 -0.175724
C18   C     C_R   0.721018 0.516897 0.371122 -0.077443
C19   C     C_R   0.746560 0.501068 0.494584 0.179359
C20   C     C_R   0.022287 0.389153 0.522412 0.026066
C21   C     C_R   0.050486 0.496893 0.481918 -0.013449
C22   C     C_R   0.028186 0.604467 0.439420 0.021068
C23   C     C_R   0.253291 0.498309 0.492270 0.174683
C24   C     C_R   0.046202 0.287372 0.572261 -0.121928
C25   C     C_R   0.107695 0.701100 0.383084 -0.052499
C26   C     C_R   0.953838 0.718976 0.443859 -0.090170
C27   C     C_R   0.903919 0.719327 0.448681 -0.118948
C28   C     C_R   0.592525 0.499962 0.500151 0.588394
C29   C     C_R   0.057772 0.703134 0.381993 0.353388
C30   C     C_R   0.533256 0.125596 0.752470 -0.081485
C31   C     C_R   0.528578 0.067932 0.881382 -0.111983
C32   C     C_R   0.504870 0.951691 0.890262 -0.115664
C33   C     C_R   0.490361 0.888128 0.768904 -0.091655
C34   C     C_R   0.101537 0.496747 0.483310 -0.044747
C35   C     C_R   0.499851 0.940061 0.635434 0.025673
C36   C     C_R   0.514238 0.066775 0.629896 0.030502
C37   C     C_R   0.508295 0.129907 0.502611 -0.003919
C38   C     C_R   0.500004 0.062841 0.378815 -0.139007
C39   C     C_R   0.495930 0.935397 0.380628 -0.127837
C40   C     C_R   0.174740 0.395621 0.533833 0.410812
C41   C     C_R   0.495712 0.872158 0.507402 0.004772
C42   C     C_R   0.566706 0.671843 0.138854 0.385386
C43   C     C_R   0.597257 0.750926 0.061089 -0.102197
C44   C     C_R   0.596098 0.747311 0.918748 -0.199107
C45   C     C_R   0.124225 0.393158 0.531659 0.039023
C46   C     C_R   0.564128 0.664553 0.851783 -0.048672
C47   C     C_R   0.531765 0.581759 0.924387 0.083140
C48   C     C_R   0.532254 0.583139 0.074513 0.088766
C49   C     C_R   0.469910 0.421894 0.073101 0.469943
C50   C     C_R   0.469974 0.422068 0.925316 0.058446
C51   C     C_R   0.180427 0.598692 0.439846 0.412120
C52   C     C_R   0.279489 0.498200 0.367808 -0.068017
C53   C     C_R   0.329573 0.498657 0.371027 -0.177306
C54   C     C_R   0.327689 0.499372 0.624242 0.365465
C55   C     C_R   0.096158 0.289668 0.576941 -0.093324
C56   C     C_R   0.130009 0.600035 0.436039 -0.034779
C57   C     C_R   0.354333 0.499241 0.499058 0.007481
C58   C     C_R   0.645598 0.500447 0.499797 0.012929
Cu1   Cu    Cu3+1 0.500000 0.499990 0.640660 1.003005
Cu2   Cu    Cu3+1 0.500000 0.500010 0.359340 1.093397
F1    F     F_    0.349756 0.499984 0.750528 -0.611441
F2    F     F_    0.039438 0.797866 0.313025 -0.643732
F3    F     F_    0.438952 0.341448 0.140949 -0.613865
F4    F     F_    0.574373 0.690204 0.275058 -0.626499
F5    F     F_    0.648946 0.468532 0.748447 -0.628981
H1    H     H_    0.260952 0.497318 0.268465 0.165639
H2    H     H_    0.492049 0.886391 0.281994 0.146506
H3    H     H_    0.622556 0.816440 0.112889 0.165465
H4    H     H_    0.620110 0.809593 0.859334 0.149860
H5    H     H_    0.566517 0.671050 0.742200 0.208435
H6    H     H_    0.112712 0.209431 0.616346 0.176371
H7    H     H_    0.741499 0.473002 0.716447 0.155911
H8    H     H_    0.870432 0.192476 0.546286 0.173658
H9    H     H_    0.955762 0.188608 0.546084 0.118869
H10   H     H_    0.027254 0.205368 0.612361 0.120461
H11   H     H_    0.348845 0.498392 0.272954 0.186943
H12   H     H_    0.128865 0.778938 0.339572 0.200136
H13   H     H_    0.973146 0.808177 0.439104 0.202441
H14   H     H_    0.652086 0.528530 0.276280 0.177225
H15   H     H_    0.257379 0.499309 0.716760 0.162430
H16   H     H_    0.445352 0.358075 0.869273 0.172899
H17   H     H_    0.887625 0.806709 0.439319 0.169932
H18   H     H_    0.740041 0.528979 0.273181 0.155615
H19   H     H_    0.496547 0.108802 0.279812 0.164841
H20   H     H_    0.552650 0.215202 0.750108 0.168843
H21   H     H_    0.542050 0.115060 0.974834 0.126893
H22   H     H_    0.498578 0.909450 0.991095 0.117058
H23   H     H_    0.470166 0.800900 0.783149 0.165013
N1    N     N_R   0.201708 0.497606 0.488760 -0.392249
N2    N     N_R   0.798053 0.500269 0.491775 -0.396879
N3    N     N_R   0.500460 0.501210 0.147910 -0.237819
N4    N     N_R   0.500480 0.501290 0.852040 -0.290249
O1    O     O_R   0.500000 0.319640 0.618810 -0.526893
O2    O     O_R   0.569730 0.499970 0.618800 -0.473936
O3    O     O_R   0.569740 0.499990 0.381230 -0.452282
O4    O     O_2   0.196758 0.296526 0.579455 -0.474033
O5    O     O_2   0.791350 0.286463 0.532151 -0.481407
O6    O     O_2   0.207989 0.698020 0.396251 -0.474957
O7    O     O_2   0.803239 0.714245 0.452508 -0.479707
O8    O     O_R   0.500000 0.319660 0.381240 -0.462974
O9    O     O_R   0.430260 0.500010 0.618770 -0.439983
O10   O     O_R   0.430270 0.500030 0.381200 -0.473764
O11   O     O_R   0.500000 0.680340 0.618760 -0.561556
O12   O     O_R   0.500000 0.680360 0.381190 -0.438256

loop_
_geom_bond_atom_site_label_1
_geom_bond_atom_site_label_2
_ccdc_geom_bond_type
C10   C27   A    
C34   C56   A    
C8    C13   A    
C49   F3    S    
C22   C29   A    
C13   N2    A    
C47   N4    A    
C35   C36   A    
C25   C56   A    
C7    C8    A    
C7    H8    S    
C31   C32   A    
C24   C55   A    
C12   C23   A    
C26   C27   A    
C26   H13   S    
C28   O3    A    
C25   H12   S    
C11   O7    S    
C36   C37   A    
C33   H23   S    
C40   O4    S    
C18   C19   A    
C30   C31   A    
C15   F5    S    
C17   H14   S    
C28   O2    A    
C51   C56   A    
C29   F2    S    
C16   O12   A    
C20   C24   A    
C8    C9    A    
C48   N3    A    
C4    O10   A    
C4    C57   S    
C23   N1    S    
Cu1   O2    S    
C40   N1    A    
C9    C10   A    
C1    C37   S    
C17   C58   A    
C51   O6    S    
Cu1   Cu2   S    
C31   H21   S    
C21   C22   A    
C2    C6    A    
C39   H2    S    
C49   N3    A    
Cu2   O10   S    
C1    O8    A    
C44   C46   A    
C6    H9    S    
C27   H17   S    
C25   C29   A    
C40   C45   A    
C2    C20   A    
Cu1   O9    S    
C39   C41   A    
C53   C57   A    
C43   H3    S    
C21   C34   A    
Cu2   O8    S    
C32   H22   S    
C43   C44   A    
C5    C9    A    
C37   C38   A    
C16   O11   A    
C47   C48   A    
C4    O9    A    
C18   H18   S    
C44   H4    S    
C34   C45   A    
C42   C48   A    
C30   H20   S    
C50   N4    A    
C15   C58   A    
C53   H11   S    
C42   C43   A    
C42   F4    S    
C52   H1    S    
C52   C53   A    
Cu2   N3    S    
C46   C47   A    
C38   H19   S    
C14   H7    S    
C14   C19   A    
C3    C26   A    
C3    C5    A    
C24   H10   S    
C6    C7    A    
C54   F1    S    
C28   C58   S    
C17   C18   A    
C30   C36   A    
Cu1   O11   S    
C32   C33   A    
C19   N2    S    
C51   N1    A    
C11   N2    A    
C23   C52   A    
C38   C39   A    
C12   H15   S    
C33   C35   A    
Cu1   N4    S    
C13   O5    S    
C35   C41   A    
C12   C54   A    
C46   H5    S    
C10   C11   A    
C2    C5    A    
Cu2   O3    S    
C20   C21   A    
C45   C55   A    
C1    O1    A    
C49   C50   A    
C14   C15   A    
C3    C22   A    
Cu1   O1    S    
Cu2   O12   S    
C16   C41   S    
C55   H6    S    
C50   H16   S    
C54   C57   A    
