data_mof_unit_67469.cif
_audit_creation_date              2013-03-05T15:40:59-0500
_audit_creation_method            fapswitch 2.2
_symmetry_space_group_name_H-M    P1
_symmetry_Int_Tables_number       1
_space_group_crystal_system       triclinic
_cell_length_a                    10.93728
_cell_length_b                    8.812495
_cell_length_c                    7.577352
_cell_angle_alpha                 103.685618
_cell_angle_beta                  95.346502
_cell_angle_gamma                 93.463457
_cell_volume                      703.947056955

loop_
_atom_site_label
_atom_site_type_symbol
_atom_site_description
_atom_site_fract_x
_atom_site_fract_y
_atom_site_fract_z
_atom_type_partial_charge
O1    O     O_R   0.509140 0.286130 0.619770 -0.586763
O2    O     O_R   0.485380 0.256770 0.308360 -0.616587
C1    C     C_R   0.484446 0.200122 0.453721 0.848846
O3    O     O_R   0.329570 0.514650 0.655700 -0.584844
O4    O     O_R   0.305810 0.485300 0.344290 -0.614699
C2    C     C_R   0.260885 0.490688 0.498296 0.773315
Cu1   Cu    Cu3+1 0.514070 0.517380 0.684380 0.921805
Cu2   Cu    Cu3+1 0.485930 0.482620 0.315620 0.899246
O5    O     O_R   0.514620 0.743230 0.691640 -0.587087
O6    O     O_R   0.490860 0.713870 0.380230 -0.605800
O7    O     O_R   0.694190 0.514700 0.655710 -0.590003
O8    O     O_R   0.670430 0.485350 0.344300 -0.598036
C3    C     C_R   0.499397 0.799799 0.547174 0.863202
C4    C     C_R   0.739361 0.485636 0.496312 0.850835
C5    C     C_3   0.082154 0.465974 0.686271 -0.008592
H1    H     H_    0.118640 0.362895 0.724935 0.118123
C6    C     C_3   0.938912 0.431988 0.666204 -0.564763
H2    H     H_    0.913705 0.308475 0.664562 0.178123
H3    H     H_    0.901910 0.503201 0.786346 0.190382
H4    H     H_    0.129618 0.724812 0.494860 0.174882
H5    H     H_    0.956717 0.698981 0.636434 0.205310
C7    C     C_3   0.071454 0.615392 0.432528 -0.476541
C8    C     C_3   0.064730 0.313264 0.339331 0.179712
C9    C     C_3   0.123351 0.471753 0.490001 -0.020246
C10   C     C_3   0.878584 0.466736 0.487096 -0.005457
C11   C     C_3   0.942141 0.632521 0.491598 0.049418
C12   C     C_3   0.915151 0.329370 0.314808 0.388753
H6    H     H_    0.069801 0.603056 0.283810 0.149458
C13   C     C_2   0.472717 0.031217 0.430204 -0.378270
H7    H     H_    0.447987 0.958451 0.293123 0.163765
C14   C     C_2   0.497266 0.968147 0.573104 -0.385501
H8    H     H_    0.520269 0.041153 0.710922 0.179552
N1    N     N_2   0.464720 0.456420 0.038520 -0.238499
H9    H     H_    0.412918 0.364385 0.947812 0.201649
N2    N     N_2   0.535280 0.543580 0.961480 -0.082138
C15   C     C_3   0.134556 0.597633 0.863209 -0.314590
C16   C     C_3   0.179131 0.762538 0.850129 -0.811763
H10   H     H_    0.246435 0.763616 0.750689 0.260022
H11   H     H_    0.101926 0.832222 0.824434 0.226895
H12   H     H_    0.229784 0.824268 0.983503 0.225501
H13   H     H_    0.067383 0.612197 0.965639 0.161378
H14   H     H_    0.215241 0.554259 0.931047 0.211324
C17   C     C_3   0.868059 0.376235 0.129519 -0.337281
C18   C     C_3   0.778705 0.259428 0.982175 -0.805967
H15   H     H_    0.807273 0.138504 0.951250 0.239909
H16   H     H_    0.682783 0.259637 0.016749 0.262807
H17   H     H_    0.772676 0.298296 0.853770 0.235632
H18   H     H_    0.821009 0.483489 0.157542 0.220643
H19   H     H_    0.943198 0.418456 0.063144 0.161948
N3    N     N_2   0.869651 0.725907 0.394549 -0.452328
H20   H     H_    0.905507 0.752536 0.283789 0.257059
C19   C     C_3   0.815123 0.854166 0.509203 -0.724703
H21   H     H_    0.724980 0.868078 0.442207 0.239812
H22   H     H_    0.877245 0.963150 0.537263 0.251019
H23   H     H_    0.795871 0.829906 0.641080 0.208470
C20   C     C_3   0.602104 0.687879 0.070862 -0.002805
C21   C     C_3   0.718102 0.734839 0.992494 -0.886700
H24   H     H_    0.778068 0.637765 0.968495 0.243864
H25   H     H_    0.698587 0.776660 0.868780 0.279328
H26   H     H_    0.772004 0.834194 0.090395 0.193004
H27   H     H_    0.540690 0.784442 0.084562 0.148288
H28   H     H_    0.639372 0.673777 0.202077 0.237162
C22   C     C_3   0.125390 0.287521 0.150823 -0.279096
C23   C     C_3   0.068150 0.161815 0.979822 -0.910850
H29   H     H_    0.014311 0.063118 0.008651 0.263887
H30   H     H_    0.009228 0.212050 0.886633 0.247476
H31   H     H_    0.142817 0.113503 0.898921 0.227346
H32   H     H_    0.138109 0.398089 0.108210 0.170452
H33   H     H_    0.220049 0.252582 0.173750 0.229213
C24   C     C_3   0.104068 0.170379 0.426228 -0.360587
C25   C     C_3   0.124194 0.009204 0.306897 -0.844538
H34   H     H_    0.038579 0.944322 0.230825 0.241291
H35   H     H_    0.195723 0.017173 0.215381 0.253897
H36   H     H_    0.161419 0.937722 0.397834 0.230274
H37   H     H_    0.195739 0.204666 0.507259 0.165151
H38   H     H_    0.040296 0.147495 0.523550 0.205443
N4    N     N_2   0.860110 0.172840 0.311465 -0.436089
H39   H     H_    0.883791 0.084757 0.209097 0.277319
C26   C     C_3   0.735556 0.146856 0.344695 -0.737728
H40   H     H_    0.698139 0.026230 0.278346 0.215786
H41   H     H_    0.680201 0.215317 0.274900 0.287735
H42   H     H_    0.728590 0.173353 0.493666 0.233138

loop_
_geom_bond_atom_site_label_1
_geom_bond_atom_site_label_2
_geom_bond_distance
_ccdc_geom_bond_type
H5    C11   1.106729 S    
C15   H14   1.112781 S    
C26   H42   1.108139 S    
Cu1   Cu2   2.723889 S    
N4    H39   1.023775 S    
C19   H21   1.093420 S    
Cu1   O7    2.002922 S    
C16   H10   1.102548 S    
C15   C16   1.533270 S    
C16   H12   1.106034 S    
C11   N3    1.450228 S    
O4    C2    1.299595 A    
O7    C4    1.322354 A    
C21   H25   1.093551 S    
C5    H1    1.103709 S    
C20   C21   1.525368 S    
Cu1   O5    1.977637 S    
C1    C13   1.452901 S    
O5    C3    1.307219 A    
N1    N2    1.323189 D    
C22   H33   1.107780 S    
C19   H22   1.107634 S    
N3    C19   1.449603 S    
C8    C9    1.632816 S    
C24   C25   1.533169 S    
C8    C12   1.647730 S    
C17   H18   1.089689 S    
C18   H17   1.103090 S    
C8    C22   1.604178 S    
C7    H6    1.104547 S    
C13   C14   1.342426 D    
C8    C24   1.615289 S    
C15   H13   1.108686 S    
O3    Cu1   2.007430 S    
C18   H16   1.104780 S    
N1    H9    1.029255 S    
N4    C26   1.423082 S    
C23   H31   1.111655 S    
O3    C2    1.313834 A    
C26   H41   1.070362 S    
C17   H19   1.093355 S    
C21   H26   1.101487 S    
N3    H20   1.027932 S    
C10   C11   1.571033 S    
C22   C23   1.543977 S    
O1    C1    1.300460 A    
C23   H30   1.098864 S    
C17   C18   1.546770 S    
C13   H7    1.083874 S    
O4    Cu2   2.002922 S    
C14   H8    1.086887 S    
Cu2   O8    2.007429 S    
C2    C9    1.497208 S    
C6    H2    1.103448 S    
C5    C9    1.604796 S    
O8    C4    1.315948 A    
C24   H38   1.104631 S    
C7    C9    1.554257 S    
C5    C15   1.585113 S    
C18   H15   1.106272 S    
C25   H35   1.102432 S    
C5    C6    1.563538 S    
C22   H32   1.101776 S    
N2    C20   1.454055 S    
O1    Cu1   1.976180 S    
Cu1   N2    2.046743 S    
C3    C14   1.451629 S    
O2    Cu2   1.977637 S    
H4    C7    1.100890 S    
C12   N4    1.464971 S    
O6    C3    1.303275 A    
C25   H36   1.105207 S    
C19   H23   1.106111 S    
C10   C12   1.654582 S    
C6    C10   1.557304 S    
C23   H29   1.096799 S    
O2    C1    1.313082 A    
C25   H34   1.102180 S    
C16   H11   1.103021 S    
C21   H24   1.100660 S    
C6    H3    1.102446 S    
C20   H28   1.076667 S    
Cu2   N1    2.046743 S    
C4    C10   1.547980 S    
C26   H40   1.098384 S    
C12   C17   1.603863 S    
Cu2   O6    1.976180 S    
C7    C11   1.528161 S    
C24   H37   1.111059 S    
C20   H27   1.107409 S    
