data_mof_unit_62341.cif
_audit_creation_date              2013-03-05T15:41:20-0500
_audit_creation_method            fapswitch 2.2
_symmetry_space_group_name_H-M    P1
_symmetry_Int_Tables_number       1
_space_group_crystal_system       triclinic
_cell_length_a                    18.82347
_cell_length_b                    18.687882
_cell_length_c                    18.821088
_cell_angle_alpha                 109.17422
_cell_angle_beta                  110.083105
_cell_angle_gamma                 109.177211
_cell_volume                      5094.99046061

loop_
_atom_site_label
_atom_site_type_symbol
_atom_site_description
_atom_site_fract_x
_atom_site_fract_y
_atom_site_fract_z
_atom_type_partial_charge
O1    O     O_R   0.591160 0.539400 0.449620 -0.584819
O2    O     O_R   0.589730 0.641530 0.550350 -0.608413
C1    C     C_R   0.615488 0.619407 0.496599 0.995650
O3    O     O_R   0.408980 0.448930 0.357910 -0.568489
O4    O     O_R   0.407550 0.551060 0.458650 -0.609408
C2    C     C_R   0.380428 0.500041 0.379660 0.961567
Zn1   Zn    Zn3+2 0.500950 0.431810 0.432740 1.163089
Zn2   Zn    Zn3+2 0.499050 0.568190 0.567260 1.107841
O5    O     O_R   0.410270 0.358470 0.449650 -0.616090
O6    O     O_R   0.408840 0.460600 0.550380 -0.572438
O7    O     O_R   0.592450 0.448940 0.541350 -0.576394
O8    O     O_R   0.591020 0.551070 0.642090 -0.613836
C3    C     C_R   0.386823 0.380780 0.505201 0.965141
C4    C     C_R   0.623826 0.502844 0.620806 0.872303
C5    C     C_3   0.325959 0.574070 0.292259 0.335081
C6    C     C_3   0.241236 0.566242 0.289517 -0.190666
C7    C     C_3   0.192916 0.498994 0.192153 -0.116393
C8    C     C_3   0.278080 0.509005 0.194137 -0.248076
C9    C     C_3   0.265078 0.434563 0.215175 0.293164
C10   C     C_3   0.178607 0.422585 0.210386 -0.169573
C11   C     C_3   0.228922 0.489898 0.309199 -0.229908
C12   C     C_3   0.314721 0.499882 0.312524 -0.192732
H1    H     H_    0.297019 0.516652 0.146221 0.207863
H2    H     H_    0.116565 0.359869 0.174470 0.202124
C13   C     C_2   0.737303 0.743540 0.413933 0.258770
C14   C     C_2   0.816349 0.800373 0.486649 -0.494154
C15   C     C_2   0.673647 0.672017 0.413914 0.268068
C16   C     C_2   0.670937 0.686724 0.487793 -0.431991
C17   C     C_2   0.822929 0.584139 0.834289 0.371114
C18   C     C_2   0.817932 0.509717 0.831875 -0.348848
C19   C     C_2   0.746923 0.577324 0.768233 -0.303936
C20   C     C_2   0.703338 0.513803 0.684332 0.095284
C21   C     C_2   0.262706 0.249703 0.580736 -0.300041
C22   C     C_2   0.181136 0.200403 0.511369 0.101703
C23   C     C_2   0.330097 0.323288 0.586919 0.362376
C24   C     C_2   0.332852 0.312401 0.513727 -0.347904
O9    O     O_R   0.954670 0.539370 0.096190 -0.615448
O10   O     O_R   0.056790 0.641480 0.096140 -0.597008
C25   C     C_R   0.009947 0.618962 0.128925 0.955159
O11   O     O_R   0.047640 0.448900 0.098680 -0.626001
O12   O     O_R   0.149770 0.551010 0.098640 -0.612634
C26   C     C_R   0.126800 0.499628 0.126615 0.907378
Zn3   Zn    Zn3+2 0.938780 0.431770 0.006970 1.048147
Zn4   Zn    Zn3+2 0.075160 0.568130 0.006910 1.105143
O13   O     O_R   0.957150 0.358410 0.917750 -0.614606
O14   O     O_R   0.059270 0.460520 0.917700 -0.608635
O15   O     O_R   0.864170 0.448890 0.915250 -0.615352
O16   O     O_R   0.966300 0.551000 0.915200 -0.555501
C27   C     C_R   0.005424 0.380414 0.886774 0.929811
C28   C     C_R   0.886436 0.504536 0.891122 0.951578
O17   O     O_R   0.946940 0.090450 0.537440 -0.614172
O18   O     O_R   0.050520 0.090460 0.641000 -0.618488
C29   C     C_R   0.001027 0.121103 0.617987 0.906620
O19   O     O_R   0.857760 0.909540 0.448230 -0.570549
O20   O     O_R   0.961340 0.909540 0.551790 -0.617970
C30   C     C_R   0.881078 0.876903 0.496102 0.984101
Zn5   Zn    Zn3+2 0.930840 0.000000 0.430850 1.150842
Zn6   Zn    Zn3+2 0.069160 0.000000 0.569150 1.083159
O21   O     O_R   0.949480 0.909540 0.359000 -0.549371
O22   O     O_R   0.053060 0.909550 0.462560 -0.595134
O23   O     O_R   0.038660 0.090460 0.448210 -0.576719
O24   O     O_R   0.142240 0.090460 0.551770 -0.607088
C31   C     C_R   0.004849 0.884841 0.381724 0.907708
C32   C     C_R   0.118759 0.122223 0.502417 0.876583
C33   C     C_2   0.087842 0.829555 0.325560 0.203973
C34   C     C_2   0.012641 0.830875 0.311823 -0.008104
C35   C     C_2   0.087189 0.764373 0.254965 -0.130928
C36   C     C_2   0.019502 0.682924 0.205320 -0.306735
H3    H     H_    0.141643 0.783684 0.243772 0.205947
C37   C     C_2   0.989852 0.251792 0.675163 -0.119917
C38   C     C_2   0.009715 0.192641 0.686722 -0.308290
H4    H     H_    0.967484 0.249302 0.612511 0.191084
C39   C     C_2   0.003898 0.324365 0.749953 -0.110326
C40   C     C_2   0.994453 0.312168 0.813066 -0.310837
H5    H     H_    0.230332 0.621027 0.318194 0.180767
H6    H     H_    0.709116 0.752265 0.543811 0.155056
N1    N     N_R   0.895579 0.668963 0.902450 0.224510
O25   O     O_R   0.881168 0.729144 0.942576 -0.306481
O26   O     O_R   0.971932 0.691956 0.909629 -0.310287
H7    H     H_    0.756347 0.448716 0.787261 0.170906
H8    H     H_    0.725699 0.623781 0.789194 0.209557
N2    N     N_R   0.739083 0.461662 0.652403 0.209464
O27   O     O_R   0.689187 0.377873 0.599387 -0.337163
O28   O     O_R   0.819266 0.499029 0.669558 -0.342119
H9    H     H_    0.281630 0.234328 0.632759 0.196956
N3    N     N_R   0.149901 0.228614 0.450200 0.207815
O29   O     O_R   0.099700 0.172370 0.367191 -0.325823
O30   O     O_R   0.163896 0.308267 0.478114 -0.357034
N4    N     N_R   0.393175 0.400629 0.670658 0.236457
O31   O     O_R   0.372405 0.421371 0.730638 -0.319398
O32   O     O_R   0.474630 0.440880 0.692379 -0.371486
H10   H     H_    0.293083 0.247976 0.455817 0.174181
N5    N     N_R   0.169515 0.892052 0.405659 0.223373
O33   O     O_R   0.192642 0.974503 0.441783 -0.364960
O34   O     O_R   0.227739 0.869533 0.432214 -0.335585
N6    N     N_R   0.405495 0.657468 0.336231 0.239706
O35   O     O_R   0.405417 0.714227 0.310729 -0.314970
O36   O     O_R   0.476270 0.676326 0.401417 -0.362472
N7    N     N_R   0.939768 0.786991 0.224306 0.207543
O37   O     O_R   0.860525 0.745118 0.207983 -0.281900
O38   O     O_R   0.951856 0.797604 0.163582 -0.293554
H11   H     H_    0.969596 0.662068 0.222257 0.182679
H12   H     H_    0.041648 0.201139 0.751544 0.173936
H13   H     H_    0.018832 0.386422 0.751640 0.190488
H14   H     H_    0.968899 0.247527 0.806229 0.166942
N8    N     N_R   0.278733 0.363022 0.174846 0.231217
O39   O     O_R   0.216781 0.282536 0.135010 -0.347079
O40   O     O_R   0.351166 0.379487 0.174253 -0.286216
H15   H     H_    0.210499 0.482210 0.357395 0.203289
N9    N     N_R   0.714259 0.748122 0.334935 0.256967
O41   O     O_R   0.764951 0.751244 0.301979 -0.291567
O42   O     O_R   0.635893 0.732300 0.287801 -0.274545
H16   H     H_    0.835612 0.788851 0.541433 0.160423
N10   N     N_R   0.613321 0.590091 0.333710 0.257051
O43   O     O_R   0.529943 0.555661 0.304820 -0.296671
O44   O     O_R   0.640072 0.558661 0.282239 -0.294418

loop_
_geom_bond_atom_site_label_1
_geom_bond_atom_site_label_2
_geom_bond_distance
_ccdc_geom_bond_type
Zn6   O24   2.000401 S    
C5    C8    1.537281 S    
O20   C30   1.280738 A    
N5    O33   1.301477 A    
C6    H5    1.110317 S    
C25   C36   1.442462 S    
C23   C24   1.346713 D    
N10   O43   1.301364 A    
N1    O25   1.300764 A    
Zn1   O7    2.009360 S    
O14   C27   1.277801 A    
C6    C11   1.554130 S    
O22   C31   1.290940 A    
C1    C16   1.446572 S    
C36   H11   1.087539 S    
C22   N3    1.444469 S    
O4    C2    1.267970 A    
O7    C4    1.270021 A    
N3    O30   1.301852 A    
Zn5   O21   2.005865 S    
N8    O39   1.300315 A    
Zn6   O22   1.998007 S    
C5    C6    1.533829 S    
C2    C12   1.431153 S    
C7    C10   1.536861 S    
O5    C3    1.270122 A    
C8    C9    1.535162 S    
O12   C26   1.265662 A    
C21   H9    1.086572 S    
C7    C26   1.426726 S    
O24   C32   1.289618 A    
N9    O41   1.300870 A    
C5    C12   1.523950 S    
C10   H2    1.110244 S    
C6    C7    1.535022 S    
C33   C35   1.471438 S    
N6    O36   1.299718 A    
C37   C38   1.335186 D    
O17   Zn5   1.998006 S    
N4    O32   1.301408 A    
C18   H7    1.087651 S    
C24   H10   1.087849 S    
C33   N5    1.439561 S    
C18   C28   1.442580 S    
C31   C34   1.458624 S    
N5    O34   1.301170 A    
C11   C12   1.540149 S    
O3    Zn1   2.017013 S    
Zn4   O14   1.998669 S    
C21   C22   1.347097 D    
O15   C28   1.271959 A    
N1    O26   1.300488 A    
C39   C40   1.338221 D    
O9    C25   1.271058 A    
O19   C30   1.281290 A    
C8    H1    1.110312 S    
C9    C12   1.525088 S    
C3    C24   1.443794 S    
O3    C2    1.265022 A    
C5    N6    1.457476 S    
N3    O29   1.301322 A    
C13   C14   1.350345 D    
C35   C36   1.336895 D    
O1    C1    1.276985 A    
C34   N7    1.445408 S    
O9    Zn3   1.998626 S    
O23   C32   1.274478 A    
C9    N8    1.456962 S    
O10   Zn4   2.004240 S    
C17   C18   1.347152 D    
C39   H13   1.086491 S    
C11   H15   1.110239 S    
C19   C20   1.347181 D    
O13   C27   1.269052 A    
Zn2   O8    2.017014 S    
N6    O35   1.300162 A    
O11   Zn3   2.014385 S    
C37   C39   1.464740 S    
C22   C32   1.455002 S    
C7    C8    1.537375 S    
Zn3   O13   2.004202 S    
O18   Zn6   2.005862 S    
C13   N9    1.439199 S    
C23   N4    1.440071 S    
N7    O38   1.301974 A    
O8    C4    1.285466 A    
N2    O27   1.301337 A    
N2    O28   1.301813 A    
O12   Zn4   2.012030 S    
C16   H6    1.086878 S    
O18   C29   1.272700 A    
C35   H3    1.086507 S    
Zn1   O5    2.003983 S    
C38   H12   1.086914 S    
O1    Zn1   1.998459 S    
O2    Zn2   2.003986 S    
C4    C20   1.456139 S    
O11   C26   1.265675 A    
O6    C3    1.280044 A    
C14   C30   1.449411 S    
O4    Zn2   2.009359 S    
N10   O44   1.300992 A    
Zn5   O23   2.002825 S    
C13   C15   1.472914 S    
C20   N2    1.444683 S    
O21   C31   1.273497 A    
C19   H8    1.086332 S    
N7    O37   1.300847 A    
C9    C10   1.534355 S    
O2    C1    1.274077 A    
C14   H16   1.086894 S    
C17   C19   1.470879 S    
C40   H14   1.086673 S    
O10   C25   1.278973 A    
N8    O40   1.300339 A    
O16   C28   1.278803 A    
C21   C23   1.470101 S    
N9    O42   1.301072 A    
C15   N10   1.440358 S    
C17   N1    1.436603 S    
C10   C11   1.552095 S    
Zn2   O6    1.998458 S    
C33   C34   1.359055 D    
O20   Zn6   2.002825 S    
C15   C16   1.348509 D    
C27   C40   1.435876 S    
C37   H4    1.086282 S    
O17   C29   1.284248 A    
N4    O31   1.301047 A    
Zn3   O15   2.011902 S    
Zn4   O16   2.014386 S    
O19   Zn5   2.000402 S    
C29   C38   1.436179 S    
