data_mof_unit_33305.cif
_audit_creation_date              2012-12-10T16:44:44-0500
_audit_creation_method            fapswitch 2.2
_symmetry_space_group_name_H-M    P1
_symmetry_Int_Tables_number       1
_space_group_crystal_system       triclinic
_cell_length_a                    15.017495
_cell_length_b                    8.783825
_cell_length_c                    7.47583
_cell_angle_alpha                 103.038427
_cell_angle_beta                  95.174363
_cell_angle_gamma                 94.661652
_cell_volume                      951.54350489

loop_
_atom_site_label
_atom_site_type_symbol
_atom_type_description
_atom_site_fract_x
_atom_site_fract_y
_atom_site_fract_z
_atom_type_partial_charge
C1    C     C_R   0.496888 0.200022 0.453722 0.838453
C2    C     C_R   0.503112 0.799977 0.546278 0.838452
C3    C     C_R   0.023724 0.219285 0.352348 -0.171273
C4    C     C_R   0.976276 0.780715 0.647653 -0.171272
C5    C     C_2   0.487520 0.032652 0.428821 -0.043795
C6    C     C_2   0.512480 0.967348 0.571179 -0.043795
C7    C     C_R   0.328981 0.497702 0.500512 0.822288
C8    C     C_R   0.671019 0.502297 0.499488 0.822288
C9    C     C_R   0.823853 0.645416 0.572261 0.122752
C10   C     C_R   0.176147 0.354584 0.427739 0.122752
C11   C     C_R   0.767498 0.505756 0.498155 -0.090220
C12   C     C_R   0.232501 0.494244 0.501845 -0.090219
C13   C     C_R   0.802430 0.366398 0.422928 -0.207896
C14   C     C_R   0.197570 0.633602 0.577072 -0.207896
C15   C     C_R   0.895060 0.361703 0.423024 0.068907
C16   C     C_R   0.104940 0.638297 0.576976 0.068906
C17   C     C_R   0.953107 0.501324 0.499230 0.012326
C18   C     C_R   0.046893 0.498676 0.500770 0.012327
C19   C     C_R   0.917467 0.643727 0.573578 0.047606
C20   C     C_R   0.082533 0.356273 0.426423 0.047606
C21   C     C_R   0.931167 0.220872 0.349778 0.159206
C22   C     C_R   0.068833 0.779128 0.650223 0.159205
Cu1   Cu    Cu3+1 0.510010 0.517380 0.684380 1.110192
Cu2   Cu    Cu3+1 0.489990 0.482620 0.315620 1.110192
H1    H     H_    0.756152 0.261891 0.366994 0.182518
H2    H     H_    0.243848 0.738109 0.633005 0.182518
H3    H     H_    0.048336 0.108713 0.294523 0.205919
H4    H     H_    0.951665 0.891287 0.705479 0.205919
N1    N     N_2   0.474890 0.456420 0.038520 0.150327
N2    N     N_2   0.525110 0.543580 0.961480 0.150327
O1    O     O_R   0.506510 0.286130 0.619770 -0.538113
O2    O     O_R   0.493490 0.713870 0.380230 -0.538112
O3    O     O_R   0.489600 0.256770 0.308360 -0.574651
O4    O     O_R   0.510400 0.743230 0.691640 -0.574651
O5    O     O_R   0.378710 0.514640 0.655720 -0.533278
O6    O     O_R   0.621290 0.485360 0.344280 -0.533278
O7    O     O_R   0.361800 0.485290 0.344300 -0.586259
O8    O     O_R   0.638200 0.514710 0.655700 -0.586259
I1    I     I_    0.765106 0.857167 0.672837 -0.287596
I2    I     I_    0.234893 0.142832 0.327163 -0.287596
I3    I     I_    0.852032 0.003128 0.231048 -0.299926
I4    I     I_    0.147968 0.996872 0.768952 -0.299925
I5    I     I_    0.422592 0.910420 0.157748 -0.175901
I6    I     I_    0.577408 0.089580 0.842252 -0.175901
O9    O     O_3   0.410859 0.357238 0.924451 -0.570849
H5    H     H_    0.378704 0.302252 0.005451 0.359261
O10   O     O_3   0.589141 0.642762 0.075549 -0.570849
H6    H     H_    0.621297 0.697748 0.994549 0.359261

loop_
_geom_bond_atom_site_label_1
_geom_bond_atom_site_label_2
_ccdc_geom_bond_type
C22   I4    S    
Cu1   Cu2   S    
Cu2   O2    S    
N1    N2    D    
Cu1   O8    S    
C4    C22   A    
C21   I3    S    
C18   C20   A    
Cu2   O3    S    
C1    O1    A    
Cu1   O4    S    
C2    O4    A    
C3    H3    S    
Cu2   O7    S    
C5    I5    S    
C1    O3    A    
C3    C20   A    
C6    I6    S    
O9    H5    S    
C14   H2    S    
C9    C11   A    
C13   H1    S    
Cu2   O6    S    
C15   C21   A    
C8    O8    A    
C8    C11   S    
C1    C5    S    
C10   C12   A    
C16   C18   A    
C17   C19   A    
C2    C6    S    
C12   C14   A    
C17   C18   A    
Cu1   O5    S    
C13   C15   A    
C7    O7    A    
C5    C6    D    
C14   C16   A    
C7    C12   S    
C3    C21   A    
C11   C13   A    
Cu1   N2    S    
N2    O10   S    
C9    I1    S    
C2    O2    A    
C8    O6    A    
C10   C20   A    
C15   C17   A    
Cu2   N1    S    
C10   I2    S    
C16   C22   A    
C4    H4    S    
C4    C19   A    
C7    O5    A    
C9    C19   A    
O10   H6    S    
N1    O9    S    
Cu1   O1    S    
