data_mof_unit_28653.cif
_audit_creation_date              2012-12-10T20:49:45-0500
_audit_creation_method            fapswitch 2.2
_symmetry_space_group_name_H-M    P1
_symmetry_Int_Tables_number       1
_space_group_crystal_system       triclinic
_cell_length_a                    8.106639
_cell_length_b                    8.935541
_cell_length_c                    16.922622
_cell_angle_alpha                 90.002667
_cell_angle_beta                  84.992824
_cell_angle_gamma                 89.990229
_cell_volume                      1221.14938755

loop_
_atom_site_label
_atom_site_type_symbol
_atom_type_description
_atom_site_fract_x
_atom_site_fract_y
_atom_site_fract_z
_atom_type_partial_charge
C1    C     C_R   0.499992 0.782020 0.500001 0.937424
C2    C     C_R   0.500005 0.217980 0.500017 0.940746
C3    C     C_1   0.499987 0.934814 0.500015 -0.169499
C4    C     C_1   0.500010 0.065181 0.500018 -0.170240
C5    C     C_R   0.476942 0.505578 0.653096 0.922530
C6    C     C_R   0.523061 0.497492 0.346846 0.920514
C7    C     C_R   0.461285 0.538920 0.737119 -0.170306
C8    C     C_R   0.538486 0.489588 0.261223 -0.171550
C9    C     C_R   0.590345 0.613748 0.770157 -0.232560
C10   C     C_R   0.409329 0.428245 0.222282 -0.227968
C11   C     C_R   0.576605 0.649193 0.850075 0.387449
C12   C     C_R   0.418749 0.426559 0.140249 0.395942
C13   C     C_R   0.434236 0.605094 0.897950 -0.064731
C14   C     C_R   0.557153 0.490594 0.096896 -0.072462
C15   C     C_R   0.299139 0.541050 0.863580 0.439803
C16   C     C_R   0.691063 0.544647 0.135904 0.439316
C17   C     C_R   0.313303 0.508446 0.783070 -0.238000
C18   C     C_R   0.681417 0.543179 0.218158 -0.239009
C19   C     C_2   0.439756 0.596984 0.983400 -0.040278
C20   C     C_2   0.556546 0.512172 0.012069 -0.043703
H1    H     H_    0.701761 0.645168 0.733889 0.201054
H2    H     H_    0.301064 0.381717 0.255603 0.199206
H3    H     H_    0.782511 0.589151 0.248344 0.198610
H4    H     H_    0.210894 0.455210 0.756984 0.199941
H5    H     H_    0.655369 0.462248 0.973131 0.219839
H6    H     H_    0.339491 0.644616 0.022331 0.220863
N1    N     N_1   0.926360 0.500000 0.499990 -0.025624
N2    N     N_1   0.073640 0.500000 0.500010 -0.025355
O1    O     O_R   0.363150 0.714660 0.500000 -0.611860
O2    O     O_R   0.636850 0.285340 0.500000 -0.610997
O3    O     O_R   0.636850 0.714660 0.500000 -0.617092
O4    O     O_R   0.363150 0.285340 0.500000 -0.615323
O5    O     O_R   0.346950 0.500000 0.615800 -0.619160
O6    O     O_R   0.653050 0.500000 0.384200 -0.618869
O7    O     O_R   0.620700 0.500000 0.615800 -0.619081
O8    O     O_R   0.379300 0.500000 0.384200 -0.619062
Zn1   Zn    Zn3+2 0.317220 0.500000 0.500010 1.010303
Zn2   Zn    Zn3+2 0.682780 0.500000 0.499990 1.009688
Cl1   Cl    Cl    0.115736 0.489006 0.920177 -0.431206
Cl2   Cl    Cl    0.867081 0.624835 0.084118 -0.436171
Cl3   Cl    Cl    0.255631 0.342219 0.094156 -0.477812
Cl4   Cl    Cl    0.741564 0.745574 0.888689 -0.475310

loop_
_geom_bond_atom_site_label_1
_geom_bond_atom_site_label_2
_ccdc_geom_bond_type
C2    C4    S    
C15   C17   A    
C12   Cl3   S    
C14   C20   S    
C8    C18   A    
C11   C13   A    
C19   C20   D    
O3    Zn2   S    
C2    O2    A    
C9    H1    S    
C1    O1    A    
O4    Zn1   S    
C10   H2    S    
C9    C11   A    
C15   Cl1   S    
C10   C12   A    
N2    Zn1   S    
C16   Cl2   S    
C5    O7    A    
C2    O4    A    
O8    Zn1   S    
C6    O8    A    
C13   C15   A    
C14   C16   A    
C17   H4    S    
C20   H5    S    
C13   C19   S    
N1    Zn2   S    
C18   H3    S    
C7    C9    A    
C1    O3    A    
O7    Zn2   S    
O2    Zn2   S    
C11   Cl4   S    
C16   C18   A    
O1    Zn1   S    
N1    N2    T    
C5    C7    S    
C19   H6    S    
C6    C8    S    
C1    C3    S    
O6    Zn2   S    
C8    C10   A    
O5    Zn1   S    
C3    C4    T    
C6    O6    A    
C12   C14   A    
C7    C17   A    
C5    O5    A    
