data_mof_unit_15625.cif
_audit_creation_date              2013-03-05T16:36:13-0500
_audit_creation_method            fapswitch 2.2
_symmetry_space_group_name_H-M    P1
_symmetry_Int_Tables_number       1
_space_group_crystal_system       triclinic
_cell_length_a                    27.826003
_cell_length_b                    9.091301
_cell_length_c                    7.791439
_cell_angle_alpha                 90.000081
_cell_angle_beta                  89.999977
_cell_angle_gamma                 90.0
_cell_volume                      1971.03592213

loop_
_atom_site_label
_atom_site_type_symbol
_atom_site_description
_atom_site_fract_x
_atom_site_fract_y
_atom_site_fract_z
_atom_type_partial_charge
O1    O     O_R   0.500000 0.288390 0.642760 -0.575290
O2    O     O_R   0.500000 0.711610 0.357240 -0.575290
O3    O     O_R   0.500000 0.711610 0.642760 -0.575290
O4    O     O_R   0.500000 0.288390 0.357240 -0.575290
C1    C     C_R   0.500000 0.220048 0.500000 0.849433
C2    C     C_R   0.500000 0.779952 0.500000 0.849433
O5    O     O_R   0.430260 0.500000 0.642770 -0.582202
O6    O     O_R   0.569740 0.500000 0.357230 -0.582202
O7    O     O_R   0.569740 0.500000 0.642770 -0.582202
O8    O     O_R   0.430260 0.500000 0.357230 -0.582202
C3    C     C_R   0.407234 0.500000 0.500000 0.845770
C4    C     C_R   0.592766 0.500000 0.500000 0.845769
Cu1   Cu    Cu3+1 0.500000 0.500000 0.669080 1.031037
Cu2   Cu    Cu3+1 0.500000 0.500000 0.330920 1.031036
C5    C     C_R   0.177634 0.369925 0.479130 0.666170
C6    C     C_R   0.822366 0.630074 0.479126 0.666172
C7    C     C_R   0.177634 0.630078 0.520874 0.666178
C8    C     C_R   0.822366 0.369922 0.520874 0.666183
O9    O     O_2   0.202507 0.243877 0.457149 -0.479641
O10   O     O_2   0.797493 0.756121 0.457143 -0.479647
O11   O     O_2   0.202506 0.756125 0.542855 -0.479640
O12   O     O_2   0.797494 0.243874 0.542856 -0.479646
N1    N     N_R   0.201692 0.500001 0.500001 -0.436459
N2    N     N_R   0.798308 0.499998 0.499999 -0.436456
C9    C     C_R   0.278749 0.547446 0.352069 0.349782
C10   C     C_R   0.721251 0.452562 0.352063 0.349781
C11   C     C_R   0.278749 0.452557 0.647931 0.349786
C12   C     C_R   0.721251 0.547435 0.647934 0.349787
C13   C     C_R   0.329100 0.545991 0.354407 -0.239700
C14   C     C_R   0.670900 0.454018 0.354403 -0.239698
C15   C     C_R   0.329100 0.454010 0.645593 -0.239697
C16   C     C_R   0.670900 0.545981 0.645596 -0.239692
C17   C     C_R   0.253310 0.500002 0.500001 0.114891
C18   C     C_R   0.746690 0.499997 0.499999 0.114886
C19   C     C_R   0.101683 0.500000 0.500003 -0.038617
C20   C     C_R   0.898317 0.499999 0.500002 -0.038615
C21   C     C_R   0.127215 0.367191 0.481324 -0.023584
C22   C     C_R   0.872785 0.632808 0.481321 -0.023582
C23   C     C_R   0.127215 0.632811 0.518681 -0.023584
C24   C     C_R   0.872786 0.367189 0.518681 -0.023582
C25   C     C_R   0.101978 0.235118 0.464075 -0.116297
C26   C     C_R   0.898022 0.764881 0.464071 -0.116299
C27   C     C_R   0.101978 0.764883 0.535930 -0.116297
C28   C     C_R   0.898022 0.235116 0.535932 -0.116300
C29   C     C_R   0.354363 0.500000 0.500000 -0.157738
C30   C     C_R   0.645637 0.499999 0.500000 -0.157746
H1    H     H_    0.348799 0.418617 0.758157 0.205715
H2    H     H_    0.651201 0.581368 0.758163 0.205719
H3    H     H_    0.348799 0.581384 0.241843 0.205716
H4    H     H_    0.651200 0.418631 0.241837 0.205721
H5    H     H_    0.120749 0.131918 0.445974 0.187086
H6    H     H_    0.879251 0.868081 0.445968 0.187086
H7    H     H_    0.120749 0.868083 0.554032 0.187085
H8    H     H_    0.879251 0.131916 0.554035 0.187085
C31   C     C_R   0.974570 0.364484 0.506890 0.046912
C32   C     C_R   0.025430 0.635515 0.506889 0.046912
C33   C     C_R   0.974570 0.635514 0.493116 0.046912
C34   C     C_R   0.025430 0.364485 0.493117 0.046911
C35   C     C_R   0.949328 0.499999 0.500002 0.076372
C36   C     C_R   0.050672 0.500000 0.500003 0.076372
C37   C     C_R   0.947942 0.233453 0.529447 -0.194396
C38   C     C_R   0.052058 0.766546 0.529445 -0.194396
C39   C     C_R   0.947941 0.766545 0.470558 -0.194397
C40   C     C_R   0.052059 0.233454 0.470562 -0.194397
H9    H     H_    0.964849 0.128075 0.548134 0.129892
H10   H     H_    0.035151 0.871924 0.548131 0.129891
H11   H     H_    0.964848 0.871923 0.451872 0.129892
H12   H     H_    0.035152 0.128076 0.451876 0.129891
C41   C     C_1   0.500000 0.065381 0.500000 -0.147038
C42   C     C_1   0.500000 0.934619 0.500000 -0.147038
N3    N     N_1   0.500000 0.500000 0.076820 -0.040206
N4    N     N_1   0.500000 0.500000 0.923180 -0.040206
N5    N     N_R   0.254301 0.402372 0.800622 0.175393
O13   O     O_R   0.277093 0.323827 0.914159 -0.304084
O14   O     O_R   0.210140 0.440293 0.832685 -0.294485
N6    N     N_R   0.745699 0.597613 0.800629 0.175406
O15   O     O_R   0.722904 0.676132 0.914184 -0.304089
O16   O     O_R   0.789863 0.559709 0.832678 -0.294491
N7    N     N_R   0.254301 0.597630 0.199377 0.175397
O17   O     O_R   0.277095 0.676162 0.085832 -0.304086
O18   O     O_R   0.210138 0.559723 0.167323 -0.294489
N8    N     N_R   0.745698 0.402386 0.199365 0.175411
O19   O     O_R   0.722901 0.323889 0.085796 -0.304093
O20   O     O_R   0.789865 0.440271 0.167328 -0.294496

loop_
_geom_bond_atom_site_label_1
_geom_bond_atom_site_label_2
_geom_bond_distance
_ccdc_geom_bond_type
C31   C35   1.419174 A    
N5    O14   1.300505 A    
Cu2   N3    1.979804 S    
C20   C35   1.419432 A    
C13   H3    1.083152 S    
C11   C17   1.419722 A    
C5    O9    1.349635 S    
C7    N1    1.368595 A    
O1    C1    1.274072 A    
C40   H12   1.077191 S    
C19   C21   1.408462 A    
N6    O16   1.300501 A    
C22   C26   1.397467 A    
C33   C35   1.419172 A    
C34   C36   1.419173 A    
O7    Cu1   1.951380 S    
C32   C33   1.419296 A    
C7    C23   1.403289 A    
C8    C24   1.403292 A    
C5    C21   1.403292 A    
C1    C41   1.406118 S    
C27   H7    1.083041 S    
N1    C17   1.436317 S    
C8    N2    1.368595 A    
C8    O12   1.349635 S    
C24   C28   1.397466 A    
O3    Cu1   1.934710 S    
C6    O10   1.349635 S    
O3    C2    1.274074 A    
C5    N1    1.368594 A    
C14   H4    1.083150 S    
C12   C18   1.419728 A    
C6    N2    1.368595 A    
C15   H1    1.083151 S    
Cu1   Cu2   2.634754 S    
C21   C25   1.397466 A    
C16   H2    1.083151 S    
O2    C2    1.274073 A    
C10   C18   1.419730 A    
C33   C39   1.413850 A    
N5    O13   1.301798 A    
C9    C13   1.401234 A    
C39   H11   1.077191 S    
C38   H10   1.077191 S    
C11   C15   1.401234 A    
C12   C16   1.401234 A    
N6    O15   1.301793 A    
C4    C30   1.471197 S    
O8    Cu2   1.951382 S    
N7    O18   1.300504 A    
C23   C27   1.397467 A    
C34   C40   1.413851 A    
N2    C18   1.436317 S    
C32   C36   1.419173 A    
C13   C29   1.398500 A    
C19   C36   1.419435 A    
C19   C23   1.408464 A    
C28   H8    1.083042 S    
O5    C3    1.283716 A    
C20   C24   1.408464 A    
O6    C4    1.283717 A    
C10   C14   1.401234 A    
N8    O20   1.300503 A    
C32   C38   1.413850 A    
C3    C29   1.471197 S    
O1    Cu1   1.934710 S    
C12   N6    1.444409 S    
C2    C42   1.406118 S    
O6    Cu2   1.951380 S    
C9    N7    1.444408 S    
C16   C30   1.398496 A    
C14   C30   1.398498 A    
O4    C1    1.274074 A    
Cu1   N4    1.979804 S    
C28   C37   1.390056 A    
C20   C22   1.408465 A    
N3    N4    1.197077 T    
C31   C37   1.413851 A    
O4    Cu2   1.934710 S    
C41   C42   1.188803 T    
O2    Cu2   1.934709 S    
O7    C4    1.283717 A    
C7    O11   1.349635 S    
C9    C17   1.419724 A    
O8    C3    1.283716 A    
N7    O17   1.301799 A    
C37   H9    1.077192 S    
O5    Cu1   1.951383 S    
C10   N8    1.444413 S    
N8    O19   1.301790 A    
C15   C29   1.398498 A    
C31   C34   1.419296 A    
C6    C22   1.403289 A    
C25   C40   1.390059 A    
C11   N5    1.444405 S    
C26   C39   1.390059 A    
C25   H5    1.083041 S    
C27   C38   1.390058 A    
C26   H6    1.083041 S    
