data_mof_unit_19749.cif
_audit_creation_date              2013-03-05T16:12:41-0500
_audit_creation_method            fapswitch 2.2
_symmetry_space_group_name_H-M    P1
_symmetry_Int_Tables_number       1
_space_group_crystal_system       triclinic
_cell_length_a                    24.215962
_cell_length_b                    7.149583
_cell_length_c                    22.186771
_cell_angle_alpha                 89.932994
_cell_angle_beta                  99.423186
_cell_angle_gamma                 89.896254
_cell_volume                      3789.44033593

loop_
_atom_site_label
_atom_site_type_symbol
_atom_site_description
_atom_site_fract_x
_atom_site_fract_y
_atom_site_fract_z
_atom_type_partial_charge
O1    O     O_R   0.801940 0.607920 0.199180 -0.587234
O2    O     O_R   0.198060 0.392080 0.800820 -0.587191
O3    O     O_R   0.698060 0.107920 0.300820 -0.602141
O4    O     O_R   0.301940 0.892080 0.699180 -0.603932
O5    O     O_R   0.687840 0.274940 0.181980 -0.567020
O6    O     O_R   0.312160 0.725060 0.818020 -0.565729
O7    O     O_R   0.812160 0.774940 0.318020 -0.543047
O8    O     O_R   0.187840 0.225060 0.681980 -0.543623
C1    C     C_R   0.669181 0.447525 0.164904 0.982627
C2    C     C_R   0.330819 0.552584 0.835017 0.974783
C3    C     C_R   0.831304 0.946766 0.334520 0.975258
C4    C     C_R   0.168677 0.053242 0.665502 0.975364
O9    O     O_R   0.800890 0.278000 0.191820 -0.604078
O10   O     O_R   0.199110 0.722000 0.808180 -0.604069
O11   O     O_R   0.699110 0.778000 0.308180 -0.590292
O12   O     O_R   0.300890 0.222000 0.691820 -0.590265
O13   O     O_R   0.811910 0.110860 0.310720 -0.584255
O14   O     O_R   0.188090 0.889140 0.689280 -0.583476
O15   O     O_R   0.688090 0.610860 0.189280 -0.559802
O16   O     O_R   0.311910 0.389140 0.810720 -0.557405
C5    C     C_R   0.818278 0.446933 0.178336 0.943642
C6    C     C_R   0.181726 0.553066 0.821669 0.947163
C7    C     C_R   0.681718 0.946996 0.321661 0.944094
C8    C     C_R   0.318269 0.053001 0.678324 0.939728
O17   O     O_3   0.753490 0.442410 0.289000 -0.263548
O18   O     O_3   0.246510 0.557590 0.711000 -0.264138
O19   O     O_3   0.746510 0.942410 0.211000 -0.249939
O20   O     O_3   0.253490 0.057590 0.789000 -0.250422
V1    V     V_3+5 0.749350 0.166330 0.242770 1.238029
V2    V     V_3+5 0.250650 0.833670 0.757230 1.236771
V3    V     V_3+5 0.750650 0.666330 0.257230 1.270979
V4    V     V_3+5 0.249350 0.333670 0.742770 1.270386
C9    C     C_R   0.421123 0.193054 0.572676 -0.142520
C10   C     C_R   0.578840 0.806943 0.427280 -0.138512
C11   C     C_R   0.077870 0.693263 0.926218 -0.138044
C12   C     C_R   0.922142 0.306725 0.073795 -0.138903
H1    H     H_    0.436726 0.320391 0.555023 0.111032
H2    H     H_    0.563269 0.679612 0.444971 0.110632
H3    H     H_    0.061473 0.820662 0.943002 0.110285
H4    H     H_    0.938521 0.179326 0.056991 0.110234
C13   C     C_R   0.381142 0.204891 0.611788 -0.119371
C14   C     C_R   0.618846 0.795110 0.388198 -0.113021
C15   C     C_R   0.117861 0.705128 0.887119 -0.149972
C16   C     C_R   0.882140 0.294866 0.112882 -0.150809
H5    H     H_    0.366930 0.341904 0.623376 0.133783
H6    H     H_    0.633110 0.658106 0.376670 0.133984
H7    H     H_    0.131256 0.842213 0.874635 0.134987
H8    H     H_    0.868719 0.157784 0.125336 0.135014
C17   C     C_R   0.360132 0.041904 0.635767 -0.119869
C18   C     C_R   0.639822 0.958091 0.364180 -0.119332
C19   C     C_R   0.139878 0.542051 0.864241 -0.118975
C20   C     C_R   0.860143 0.457944 0.135781 -0.119586
C21   C     C_R   0.380193 0.867076 0.619144 -0.143139
C22   C     C_R   0.619691 0.132907 0.380719 -0.127636
C23   C     C_R   0.120825 0.367124 0.881962 -0.106492
C24   C     C_R   0.879232 0.632867 0.118100 -0.109444
H9    H     H_    0.365260 0.738234 0.636442 0.136352
H10   H     H_    0.634589 0.261743 0.363381 0.136177
H11   H     H_    0.136591 0.238208 0.865574 0.136827
H12   H     H_    0.863487 0.761784 0.134510 0.137023
C25   C     C_R   0.420087 0.855730 0.580071 -0.139336
C26   C     C_R   0.579770 0.144249 0.419761 -0.133218
C27   C     C_R   0.080918 0.355751 0.921017 -0.150028
C28   C     C_R   0.919150 0.644234 0.079058 -0.150464
H13   H     H_    0.434827 0.719573 0.568221 0.110144
H14   H     H_    0.564980 0.280397 0.431552 0.110199
H15   H     H_    0.066968 0.219504 0.933721 0.110033
H16   H     H_    0.933127 0.780477 0.066383 0.110050
C29   C     C_R   0.440882 0.018440 0.556701 0.172303
C30   C     C_R   0.559018 0.981546 0.443181 0.170256
C31   C     C_R   0.059107 0.518532 0.943280 0.173149
C32   C     C_R   0.940937 0.481452 0.056768 0.173505
C33   C     C_1   0.482529 0.005678 0.516643 -0.057334
C34   C     C_1   0.517363 0.994305 0.483229 -0.054137
C35   C     C_1   0.017444 0.505706 0.983323 -0.059523
C36   C     C_1   0.982604 0.494273 0.016730 -0.060114
C37   C     C_R   0.919369 0.102998 0.382730 -0.170248
C38   C     C_R   0.080553 0.897073 0.617388 -0.170388
C39   C     C_R   0.579153 0.323330 0.107810 -0.176618
C40   C     C_R   0.420962 0.675858 0.891526 -0.178487
C41   C     C_R   0.880399 0.958920 0.384707 -0.312043
C42   C     C_R   0.119525 0.041139 0.615387 -0.312532
C43   C     C_R   0.620803 0.461039 0.113790 -0.320563
C44   C     C_R   0.378729 0.540391 0.886563 -0.322921
C45   C     C_R   0.888854 0.830521 0.433792 0.364401
C46   C     C_R   0.111009 0.169661 0.566351 0.364410
C47   C     C_R   0.614434 0.615489 0.073267 0.320981
C48   C     C_R   0.383802 0.390649 0.928825 0.358071
C49   C     C_R   0.937182 0.845294 0.479356 0.005450
C50   C     C_R   0.062671 0.154936 0.520814 0.005892
C51   C     C_R   0.565667 0.632605 0.028519 0.000848
C52   C     C_R   0.432208 0.374981 0.974163 0.032325
C53   C     C_R   0.975835 0.992862 0.477075 0.005912
C54   C     C_R   0.024030 0.007336 0.523087 0.005933
C55   C     C_R   0.523041 0.495887 0.024349 0.014416
C56   C     C_R   0.474439 0.513473 0.978936 0.000821
C57   C     C_R   0.966142 0.126372 0.429091 0.129678
C58   C     C_R   0.033735 0.873816 0.571068 0.129483
C59   C     C_R   0.529490 0.340071 0.064750 0.108508
C60   C     C_R   0.468340 0.668205 0.938017 0.116843
C61   C     C_R   0.947216 0.715874 0.527590 -0.251263
C62   C     C_R   0.052610 0.284506 0.472629 -0.249291
C63   C     C_R   0.559172 0.783671 0.987382 -0.283625
C64   C     C_R   0.438856 0.223509 0.015180 -0.205585
C65   C     C_R   0.995233 0.724444 0.572210 -0.055036
C66   C     C_R   0.004608 0.275879 0.427991 -0.055654
C67   C     C_R   0.511125 0.806034 0.943393 -0.067445
C68   C     C_R   0.486287 0.204282 0.060161 -0.086130
H17   H     H_    0.913239 0.193341 0.343224 0.190037
H18   H     H_    0.086724 0.806653 0.656875 0.189905
H19   H     H_    0.585996 0.204462 0.138078 0.215066
H20   H     H_    0.417036 0.782382 0.856664 0.202446
H21   H     H_    0.918050 0.602867 0.530332 0.175872
H22   H     H_    0.081744 0.397668 0.469953 0.176212
H23   H     H_    0.591599 0.888596 0.989543 0.180606
H24   H     H_    0.406527 0.118270 0.013114 0.172446
N1    N     N_R   0.847349 0.690494 0.438618 0.233341
O21   O     O_R   0.797017 0.740119 0.445422 -0.418339
O22   O     O_R   0.858399 0.514605 0.431312 -0.361945
N2    N     N_R   0.152496 0.309692 0.561520 0.233482
O23   O     O_R   0.202573 0.260102 0.553623 -0.414347
O24   O     O_R   0.141603 0.485483 0.569264 -0.360837
N3    N     N_R   0.658429 0.751188 0.076109 0.234038
O25   O     O_R   0.707956 0.700324 0.066771 -0.413005
O26   O     O_R   0.650327 0.921887 0.092987 -0.407302
N4    N     N_R   0.339175 0.257464 0.926567 0.231200
O27   O     O_R   0.289669 0.312617 0.934659 -0.420467
O28   O     O_R   0.346460 0.085287 0.910591 -0.361384
C69   C     C_2   0.002493 0.570544 0.617997 0.494044
H25   H     H_    0.965776 0.504081 0.630684 0.015074
O29   O     O_2   0.048529 0.507682 0.638906 -0.574321
C70   C     C_2   0.997310 0.429905 0.382250 0.495306
H26   H     H_    0.034009 0.496675 0.369631 0.017082
O30   O     O_2   0.951252 0.492523 0.361306 -0.573986
C71   C     C_2   0.509031 0.977344 0.904904 0.488169
H27   H     H_    0.547850 0.040678 0.896732 0.025434
O31   O     O_2   0.465139 0.056533 0.885172 -0.581581
C72   C     C_2   0.487579 0.038890 0.100919 0.538687
H28   H     H_    0.469780 0.907612 0.082437 0.024291
O32   O     O_2   0.504723 0.049654 0.155673 -0.584774

loop_
_geom_bond_atom_site_label_1
_geom_bond_atom_site_label_2
_geom_bond_distance
_ccdc_geom_bond_type
O17   V3    1.745180 S    
C43   C47   1.415326 A    
O1    C5    1.324648 A    
C53   C54   1.423199 A    
C23   H11   1.082790 S    
O19   V1    1.746920 S    
O13   V1    1.993423 S    
C33   C34   1.213448 T    
O3    C7    1.324573 A    
C55   C56   1.423751 A    
C10   C14   1.404468 A    
O1    V3    1.974600 S    
C32   C36   1.452322 S    
O15   V3    1.995215 S    
C37   H17   1.078538 S    
N3    O25   1.301364 A    
C3    C41   1.492629 S    
O5    C1    1.345763 A    
C59   C68   1.420018 A    
N4    O27   1.301480 A    
C58   C65   1.421876 A    
C28   H16   1.083604 S    
C39   C59   1.412934 A    
C47   C51   1.417933 A    
N1    O22   1.301052 A    
C22   H10   1.082782 S    
O4    C8    1.324580 A    
C55   C59   1.421307 A    
N3    O26   1.300923 A    
C54   C58   1.419390 A    
C25   C29   1.400675 A    
C52   C56   1.416303 A    
C61   H21   1.082290 S    
C26   C30   1.400672 A    
O2    V4    1.974600 S    
C14   H6    1.082803 S    
O3    V1    1.974912 S    
C30   C34   1.452136 S    
C50   C62   1.404277 A    
C48   N4    1.436395 S    
C64   H24   1.082394 S    
C21   C25   1.401987 A    
C1    O15   1.337234 A    
C12   C32   1.402736 A    
C48   C52   1.418309 A    
C2    O16   1.337306 A    
C70   H26   1.085706 S    
C39   C43   1.401534 A    
C23   C27   1.402022 A    
C38   C58   1.410220 A    
C67   C71   1.488308 S    
C24   C28   1.402023 A    
C29   C33   1.452137 S    
O14   V2    1.993426 S    
C37   C41   1.403775 A    
C11   C15   1.404555 A    
C10   C30   1.402683 A    
C40   C44   1.401090 A    
C16   C20   1.410337 A    
O11   C7    1.329278 A    
C11   C31   1.402735 A    
O12   C8    1.329276 A    
C40   C60   1.412581 A    
O10   V2    1.984059 S    
C13   C17   1.410357 A    
N2    O24   1.301096 A    
C50   C54   1.417969 A    
O5    V1    1.994059 S    
C61   C65   1.399761 A    
C27   H15   1.083604 S    
C31   C35   1.452319 S    
O7    V3    1.997385 S    
C26   H14   1.083612 S    
C4    C42   1.492577 S    
O8    V4    1.997384 S    
C71   H27   1.085704 S    
C46   C50   1.419678 A    
C45   C49   1.419879 A    
O18   V4    1.745179 S    
C7    C18   1.496257 S    
C65   C69   1.487210 S    
C22   C26   1.401982 A    
C42   C46   1.412089 A    
C9    H1    1.083455 S    
C24   H12   1.082791 S    
C11   H3    1.083453 S    
C35   C36   1.213558 T    
O2    C6    1.324646 A    
C63   H23   1.082393 S    
C62   H22   1.082371 S    
C38   C42   1.403800 A    
C52   C64   1.405692 A    
O7    C3    1.343744 A    
C12   H4    1.083452 S    
O8    C4    1.343724 A    
C40   H20   1.077786 S    
O9    C5    1.329598 A    
C38   H18   1.078533 S    
C18   C22   1.411348 A    
C37   C57   1.410122 A    
C27   C31   1.400711 A    
C72   O32   1.220347 D    
C1    C43   1.494039 S    
C57   C66   1.421916 A    
O6    V2    1.994055 S    
C14   C18   1.410351 A    
C12   C16   1.404559 A    
C45   N1    1.436149 S    
C53   C57   1.419371 A    
C64   C68   1.399238 A    
N2    O23   1.301984 A    
C69   H25   1.085701 S    
O16   V4    1.995218 S    
O9    V1    1.984057 S    
C8    C17   1.496266 S    
C71   O31   1.219338 D    
C3    O13   1.338343 A    
C60   C67   1.422068 A    
N4    O28   1.301084 A    
C49   C61   1.404349 A    
C10   H2    1.083455 S    
C44   C48   1.414171 A    
C51   C63   1.405106 A    
C21   H9    1.082784 S    
O6    C2    1.344651 A    
C46   N2    1.435891 S    
O11   V3    1.983302 S    
C9    C29   1.402682 A    
O12   V4    1.983304 S    
C39   H19   1.078150 S    
C9    C13   1.404472 A    
O10   C6    1.329593 A    
O20   V2    1.746919 S    
C16   H8    1.082804 S    
N1    O21   1.301190 A    
C47   N3    1.436032 S    
C15   C19   1.410331 A    
C17   C21   1.411351 A    
C56   C60   1.422320 A    
C2    C44   1.492149 S    
C62   C66   1.399733 A    
C19   C23   1.411356 A    
C28   C32   1.400710 A    
C49   C53   1.418016 A    
O4    V2    1.974912 S    
C72   H28   1.085981 S    
C66   C70   1.487211 S    
C51   C55   1.414961 A    
C25   H13   1.083613 S    
C70   O30   1.219962 D    
C4    O14   1.338352 A    
C13   H5    1.082803 S    
C63   C67   1.399639 A    
C69   O29   1.219972 D    
C15   H7    1.082802 S    
C5    C20   1.496318 S    
C41   C45   1.412306 A    
C20   C24   1.411361 A    
C6    C19   1.496301 S    
C68   C72   1.484959 S    
