data_mof_unit_50050.cif
_audit_creation_date              2012-12-11T15:47:00-0500
_audit_creation_method            fapswitch 2.2
_symmetry_space_group_name_H-M    P1
_symmetry_Int_Tables_number       1
_space_group_crystal_system       triclinic
_cell_length_a                    20.087754
_cell_length_b                    7.254991
_cell_length_c                    13.67813
_cell_angle_alpha                 90.000496
_cell_angle_beta                  103.172857
_cell_angle_gamma                 89.999681
_cell_volume                      1940.949988

loop_
_atom_site_label
_atom_site_type_symbol
_atom_type_description
_atom_site_fract_x
_atom_site_fract_y
_atom_site_fract_z
_atom_type_partial_charge
O1    O     O_R   0.449560 0.506810 0.599700 -0.536399
O2    O     O_R   0.550440 0.006810 0.400300 -0.536400
O3    O     O_R   0.587960 0.180060 0.595760 -0.544560
O4    O     O_R   0.412040 0.680060 0.404240 -0.544558
C1    C     C_R   0.615339 0.344185 0.616247 0.682613
C2    C     C_R   0.384661 0.844185 0.383752 0.682623
O5    O     O_R   0.452380 0.177430 0.611700 -0.539211
O6    O     O_R   0.547620 0.677430 0.388300 -0.539212
O7    O     O_R   0.413900 0.001890 0.416350 -0.541017
O8    O     O_R   0.586100 0.501890 0.583650 -0.541016
C3    C     C_R   0.436491 0.345766 0.637247 0.682503
C4    C     C_R   0.563509 0.845765 0.362753 0.682506
O9    O     O_3   0.487530 0.337490 0.435890 -0.378269
O10   O     O_3   0.512470 0.837490 0.564110 -0.378270
V1    V     V_3+5 0.502310 0.064660 0.511890 1.416447
V2    V     V_3+5 0.497690 0.564660 0.488110 1.416451
C5    C     C_R   0.607364 0.902993 0.113376 -0.157981
C6    C     C_R   0.392632 0.403025 0.886617 -0.157982
H1    H     H_    0.514129 0.890631 0.164151 0.112704
H2    H     H_    0.485868 0.390643 0.835845 0.112703
H3    H     H_    0.579938 0.923979 0.036358 0.154865
H4    H     H_    0.420057 0.424021 0.963633 0.154869
C7    C     C_R   0.602670 0.855313 0.285623 -0.013110
C8    C     C_R   0.397330 0.355318 0.714378 -0.013112
C9    C     C_R   0.931103 0.823214 0.312613 -0.166110
C10   C     C_R   0.068899 0.323187 0.687390 -0.166112
C11   C     C_R   0.895739 0.805171 0.388186 -0.124196
C12   C     C_R   0.104263 0.305135 0.611819 -0.124198
C13   C     C_R   0.824747 0.819484 0.366312 -0.137855
C14   C     C_R   0.175254 0.319464 0.633691 -0.137859
C15   C     C_R   0.786915 0.853919 0.267067 0.073423
C16   C     C_R   0.213084 0.353923 0.732933 0.073423
C17   C     C_R   0.823673 0.875717 0.190184 0.010074
C18   C     C_R   0.176326 0.375730 0.809812 0.010075
C19   C     C_R   0.713977 0.864742 0.241524 0.013401
C20   C     C_R   0.286023 0.364757 0.758475 0.013397
C21   C     C_R   0.679371 0.898408 0.140106 0.051987
C22   C     C_R   0.320627 0.398439 0.859888 0.051994
C23   C     C_R   0.716710 0.931016 0.066763 0.389076
C24   C     C_R   0.283286 0.431059 0.933227 0.389076
C25   C     C_R   0.787814 0.913585 0.091241 -0.299526
C26   C     C_R   0.212183 0.413618 0.908751 -0.299532
C27   C     C_R   0.673880 0.844190 0.313414 -0.185752
C28   C     C_R   0.326121 0.344196 0.686588 -0.185750
C29   C     C_R   0.569414 0.882757 0.185772 -0.195503
C30   C     C_R   0.430583 0.382772 0.814225 -0.195506
C31   C     C_R   0.895912 0.858392 0.213997 -0.042121
C32   C     C_R   0.104087 0.358390 0.786002 -0.042121
H5    H     H_    0.696059 0.822380 0.391977 0.089936
H6    H     H_    0.303943 0.322383 0.608029 0.089940
H7    H     H_    0.986270 0.809088 0.331000 0.102582
H8    H     H_    0.013733 0.309047 0.669005 0.102583
H9    H     H_    0.801323 0.801862 0.429034 0.104969
H10   H     H_    0.198679 0.301831 0.570971 0.104971
H11   H     H_    0.923539 0.778166 0.464438 0.120035
H12   H     H_    0.076465 0.278110 0.535570 0.120038
H13   H     H_    0.814607 0.930976 0.031546 0.131040
H14   H     H_    0.185389 0.431017 0.968444 0.131050
C33   C     C_R   0.223155 0.020211 0.206816 -0.146466
C34   C     C_R   0.776844 0.520209 0.793188 -0.146471
H15   H     H_    0.204889 0.149718 0.171223 0.129677
H16   H     H_    0.795108 0.649714 0.828785 0.129675
C35   C     C_R   0.288091 0.015988 0.271308 -0.165012
C36   C     C_R   0.711908 0.515987 0.728696 -0.164994
H17   H     H_    0.317816 0.141880 0.283379 0.132462
H18   H     H_    0.682181 0.641876 0.716629 0.132465
C37   C     C_R   0.314837 0.850641 0.317592 -0.056383
C38   C     C_R   0.685163 0.350642 0.682405 -0.056380
C39   C     C_R   0.274170 0.690501 0.299756 -0.164490
C40   C     C_R   0.725833 0.190506 0.700236 -0.164494
H19   H     H_    0.292780 0.560992 0.335004 0.124960
H20   H     H_    0.707225 0.060999 0.664983 0.124956
C41   C     C_R   0.209252 0.694568 0.234920 -0.170311
C42   C     C_R   0.790750 0.194571 0.765073 -0.170317
H21   H     H_    0.179711 0.568434 0.222224 0.128191
H22   H     H_    0.820293 0.068440 0.777765 0.128189
C43   C     C_R   0.183014 0.859334 0.187208 -0.054364
C44   C     C_R   0.816987 0.359335 0.812791 -0.054361
O11   O     O_R   0.913920 0.203370 0.916260 -0.540636
O12   O     O_R   0.086080 0.703370 0.083740 -0.540636
O13   O     O_R   0.047620 0.535540 0.888290 -0.540028
O14   O     O_R   0.952380 0.035540 0.111710 -0.540027
C45   C     C_R   0.064334 0.368225 0.863272 0.680235
C46   C     C_R   0.935666 0.868226 0.136727 0.680239
O15   O     O_R   0.912040 0.532780 0.904220 -0.543586
O16   O     O_R   0.087960 0.032780 0.095780 -0.543585
O17   O     O_R   0.949550 0.708160 0.099720 -0.535401
O18   O     O_R   0.050450 0.208160 0.900280 -0.535401
C47   C     C_R   0.885616 0.364879 0.882557 0.670456
C48   C     C_R   0.114384 0.864879 0.117443 0.670457
O19   O     O_3   0.012480 0.375300 0.064060 -0.378344
O20   O     O_3   0.987520 0.875300 0.935940 -0.378345
V3    V     V_3+5 0.997690 0.648180 0.988110 1.406695
V4    V     V_3+5 0.002310 0.148180 0.011890 1.406697
O21   O     O_3   0.682752 0.969245 0.968860 -0.580540
C49   C     C_3   0.690733 0.157723 0.947045 0.077101
H23   H     H_    0.674792 0.172586 0.864543 0.167988
H24   H     H_    0.744967 0.204121 0.969631 0.118480
C50   C     C_3   0.644317 0.282934 0.993177 -0.370857
H25   H     H_    0.590720 0.232839 0.970960 0.196648
H26   H     H_    0.660979 0.280111 0.076385 0.200680
C51   C     C_3   0.646637 0.481744 0.957787 -0.764052
H27   H     H_    0.699789 0.535507 0.978302 0.242556
H28   H     H_    0.613758 0.568904 0.994038 0.236706
H29   H     H_    0.627138 0.490337 0.875161 0.223573
O22   O     O_3   0.317240 0.469304 0.031128 -0.580537
C52   C     C_3   0.309261 0.657787 0.052929 0.077095
H30   H     H_    0.325183 0.672660 0.135431 0.168004
H31   H     H_    0.255031 0.704200 0.030316 0.118472
C53   C     C_3   0.355697 0.782971 0.006821 -0.370873
H32   H     H_    0.409291 0.732867 0.029071 0.196650
H33   H     H_    0.339057 0.780130 0.923612 0.200693
C54   C     C_3   0.353373 0.981789 0.042193 -0.764085
H34   H     H_    0.300223 0.035563 0.021638 0.242561
H35   H     H_    0.386271 0.068928 0.005965 0.236700
H36   H     H_    0.372845 0.990398 0.124822 0.223592

loop_
_geom_bond_atom_site_label_1
_geom_bond_atom_site_label_2
_ccdc_geom_bond_type
C14   C16   A    
C35   H17   S    
C7    C29   A    
C11   C13   A    
C41   H21   S    
O21   C49   S    
O1    C3    A    
C46   O17   A    
O2    C4    A    
C33   C43   A    
C2    O7    A    
C12   H12   S    
C23   C25   A    
O5    C3    A    
C14   H10   S    
C4    C7    S    
C34   C44   A    
C42   H22   S    
O14   V4    S    
C16   C20   A    
C19   C21   A    
C5    C29   A    
C11   H11   S    
O22   C52   S    
C49   C50   S    
C3    C8    S    
C7    C27   A    
C51   H29   S    
C34   H16   S    
C39   H19   S    
C53   H32   S    
O16   V4    S    
O15   V3    S    
C18   C26   A    
C49   H24   S    
C40   C42   A    
C52   H30   S    
C15   C17   A    
C39   C41   A    
C19   C27   A    
C9    C31   A    
C10   C32   A    
C54   H36   S    
C24   C26   A    
C45   O18   A    
O6    V2    S    
O12   C48   A    
C52   H31   S    
C26   H14   S    
C1    C38   S    
C6    C30   A    
O13   C45   A    
O18   V4    S    
C44   C47   S    
C35   C37   A    
C43   C48   S    
C33   H15   S    
O11   V4    S    
O4    C2    A    
O16   C48   A    
O15   C47   A    
C27   H5    S    
O5    V1    S    
C5    H3    S    
C37   C39   A    
C36   H18   S    
O4    V2    S    
C9    H7    S    
C10   H8    S    
O13   V3    S    
C50   H25   S    
O6    C4    A    
C49   H23   S    
O1    V2    S    
C5    C21   A    
C31   C46   S    
C51   H28   S    
O2    V1    S    
C53   C54   S    
C23   O21   S    
C38   C40   A    
C2    C37   S    
C50   H26   S    
O14   C46   A    
C17   C31   A    
C52   C53   S    
C15   C19   A    
C20   C28   A    
C18   C32   A    
C36   C38   A    
O3    V1    S    
C24   O22   S    
C54   H34   S    
C28   H6    S    
C6    H4    S    
C10   C12   A    
O3    C1    A    
H1    C29   S    
C9    C11   A    
C33   C35   A    
C32   C45   S    
C34   C36   A    
C17   C25   A    
C20   C22   A    
O7    V1    S    
C8    C30   A    
C1    O8    A    
C21   C23   A    
O8    V2    S    
O19   V4    S    
C22   C24   A    
C13   H9    S    
C8    C28   A    
O17   V3    S    
C12   C14   A    
O20   V3    S    
C6    C22   A    
C51   H27   S    
C53   H33   S    
O11   C47   A    
C25   H13   S    
C50   C51   S    
C13   C15   A    
C42   C44   A    
O9    V2    S    
C41   C43   A    
O10   V1    S    
C40   H20   S    
O12   V3    S    
H2    C30   S    
C16   C18   A    
C54   H35   S    
