data_mof_unit_22449.cif
_audit_creation_date              2012-12-11T16:33:25-0500
_audit_creation_method            fapswitch 2.2
_symmetry_space_group_name_H-M    P1
_symmetry_Int_Tables_number       1
_space_group_crystal_system       triclinic
_cell_length_a                    6.947394
_cell_length_b                    18.199377
_cell_length_c                    20.228578
_cell_angle_alpha                 68.406148
_cell_angle_beta                  90.71912
_cell_angle_gamma                 90.708474
_cell_volume                      2377.88874475

loop_
_atom_site_label
_atom_site_type_symbol
_atom_type_description
_atom_site_fract_x
_atom_site_fract_y
_atom_site_fract_z
_atom_type_partial_charge
O1    O     O_R   0.488960 0.443750 0.941980 -0.539591
O2    O     O_R   0.823890 0.406510 0.087590 -0.523463
O3    O     O_R   0.999680 0.556250 0.058020 -0.529944
C1    C     C_R   0.655294 0.382485 0.114393 0.934369
O4    O     O_R   0.818360 0.434410 0.944340 -0.532768
O5    O     O_R   0.994110 0.584350 0.913750 -0.543938
C2    C     C_R   0.648857 0.421369 0.923001 0.759241
O6    O     O_R   0.494530 0.415650 0.086250 -0.530322
O7    O     O_3   0.662590 0.549160 0.990130 -0.372787
V1    V     V_3+5 0.935320 0.490880 0.001830 1.493165
O8    O     O_R   0.324180 0.593490 0.912410 -0.545095
C3    C     C_R   0.155041 0.616594 0.885009 0.671637
O9    O     O_R   0.329720 0.565590 0.055660 -0.532251
C4    C     C_R   0.162185 0.579750 0.076123 0.731444
V2    V     V_3+5 0.435990 0.509120 0.998170 1.478490
O10   O     O_3   0.158850 0.450840 0.009870 -0.367741
C5    C     C_3   0.078645 0.701481 0.315189 -0.180717
C6    C     C_3   0.261971 0.691246 0.276126 -0.194870
H1    H     H_    0.370960 0.643999 0.297215 0.113567
C7    C     C_1   0.155956 0.625593 0.121555 -0.180104
C8    C     C_1   0.110051 0.874373 0.378247 -0.178710
C9    C     C_3   0.958453 0.718564 0.245855 -0.112645
C10   C     C_3   0.141534 0.709252 0.207288 0.113131
C11   C     C_3   0.003344 0.808326 0.223615 -0.175878
C12   C     C_3   0.123147 0.790692 0.292476 0.148111
C13   C     C_3   0.186171 0.798552 0.184123 -0.207072
C14   C     C_3   0.301724 0.780423 0.253613 0.390386
C15   C     C_1   0.149847 0.663454 0.160015 -0.044874
C16   C     C_1   0.115864 0.836539 0.339756 0.000985
H2    H     H_    0.815379 0.692274 0.242430 0.110265
C17   C     C_R   0.989032 0.766111 0.874442 -0.180266
C18   C     C_R   0.906788 0.836764 0.871287 -0.213390
C19   C     C_R   0.893925 0.900860 0.806483 0.414955
C20   C     C_R   0.964325 0.893239 0.745047 -0.138022
C21   C     C_R   0.046568 0.821812 0.746522 -0.007932
C22   C     C_R   0.059166 0.756883 0.812623 0.069672
C23   C     C_R   0.119584 0.815101 0.683755 -0.161936
C24   C     C_R   0.205226 0.743341 0.687282 0.072458
C25   C     C_R   0.217931 0.678393 0.753436 0.067998
C26   C     C_R   0.144753 0.685058 0.816177 -0.163620
C27   C     C_R   0.275499 0.734147 0.625388 -0.135897
C28   C     C_R   0.358044 0.663498 0.628683 -0.119899
C29   C     C_R   0.370593 0.600209 0.693159 -0.127702
C30   C     C_R   0.300571 0.607064 0.754836 -0.148330
H3    H     H_    0.998408 0.719214 0.926156 0.121445
H4    H     H_    0.854379 0.841590 0.919711 0.114848
H5    H     H_    0.954800 0.944533 0.696334 0.129589
H6    H     H_    0.266024 0.780971 0.573639 0.103996
H7    H     H_    0.411219 0.657655 0.580793 0.114597
C31   C     C_R   0.648168 0.093384 0.257086 -0.196585
C32   C     C_R   0.667359 0.076043 0.196506 -0.244269
C33   C     C_R   0.679239 0.136399 0.129823 0.350490
C34   C     C_R   0.672178 0.216314 0.124127 0.312629
C35   C     C_R   0.653587 0.235456 0.186740 -0.035850
C36   C     C_R   0.641135 0.172219 0.254038 -0.002049
C37   C     C_R   0.647051 0.315273 0.184007 -0.160241
C38   C     C_R   0.629758 0.331254 0.248065 -0.037594
C39   C     C_R   0.610405 0.266681 0.315100 -0.009399
C40   C     C_R   0.619485 0.187251 0.317564 -0.128451
C41   C     C_R   0.632359 0.410616 0.247281 0.334109
C42   C     C_R   0.606290 0.424027 0.310375 -0.230484
C43   C     C_R   0.581258 0.362143 0.374129 -0.232424
C44   C     C_R   0.584008 0.283765 0.378086 0.346535
H8    H     H_    0.638028 0.043220 0.306644 0.129940
H9    H     H_    0.606276 0.483585 0.310323 0.120993
O11   O     O_R   0.770540 0.084530 0.414050 -0.540857
O12   O     O_R   0.445710 0.065660 0.555720 -0.527148
O13   O     O_R   0.270420 0.915650 0.586190 -0.539201
C45   C     C_R   0.615019 0.078563 0.577335 0.783974
O14   O     O_R   0.441140 0.093540 0.412470 -0.526689
O15   O     O_R   0.265820 0.943740 0.441930 -0.539953
C46   C     C_R   0.610014 0.118240 0.386268 0.806969
O16   O     O_R   0.775150 0.056440 0.558310 -0.537084
O17   O     O_3   0.602370 0.950960 0.510050 -0.378478
V3    V     V_3+5 0.329450 0.009140 0.498150 1.475578
O18   O     O_R   0.935790 0.934280 0.444060 -0.541315
C47   C     C_R   0.103519 0.920175 0.423717 0.711345
O19   O     O_R   0.940370 0.906390 0.587310 -0.543147
C48   C     C_R   0.109413 0.883476 0.614892 0.683478
V4    V     V_3+5 0.828810 0.990710 0.501460 1.450609
O20   O     O_3   0.105780 0.049100 0.489960 -0.362857
C49   C     C_3   0.768200 0.306704 0.728857 -0.183297
C50   C     C_3   0.594367 0.297716 0.682928 -0.181271
H10   H     H_    0.564555 0.337119 0.627155 0.127536
C51   C     C_1   0.625006 0.123850 0.623079 -0.165478
C52   C     C_1   0.638517 0.375638 0.877624 -0.189693
C53   C     C_3   0.807279 0.216316 0.753659 -0.237319
C54   C     C_3   0.633018 0.207938 0.708317 0.097911
C55   C     C_3   0.669426 0.202703 0.816330 0.354162
C56   C     C_3   0.631316 0.291475 0.792428 0.096898
C57   C     C_3   0.498923 0.194009 0.771409 0.342273
C58   C     C_3   0.457136 0.283156 0.747017 -0.256452
C59   C     C_1   0.629896 0.161676 0.661521 0.042610
C60   C     C_1   0.633795 0.337553 0.839395 0.015284
H11   H     H_    0.950275 0.188548 0.757047 0.166807
O21   O     O_3   0.814879 0.971943 0.801407 -0.642513
H12   H     H_    0.772081 0.967909 0.849221 0.286258
H13   H     H_    0.310815 0.555514 0.803287 0.108860
H14   H     H_    0.561319 0.375654 0.421458 0.122697
H15   H     H_    0.672104 0.014645 0.201777 0.143999
O22   O     O_3   0.697020 0.118749 0.069265 -0.631268
H16   H     H_    0.699699 0.060578 0.082603 0.297344
O23   O     O_3   0.682532 0.276022 0.057905 -0.668022
H17   H     H_    0.700315 0.254336 0.020199 0.335349
H18   H     H_    0.033270 0.661803 0.369061 0.123730
O24   O     O_3   0.664465 0.474960 0.185251 -0.654176
H19   H     H_    0.661730 0.524733 0.194644 0.277581
O25   O     O_3   0.559598 0.223884 0.443450 -0.660137
H20   H     H_    0.540383 0.246417 0.480668 0.269511
H21   H     H_    0.879469 0.354075 0.711098 0.130354
H22   H     H_    0.312839 0.309607 0.744654 0.132240
O26   O     O_3   0.360419 0.133723 0.793999 -0.635393
H23   H     H_    0.294203 0.141156 0.834183 0.300773
O27   O     O_3   0.705255 0.153187 0.886732 -0.619899
H24   H     H_    0.726931 0.100148 0.885117 0.301256
O28   O     O_3   0.481437 0.813492 0.258443 -0.649871
H25   H     H_    0.563390 0.801910 0.223810 0.271832
H26   H     H_    0.233437 0.838415 0.130570 0.126331
H27   H     H_    0.897453 0.856724 0.202218 0.131752
H28   H     H_    0.433573 0.545223 0.695356 0.114289

loop_
_geom_bond_atom_site_label_1
_geom_bond_atom_site_label_2
_ccdc_geom_bond_type
C53   C54   S    
O22   H16   S    
C36   C40   A    
C31   H8    S    
C27   C28   A    
C35   C36   A    
C21   C22   A    
C1    O6    A    
O27   H24   S    
C45   C51   S    
O11   V4    S    
C34   C35   A    
O28   H25   S    
O13   V3    S    
C50   C58   S    
C23   C48   S    
C13   C14   S    
C23   C24   A    
C49   H21   S    
C21   C23   A    
C11   C13   S    
C6    H1    S    
C17   C22   A    
O5    C3    A    
C24   C25   A    
O19   V4    S    
C2    C52   S    
O24   H19   S    
V2    O10   S    
C32   H15   S    
O25   H20   S    
C20   C21   A    
C10   C13   S    
C52   C60   T    
C55   O27   S    
O8    V2    S    
C27   H6    S    
O11   C46   A    
C50   H10   S    
C53   H11   S    
C45   O16   A    
O1    V2    S    
C55   C57   S    
O7    V1    S    
C40   C46   S    
C14   O28   S    
O13   C48   A    
C50   C54   S    
O17   V4    S    
O9    C4    A    
C1    C37   S    
C51   C59   T    
O26   H23   S    
C56   C60   S    
C12   C16   S    
C35   C37   A    
C33   O22   S    
O17   V3    S    
C32   C33   A    
C4    C7    S    
C22   C26   A    
O18   C47   A    
C24   C27   A    
C57   C58   S    
O4    C2    A    
O19   C48   A    
V3    O20   S    
C38   C41   A    
C7    C15   T    
C31   C32   A    
C39   C40   A    
C8    C16   T    
C6    C10   S    
C41   C42   A    
O12   C45   A    
C57   O26   S    
C3    C26   S    
O2    C1    A    
C29   C30   A    
C43   C44   A    
C5    H18   S    
C56   C58   S    
C17   C18   A    
C54   C57   S    
C31   C36   A    
O21   H12   S    
C5    C6    S    
C44   O25   S    
C10   C15   S    
C11   C12   S    
O3    C4    A    
O6    V2    S    
C53   C55   S    
C9    C11   S    
O12   V3    S    
C28   C29   A    
O2    V1    S    
C19   O21   S    
O15   C47   A    
C41   O24   S    
C33   C34   A    
C39   C44   A    
C37   C38   A    
C54   C59   S    
C11   H27   S    
C9    H2    S    
O1    C2    A    
C18   H4    S    
C6    C14   S    
O18   V4    S    
V4    O20   S    
O5    V1    S    
O8    C3    A    
C58   H22   S    
C25   C30   A    
C12   C14   S    
C13   H26   S    
C29   H28   S    
C5    C9    S    
C49   C56   S    
C5    C12   S    
C18   C19   A    
O9    V2    S    
O7    V2    S    
O4    V1    S    
O3    V1    S    
V1    O10   S    
O15   V3    S    
C38   C39   A    
C34   O23   S    
O16   V4    S    
C19   C20   A    
C42   C43   A    
C28   H7    S    
C30   H13   S    
C43   H14   S    
C25   C26   A    
C42   H9    S    
O14   V3    S    
C49   C50   S    
C17   H3    S    
C8    C47   S    
O23   H17   S    
C9    C10   S    
O14   C46   A    
C20   H5    S    
C55   C56   S    
C49   C53   S    
