data_mof_unit_60750.cif
_audit_creation_date              2012-12-10T16:51:52-0500
_audit_creation_method            fapswitch 2.2
_symmetry_space_group_name_H-M    P1
_symmetry_Int_Tables_number       1
_space_group_crystal_system       monoclinic
_cell_length_a                    30.102301
_cell_length_b                    30.985051
_cell_length_c                    21.601996
_cell_angle_alpha                 90.0
_cell_angle_beta                  135.032956
_cell_angle_gamma                 90.0
_cell_volume                      14239.0444895

loop_
_atom_site_label
_atom_site_type_symbol
_atom_type_description
_atom_site_fract_x
_atom_site_fract_y
_atom_site_fract_z
_atom_type_partial_charge
C1    C     C_R   0.688479 0.809243 0.880196 0.928555
C2    C     C_R   0.522453 0.670982 0.998669 -0.214696
C3    C     C_R   0.663032 0.250188 0.999827 0.900966
C4    C     C_R   0.406658 0.789007 0.998453 -0.255840
C5    C     C_R   0.593342 0.789007 0.001547 -0.255840
C6    C     C_R   0.906658 0.289007 0.998453 -0.255839
C7    C     C_R   0.093342 0.289007 0.001547 -0.255839
C8    C     C_R   0.385294 0.749752 0.001224 -0.057200
C9    C     C_R   0.614705 0.749752 0.998776 -0.057201
C10   C     C_R   0.885294 0.249752 0.001224 -0.057200
C11   C     C_R   0.114705 0.249752 0.998776 -0.057200
C12   C     C_R   0.409394 0.710467 0.003929 -0.257250
C13   C     C_R   0.977547 0.170982 0.001331 -0.214695
C14   C     C_R   0.590605 0.710467 0.996071 -0.257249
C15   C     C_R   0.909394 0.210467 0.003929 -0.257249
C16   C     C_R   0.090605 0.210467 0.996071 -0.257249
C17   C     C_R   0.454610 0.710121 0.002041 0.120450
C18   C     C_R   0.545389 0.710121 0.997959 0.120450
C19   C     C_R   0.954610 0.210120 0.002041 0.120450
C20   C     C_R   0.045389 0.210120 0.997959 0.120450
C21   C     C_R   0.476982 0.749718 0.000376 0.057769
C22   C     C_R   0.523018 0.749718 0.999624 0.057769
C23   C     C_R   0.976982 0.249718 0.000376 0.057769
C24   C     C_R   0.022453 0.170982 0.998669 -0.214696
C25   C     C_R   0.023018 0.249718 0.999624 0.057769
C26   C     C_R   0.523441 0.828466 0.000618 -0.215769
C27   C     C_R   0.476559 0.828466 0.999381 -0.215769
C28   C     C_R   0.023441 0.328466 0.000618 -0.215769
C29   C     C_R   0.976559 0.328466 0.999381 -0.215769
C30   C     C_2   0.596233 0.909528 0.752263 -0.154708
C31   C     C_2   0.403767 0.909528 0.247737 -0.154706
C32   C     C_2   0.096235 0.409529 0.752264 -0.154706
C33   C     C_R   0.311521 0.809243 0.119804 0.928555
C34   C     C_2   0.903765 0.409529 0.247735 -0.154708
C35   C     C_2   0.599050 0.911848 0.693322 -0.329844
C36   C     C_2   0.400950 0.911848 0.306678 -0.329841
C37   C     C_2   0.099049 0.411848 0.693321 -0.329842
C38   C     C_2   0.900950 0.411848 0.306679 -0.329843
C39   C     C_2   0.636197 0.878734 0.824493 -0.154490
C40   C     C_2   0.363802 0.878734 0.175507 -0.154491
C41   C     C_2   0.136199 0.378734 0.824494 -0.154492
C42   C     C_2   0.863800 0.378734 0.175505 -0.154492
C43   C     C_2   0.649379 0.840677 0.811411 -0.333251
C44   C     C_R   0.188479 0.309243 0.880196 0.928556
C45   C     C_2   0.350621 0.840677 0.188589 -0.333251
C46   C     C_2   0.149378 0.340677 0.811411 -0.333254
C47   C     C_2   0.850621 0.340678 0.188589 -0.333254
C48   C     C_R   0.132976 0.749621 0.079529 -0.253792
C49   C     C_R   0.867024 0.749621 0.920471 -0.253791
C50   C     C_R   0.632976 0.249621 0.079529 -0.253790
C51   C     C_R   0.367024 0.249621 0.920471 -0.253791
C52   C     C_R   0.115221 0.750784 0.999789 -0.056502
C53   C     C_R   0.884779 0.750784 0.000211 -0.056502
C54   C     C_R   0.615221 0.250784 0.999789 -0.056502
C55   C     C_R   0.811521 0.309243 0.119804 0.928556
C56   C     C_R   0.384779 0.250784 0.000211 -0.056502
C57   C     C_R   0.052019 0.752376 0.920128 -0.247368
C58   C     C_R   0.947981 0.752376 0.079872 -0.247369
C59   C     C_R   0.552019 0.252376 0.920128 -0.247371
C60   C     C_R   0.447981 0.252376 0.079872 -0.247369
C61   C     C_R   0.662929 0.749873 0.999614 0.884390
C62   C     C_R   0.337071 0.749873 0.000386 0.884390
C63   C     C_R   0.162929 0.249873 0.999614 0.884390
C64   C     C_R   0.837071 0.249873 0.000386 0.884392
C65   C     C_R   0.005543 0.751919 0.919534 0.119881
C66   C     C_R   0.453283 0.789326 0.999393 0.121332
C67   C     C_R   0.994457 0.751919 0.080465 0.119881
C68   C     C_R   0.505543 0.251919 0.919534 0.119882
C69   C     C_R   0.494457 0.251919 0.080465 0.119882
C70   C     C_R   0.023189 0.751324 0.999957 0.058084
C71   C     C_R   0.976811 0.751324 0.000043 0.058084
C72   C     C_R   0.523189 0.251324 0.999957 0.058085
C73   C     C_R   0.476811 0.251323 0.000043 0.058084
C74   C     C_R   0.087211 0.750587 0.080292 0.121626
C75   C     C_R   0.912789 0.750587 0.919708 0.121626
C76   C     C_R   0.587211 0.250587 0.080292 0.121625
C77   C     C_R   0.546716 0.789326 0.000607 0.121332
C78   C     C_R   0.412789 0.250587 0.919708 0.121625
C79   C     C_R   0.941905 0.751798 0.840140 -0.212836
C80   C     C_R   0.058095 0.751798 0.159860 -0.212836
C81   C     C_R   0.441905 0.251798 0.840140 -0.212835
C82   C     C_R   0.558095 0.251798 0.159860 -0.212836
C83   C     C_R   0.895690 0.750816 0.840225 -0.213640
C84   C     C_R   0.104310 0.750816 0.159774 -0.213640
C85   C     C_R   0.395690 0.250816 0.840225 -0.213640
C86   C     C_R   0.604310 0.250816 0.159774 -0.213640
C87   C     C_2   0.907574 0.591517 0.251013 -0.288740
C88   C     C_R   0.953283 0.289326 0.999393 0.121332
C89   C     C_2   0.092424 0.591518 0.748986 -0.288740
C90   C     C_2   0.407574 0.091517 0.251013 -0.288740
C91   C     C_2   0.592428 0.091515 0.748989 -0.288745
C92   C     C_2   0.900842 0.587642 0.305664 -0.374131
C93   C     C_2   0.099158 0.587641 0.694337 -0.374132
C94   C     C_2   0.400842 0.087642 0.305664 -0.374130
C95   C     C_2   0.599158 0.087642 0.694335 -0.374131
C96   C     C_2   0.867524 0.621760 0.176950 0.485091
C97   C     C_2   0.132474 0.621761 0.823049 0.485089
C98   C     C_2   0.367524 0.121760 0.176950 0.485091
C99   C     C_R   0.046716 0.289326 0.000607 0.121332
C100  C     C_2   0.632479 0.121759 0.823053 0.485092
C101  C     C_2   0.851402 0.659093 0.188281 -0.376611
C102  C     C_2   0.148598 0.659093 0.811718 -0.376608
C103  C     C_2   0.351403 0.159093 0.188281 -0.376611
C104  C     C_2   0.648596 0.159093 0.811719 -0.376615
C105  C     C_R   0.060882 0.558394 0.621103 0.960852
C106  C     C_R   0.939118 0.558394 0.378897 0.960850
C107  C     C_R   0.560882 0.058394 0.621102 0.960851
C108  C     C_R   0.439118 0.058394 0.378897 0.960850
C109  C     C_R   0.811804 0.690712 0.119703 0.974460
C110  C     C_R   0.477547 0.670982 0.001331 -0.214696
C111  C     C_R   0.188196 0.690712 0.880297 0.974463
C112  C     C_R   0.311804 0.190712 0.119703 0.974460
C113  C     C_R   0.688196 0.190712 0.880297 0.974455
C114  C     C_R   0.560944 0.941607 0.621099 0.929149
C115  C     C_R   0.439056 0.941607 0.378901 0.929147
C116  C     C_R   0.060944 0.441607 0.621099 0.929147
C117  C     C_R   0.939056 0.441607 0.378901 0.929146
C118  C     C_R   0.836968 0.750188 0.000173 0.900970
C119  C     C_R   0.163032 0.750188 0.999827 0.900971
C120  C     C_R   0.336968 0.250188 0.000173 0.900970
H1    H     H_    0.387660 0.819173 0.997076 0.146699
H2    H     H_    0.072049 0.752139 0.221863 0.149479
H3    H     H_    0.427951 0.252139 0.778137 0.149479
H4    H     H_    0.572049 0.252138 0.221863 0.149479
H5    H     H_    0.846660 0.750398 0.778285 0.148895
H6    H     H_    0.153339 0.750398 0.221715 0.148895
H7    H     H_    0.346660 0.250398 0.778285 0.148895
H8    H     H_    0.653339 0.250398 0.221715 0.148895
H9    H     H_    0.940855 0.571511 0.258650 0.172522
H10   H     H_    0.059141 0.571514 0.741346 0.172523
H11   H     H_    0.440855 0.071511 0.258650 0.172522
H12   H     H_    0.612340 0.819173 0.002924 0.146699
H13   H     H_    0.559149 0.071509 0.741354 0.172523
H14   H     H_    0.863272 0.604263 0.293009 0.155274
H15   H     H_    0.136730 0.604262 0.706993 0.155275
H16   H     H_    0.363272 0.104264 0.293009 0.155274
H17   H     H_    0.636726 0.104265 0.706988 0.155275
H18   H     H_    0.871783 0.668394 0.252554 0.113589
H19   H     H_    0.128220 0.668393 0.747447 0.113587
H20   H     H_    0.371783 0.168394 0.252554 0.113589
H21   H     H_    0.628212 0.168395 0.747444 0.113592
H22   H     H_    0.391789 0.680327 0.005365 0.150351
H23   H     H_    0.887660 0.319173 0.997076 0.146699
H24   H     H_    0.608211 0.680327 0.994635 0.150351
H25   H     H_    0.891789 0.180327 0.005365 0.150352
H26   H     H_    0.108211 0.180327 0.994635 0.150351
H27   H     H_    0.460500 0.640449 0.002323 0.150116
H28   H     H_    0.539500 0.640449 0.997676 0.150116
H29   H     H_    0.960500 0.140449 0.002323 0.150116
H30   H     H_    0.039500 0.140449 0.997677 0.150116
H31   H     H_    0.541259 0.859000 0.001133 0.147848
H32   H     H_    0.458741 0.859000 0.998866 0.147848
H33   H     H_    0.041259 0.359000 0.001133 0.147848
H34   H     H_    0.112339 0.319173 0.002924 0.146699
H35   H     H_    0.958741 0.359000 0.998866 0.147848
H36   H     H_    0.566541 0.931273 0.749478 0.164661
H37   H     H_    0.433458 0.931274 0.250520 0.164660
H38   H     H_    0.066545 0.431276 0.749483 0.164659
H39   H     H_    0.933455 0.431275 0.250517 0.164660
H40   H     H_    0.633929 0.893621 0.701849 0.157783
H41   H     H_    0.366071 0.893620 0.298152 0.157782
H42   H     H_    0.133927 0.393619 0.701845 0.157782
H43   H     H_    0.866073 0.393619 0.298154 0.157783
H44   H     H_    0.652748 0.886629 0.887025 0.164363
H45   H     H_    0.039249 0.752950 0.858916 0.149429
H46   H     H_    0.347251 0.886629 0.112974 0.164364
H47   H     H_    0.152753 0.386631 0.887028 0.164366
H48   H     H_    0.847247 0.386631 0.112972 0.164367
H49   H     H_    0.626972 0.830813 0.746367 0.156485
H50   H     H_    0.373029 0.830813 0.253634 0.156485
H51   H     H_    0.126968 0.330812 0.746365 0.156486
H52   H     H_    0.873031 0.330813 0.253634 0.156487
H53   H     H_    0.182368 0.748758 0.140698 0.147516
H54   H     H_    0.817631 0.748757 0.859302 0.147516
H55   H     H_    0.682368 0.248757 0.140698 0.147517
H56   H     H_    0.960751 0.752950 0.141084 0.149429
H57   H     H_    0.317631 0.248757 0.859302 0.147516
H58   H     H_    0.865859 0.584176 0.103741 0.326216
H59   H     H_    0.134133 0.584178 0.896255 0.326216
H60   H     H_    0.365859 0.084175 0.103740 0.326216
H61   H     H_    0.634153 0.084170 0.896267 0.326216
H62   H     H_    0.539249 0.252950 0.858916 0.149429
H63   H     H_    0.460751 0.252950 0.141084 0.149429
H64   H     H_    0.927951 0.752139 0.778137 0.149479
O1    O     O_R   0.679230 0.769690 0.858450 -0.628473
O2    O     O_R   0.492070 0.954750 0.409550 -0.619358
O3    O     O_R   0.007930 0.454750 0.590450 -0.619357
O4    O     O_R   0.992070 0.454750 0.409550 -0.619357
O5    O     O_R   0.582530 0.954770 0.590430 -0.622205
O6    O     O_R   0.417470 0.954770 0.409570 -0.622205
O7    O     O_R   0.082530 0.454770 0.590430 -0.622205
O8    O     O_R   0.917470 0.454770 0.409570 -0.622205
O9    O     O_R   0.730270 0.820760 0.960570 -0.617734
O10   O     O_R   0.269730 0.820760 0.039430 -0.617735
O11   O     O_R   0.230270 0.320760 0.960570 -0.617735
O12   O     O_R   0.320770 0.769690 0.141550 -0.628474
O13   O     O_R   0.769730 0.320760 0.039430 -0.617735
O14   O     O_R   0.658400 0.724440 0.948940 -0.627174
O15   O     O_R   0.341600 0.724440 0.051060 -0.627175
O16   O     O_R   0.158400 0.224440 0.948940 -0.627174
O17   O     O_R   0.841600 0.224440 0.051060 -0.627175
O18   O     O_R   0.709450 0.775510 0.051050 -0.627143
O19   O     O_R   0.290550 0.775510 0.948950 -0.627143
O20   O     O_R   0.209450 0.275510 0.051050 -0.627143
O21   O     O_R   0.790550 0.275510 0.948950 -0.627142
O22   O     O_R   0.769710 0.679220 0.039380 -0.559667
O23   O     O_R   0.179230 0.269690 0.858450 -0.628474
O24   O     O_R   0.230290 0.679220 0.960620 -0.559670
O25   O     O_R   0.269710 0.179220 0.039380 -0.559667
O26   O     O_R   0.730290 0.179220 0.960620 -0.559662
O27   O     O_R   0.820750 0.730290 0.141500 -0.641006
O28   O     O_R   0.179250 0.730290 0.858500 -0.641005
O29   O     O_R   0.320750 0.230290 0.141500 -0.641006
O30   O     O_R   0.679250 0.230290 0.858500 -0.641006
O31   O     O_R   0.790530 0.724470 0.948890 -0.612251
O32   O     O_R   0.209470 0.724470 0.051110 -0.612250
O33   O     O_R   0.290530 0.224470 0.948890 -0.612251
O34   O     O_R   0.820770 0.269690 0.141550 -0.628474
O35   O     O_R   0.709470 0.224470 0.051110 -0.612252
O36   O     O_R   0.841580 0.775540 0.051010 -0.627385
O37   O     O_R   0.158420 0.775540 0.948990 -0.627384
O38   O     O_R   0.341580 0.275540 0.051010 -0.627385
O39   O     O_R   0.658420 0.275540 0.948990 -0.627384
O40   O     O_R   0.007900 0.545210 0.590430 -0.619716
O41   O     O_R   0.992100 0.545210 0.409570 -0.619715
O42   O     O_R   0.507900 0.045210 0.590430 -0.619715
O43   O     O_R   0.492100 0.045210 0.409570 -0.619715
O44   O     O_3   0.849527 0.613090 0.098979 -0.742269
O45   O     O_R   0.082500 0.545230 0.590410 -0.624274
O46   O     O_3   0.150468 0.613092 0.901017 -0.742270
O47   O     O_3   0.349526 0.113090 0.098979 -0.742268
O48   O     O_3   0.650482 0.113086 0.901027 -0.742265
O49   O     O_R   0.917500 0.545230 0.409590 -0.624273
O50   O     O_R   0.582500 0.045230 0.590410 -0.624273
O51   O     O_R   0.417500 0.045230 0.409590 -0.624274
O52   O     O_R   0.507930 0.954750 0.590450 -0.619358
Zn1   Zn    Zn3+2 0.715910 0.715890 0.931790 0.991905
Zn2   Zn    Zn3+2 0.549820 0.999980 0.500010 0.954412
Zn3   Zn    Zn3+2 0.950180 0.499980 0.499990 0.954411
Zn4   Zn    Zn3+2 0.049820 0.499980 0.500010 0.954412
Zn5   Zn    Zn3+2 0.284090 0.715890 0.068210 0.991904
Zn6   Zn    Zn3+2 0.215910 0.215890 0.931790 0.991905
Zn7   Zn    Zn3+2 0.784090 0.215890 0.068210 0.991907
Zn8   Zn    Zn3+2 0.784070 0.784090 0.068160 0.955167
Zn9   Zn    Zn3+2 0.215930 0.784090 0.931840 0.955167
Zn10  Zn    Zn3+2 0.284070 0.284090 0.068160 0.955167
Zn11  Zn    Zn3+2 0.715930 0.284090 0.931840 0.955166
Zn12  Zn    Zn3+2 0.450180 0.999980 0.499990 0.954411

loop_
_geom_bond_atom_site_label_1
_geom_bond_atom_site_label_2
_ccdc_geom_bond_type
C46   H51   S    
C71   C75   A    
C64   O17   A    
H60   O47   S    
C27   H32   S    
C65   C79   A    
C106  O49   A    
O16   Zn6   S    
C21   C66   A    
C2    C18   A    
C33   C45   S    
C14   C18   A    
C19   C23   A    
C34   C42   S    
O15   Zn5   S    
C119  O37   A    
C4    C8    A    
C75   C83   A    
C45   H50   S    
C47   H52   S    
C43   H49   S    
C37   C116  S    
C80   H2    S    
C63   O16   A    
C15   C19   A    
O36   Zn8   S    
C94   C108  S    
C26   C27   A    
C50   C54   A    
C7    C99   A    
C30   C35   D    
C81   H3    S    
C9    C61   S    
C68   C81   A    
C96   O44   S    
C26   H31   S    
O14   Zn1   S    
C62   O15   A    
C11   C63   S    
C10   C15   A    
C61   O18   A    
C3    C54   S    
C57   H45   S    
C20   C25   A    
H61   O48   S    
C2    H28   S    
C65   C70   A    
C107  O42   A    
C100  C104  D    
C6    C88   A    
C79   H64   S    
C35   C114  S    
C16   H26   S    
C51   C56   A    
O50   Zn2   S    
O52   Zn12  S    
C35   H40   S    
C29   C88   A    
C3    O39   A    
C69   C82   A    
C93   C105  S    
C31   C40   S    
O2    Zn2   S    
C115  O6    A    
C1    C43   S    
C5    H12   S    
O1    Zn1   S    
C20   C24   A    
C33   O12   A    
C44   C46   S    
C120  O33   A    
C44   O11   A    
O10   Zn9   S    
O19   Zn9   S    
C12   C17   A    
C70   C74   A    
C94   H16   S    
C41   C46   D    
C49   C75   A    
C69   C73   A    
C118  O31   A    
O31   Zn1   S    
C91   C100  S    
C31   H37   S    
C40   H46   S    
C97   C102  D    
C4    H1    S    
C8    C12   A    
C29   H35   S    
C34   H39   S    
C60   H63   S    
C30   H36   S    
C108  O51   A    
C119  O32   A    
C114  O5    A    
C18   C22   A    
C21   C22   A    
C17   C110  A    
C38   C117  S    
C102  C111  S    
O29   Zn10  S    
C113  O30   A    
C83   H5    S    
O5    Zn2   S    
C82   H4    S    
C49   H54   S    
O11   Zn10  S    
C42   H48   S    
C90   C94   D    
C55   O34   A    
C32   H38   S    
C54   C59   A    
C84   H6    S    
C40   C45   D    
C111  O28   A    
C116  O3    A    
C14   H24   S    
C95   H17   S    
C26   C77   A    
C63   O20   A    
C13   C19   A    
C86   H8    S    
C80   C84   A    
C48   C74   A    
C100  O48   S    
O24   Zn5   S    
C52   C57   A    
O23   Zn6   S    
C57   C65   A    
C15   H25   S    
C115  O2    A    
C53   C118  S    
C72   C73   A    
O8    Zn3   S    
C114  O52   A    
C93   H15   S    
C32   C37   D    
C73   C78   A    
O13   Zn11  S    
C44   O23   A    
C17   C21   A    
C89   H10   S    
C98   O47   S    
C13   C24   A    
C89   C97   S    
C103  C112  S    
H59   O46   S    
C105  O45   A    
C61   O14   A    
C59   H62   S    
C1    O9    A    
C9    C14   A    
C5    C9    A    
O4    Zn4   S    
C117  O8    A    
C50   C76   A    
C59   C68   A    
C11   C16   A    
C55   O13   A    
C7    C11   A    
C97   O46   S    
C91   H13   S    
C68   C72   A    
O18   Zn8   S    
C87   C96   S    
C106  O41   A    
C72   C76   A    
O35   Zn7   S    
C109  O27   A    
C16   C20   A    
O34   Zn7   S    
O45   Zn4   S    
O30   Zn11  S    
C95   C107  S    
C53   C58   A    
C90   H11   S    
C28   C99   A    
C92   C106  S    
C38   H43   S    
C107  O50   A    
C33   O10   A    
C23   C88   A    
C104  H21   S    
C118  O36   A    
C28   H33   S    
O9    Zn8   S    
C85   H7    S    
C32   C41   S    
C5    C77   A    
C110  H27   S    
C76   C86   A    
O51   Zn12  S    
C70   C71   A    
C87   C92   D    
C78   C85   A    
C47   C55   S    
C48   H53   S    
O7    Zn4   S    
O33   Zn6   S    
C28   C29   A    
C24   H30   S    
C120  O38   A    
C34   C38   D    
H58   O44   S    
O27   Zn8   S    
C116  O7    A    
C58   H56   S    
C67   C80   A    
O38   Zn10  S    
C22   C77   A    
C74   C84   A    
O28   Zn9   S    
O21   Zn11  S    
C117  O4    A    
O25   Zn6   S    
O26   Zn7   S    
C39   C43   D    
C101  H18   S    
C51   H57   S    
O42   Zn12  S    
C56   C120  S    
C108  O43   A    
C1    O1    A    
O6    Zn12  S    
C105  O40   A    
C64   O21   A    
O32   Zn5   S    
O17   Zn7   S    
O12   Zn5   S    
C39   H44   S    
O39   Zn11  S    
C10   C64   S    
C87   H9    S    
C25   C99   A    
O49   Zn3   S    
C51   C78   A    
C13   H29   S    
C27   C66   A    
C82   C86   A    
C103  H20   S    
C112  O25   A    
C79   C83   A    
O43   Zn2   S    
C112  O29   A    
C36   H41   S    
C7    H34   S    
O37   Zn9   S    
C60   C69   A    
C49   C53   A    
C41   H47   S    
C12   H22   S    
C30   C39   S    
C113  O26   A    
O22   Zn1   S    
C67   C71   A    
C102  H19   S    
C23   C25   A    
C89   C93   D    
C109  O22   A    
O40   Zn3   S    
O20   Zn10  S    
C62   O19   A    
C6    C10   A    
C91   C95   D    
C104  C113  S    
C52   C119  S    
C56   C60   A    
C58   C67   A    
C48   C52   A    
C42   C47   D    
C4    C66   A    
C3    O35   A    
C8    C62   S    
O41   Zn4   S    
C31   C36   D    
C50   H55   S    
C6    H23   S    
C96   C101  D    
C36   C115  S    
C101  C109  S    
C111  O24   A    
C90   C98   S    
C81   C85   A    
C92   H14   S    
C98   C103  D    
O3    Zn3   S    
C37   H42   S    
C2    C110  A    
