data_mof_unit_10732.cif
_audit_creation_date              2012-12-10T16:37:25-0500
_audit_creation_method            fapswitch 2.2
_symmetry_space_group_name_H-M    P1
_symmetry_Int_Tables_number       1
_space_group_crystal_system       triclinic
_cell_length_a                    17.007341
_cell_length_b                    16.940103
_cell_length_c                    16.918718
_cell_angle_alpha                 65.110569
_cell_angle_beta                  65.011861
_cell_angle_gamma                 65.298251
_cell_volume                      3833.07518455

loop_
_atom_site_label
_atom_site_type_symbol
_atom_type_description
_atom_site_fract_x
_atom_site_fract_y
_atom_site_fract_z
_atom_type_partial_charge
C1    C     C_R   0.403728 0.101171 0.628509 0.451851
C2    C     C_R   0.478959 0.676673 0.921192 0.470943
C3    C     C_3   0.522238 0.699117 0.768684 -0.409254
C4    C     C_3   0.992227 0.696180 0.233593 -0.326002
C5    C     C_3   0.809737 0.463715 0.773176 -0.450575
C6    C     C_3   0.309400 0.102129 0.811138 -0.009855
C7    C     C_3   0.658624 0.790592 0.313061 0.001195
C8    C     C_3   0.101698 0.816426 0.301865 -0.029890
C9    C     C_3   0.826138 0.276828 0.688430 -0.058085
C10   C     C_3   0.818806 0.316954 0.081776 -0.025831
C11   C     C_3   0.307458 0.668849 0.796619 -0.047677
C12   C     C_3   0.120460 0.067259 0.623264 -0.068452
C13   C     C_R   0.059213 0.548637 0.297956 0.462480
C14   C     C_3   0.871621 0.887134 0.411161 -0.122987
C15   C     C_3   0.426438 0.180927 0.211271 -0.342216
C16   C     C_3   0.414534 0.867195 0.887378 -0.137734
C17   C     C_3   0.204960 0.424706 0.182283 -0.358053
C18   C     C_3   0.009555 0.336388 0.842536 -0.123695
C19   C     C_R   0.954207 0.454272 0.681565 0.440165
C20   C     C_R   0.962572 0.179468 0.438420 1.007310
C21   C     C_R   0.038339 0.820614 0.561195 1.002061
C22   C     C_R   0.179698 0.438368 0.962532 0.999065
C23   C     C_R   0.820752 0.561416 0.037846 0.996942
C24   C     C_R   0.437534 0.963788 0.179895 1.014836
C25   C     C_R   0.561618 0.038118 0.820603 1.010893
C26   C     C_R   0.569575 0.822891 0.020743 1.037010
C27   C     C_R   0.595540 0.961149 0.334942 0.387170
C28   C     C_R   0.430818 0.177226 0.977640 1.018152
C29   C     C_R   0.029365 0.565964 0.820830 0.970912
C30   C     C_R   0.976440 0.431139 0.177378 1.040910
C31   C     C_R   0.823322 0.020704 0.569696 1.043136
C32   C     C_R   0.176939 0.977846 0.431494 1.004070
C33   C     C_R   0.443170 0.091994 0.691489 0.413149
C34   C     C_R   0.554209 0.931747 0.299716 0.456315
C35   C     C_R   0.091179 0.696527 0.436409 0.421842
C36   C     C_R   0.943948 0.294028 0.554643 0.448651
C37   C     C_R   0.692257 0.439821 0.093948 0.413471
C38   C     C_R   0.104105 0.633535 0.394189 0.428090
C39   C     C_R   0.300366 0.555525 0.933247 0.454424
C40   C     C_R   0.264159 0.036212 0.516714 0.403603
C41   C     C_R   0.732581 0.936251 0.513080 0.400751
C42   C     C_R   0.484885 0.260964 0.065336 0.457085
C43   C     C_R   0.514968 0.727994 0.937902 0.399514
C44   C     C_R   0.060787 0.489369 0.259108 0.462268
C45   C     C_R   0.999316 0.471619 0.722468 0.410244
C46   C     C_R   0.544832 0.016187 0.546216 -0.135350
C47   C     C_R   0.453753 0.999624 0.449180 -0.140833
C48   C     C_R   0.023994 0.546066 0.535574 -0.114334
C49   C     C_R   0.982203 0.328549 0.587625 0.419884
C50   C     C_R   0.005307 0.448131 0.447166 -0.114757
C51   C     C_R   0.546970 0.538213 0.020949 -0.125256
C52   C     C_R   0.446074 0.449120 0.006971 -0.126225
C53   C     C_R   0.593821 0.974772 0.476340 -0.028362
C54   C     C_R   0.405336 0.029340 0.527040 -0.035309
C55   C     C_R   0.987670 0.472410 0.586415 -0.024021
C56   C     C_R   0.039353 0.524291 0.393996 -0.075670
C57   C     C_R   0.479021 0.587667 0.977743 -0.029233
C58   C     C_R   0.519213 0.396403 0.044992 -0.080286
C59   C     C_R   0.548859 0.978955 0.419349 -0.036294
C60   C     C_R   0.628053 0.398448 0.109451 0.431498
C61   C     C_R   0.450426 0.048828 0.567650 -0.055058
C62   C     C_R   0.420805 0.544332 0.982738 -0.025874
C63   C     C_R   0.565127 0.442512 0.058826 -0.074006
C64   C     C_R   0.989277 0.417467 0.541721 -0.056857
C65   C     C_R   0.054207 0.569890 0.439340 -0.067218
C66   C     C_R   0.539230 0.057240 0.672165 -0.094856
C67   C     C_R   0.458247 0.954743 0.326092 -0.111051
C68   C     C_R   0.059906 0.673363 0.533984 -0.077130
C69   C     C_R   0.956832 0.323364 0.459129 -0.088410
C70   C     C_R   0.672880 0.536242 0.058602 -0.116566
C71   C     C_R   0.337262 0.593623 0.964585 0.388263
C72   C     C_R   0.324635 0.459618 0.954921 -0.094037
C73   C     C_R   0.312137 0.002736 0.437673 -0.102182
C74   C     C_R   0.685770 0.994134 0.571254 -0.087867
C75   C     C_R   0.424539 0.311973 0.012262 -0.133166
C76   C     C_R   0.571805 0.682114 0.996041 -0.102707
C77   C     C_R   0.009590 0.426666 0.310918 -0.137064
C78   C     C_R   0.024272 0.553971 0.677521 -0.090130
C79   C     C_R   0.588645 0.060669 0.720773 -0.120514
C80   C     C_R   0.410469 0.944086 0.280274 -0.136686
C81   C     C_R   0.062100 0.720940 0.586187 -0.128518
C82   C     C_R   0.314534 0.031019 0.567812 0.479935
C83   C     C_R   0.941569 0.278923 0.412840 -0.140396
C84   C     C_R   0.721750 0.587701 0.059194 -0.131241
C85   C     C_R   0.279424 0.412690 0.941645 -0.164829
C86   C     C_R   0.272240 0.973390 0.397395 -0.244158
C87   C     C_R   0.727659 0.025751 0.606524 -0.219514
C88   C     C_R   0.392212 0.272779 0.975404 -0.212278
C89   C     C_R   0.606810 0.726095 0.025681 -0.217766
C90   C     C_R   0.973664 0.392784 0.272618 -0.223875
C91   C     C_R   0.044660 0.596591 0.721677 -0.188499
C92   C     C_R   0.674181 0.068646 0.674589 0.277343
C93   C     C_R   0.682597 0.919841 0.475151 0.467984
C94   C     C_R   0.326689 0.932681 0.327750 0.320297
C95   C     C_R   0.073968 0.673439 0.670866 0.314128
C96   C     C_R   0.928991 0.326597 0.328800 0.310664
C97   C     C_R   0.676080 0.673674 0.066203 0.275158
C98   C     C_R   0.326752 0.328573 0.930268 0.278804
C99   C     C_R   0.589915 0.023547 0.595787 -0.089627
C100  C     C_R   0.407905 0.985933 0.404272 -0.107103
C101  C     C_R   0.034836 0.592164 0.582442 -0.097411
C102  C     C_R   0.989579 0.400155 0.405869 -0.094265
C103  C     C_R   0.596352 0.585366 0.026517 -0.103024
C104  C     C_R   0.542101 0.300282 0.066932 0.457627
C105  C     C_R   0.398795 0.407057 0.991038 -0.109792
C106  C     C_3   0.339079 0.246399 0.556169 -0.299434
C107  C     C_3   0.688326 0.041800 0.220513 -0.227978
C108  C     C_3   0.248700 0.556036 0.330973 -0.287001
C109  C     C_3   0.102612 0.263528 0.644673 -0.265365
C110  C     C_3   0.549188 0.334916 0.254385 -0.253100
C111  C     C_3   0.221892 0.683511 0.047627 -0.225688
C112  C     C_3   0.298656 0.925318 0.706770 -0.426233
C113  C     C_3   0.702599 0.768352 0.517515 -0.386506
C114  C     C_3   0.690600 0.234827 0.004548 -0.332499
H1    H     H_    0.374589 0.236092 0.487350 0.137945
H2    H     H_    0.114970 0.326392 0.635506 0.193289
H3    H     H_    0.144430 0.240923 0.582450 0.189565
H4    H     H_    0.126685 0.211337 0.703074 0.209972
H5    H     H_    0.484986 0.356190 0.238221 0.131710
H6    H     H_    0.550055 0.386895 0.277752 0.153368
H7    H     H_    0.550837 0.270981 0.311892 0.184371
H8    H     H_    0.190401 0.754174 0.051990 0.172860
H9    H     H_    0.244064 0.640047 0.109785 0.200050
H10   H     H_    0.169212 0.661903 0.046032 0.214940
H11   H     H_    0.373166 0.893981 0.694075 0.188343
H12   H     H_    0.379071 0.271742 0.573091 0.200822
H13   H     H_    0.271619 0.889267 0.686769 0.157388
H14   H     H_    0.266844 0.915493 0.781222 0.207950
H15   H     H_    0.628526 0.777153 0.550493 0.156210
H16   H     H_    0.735860 0.753235 0.568625 0.188986
H17   H     H_    0.732016 0.708462 0.491883 0.190055
H18   H     H_    0.702296 0.301891 0.960102 0.145676
H19   H     H_    0.675219 0.204891 0.967358 0.181594
H20   H     H_    0.754618 0.188631 0.020586 0.173192
H21   H     H_    0.558126 0.625371 0.777033 0.166722
H22   H     H_    0.570257 0.736080 0.753405 0.194824
H23   H     H_    0.274012 0.300295 0.553031 0.178991
H24   H     H_    0.496970 0.726864 0.708798 0.181477
H25   H     H_    0.947754 0.706655 0.301218 0.154647
H26   H     H_    0.956815 0.677911 0.204329 0.186913
H27   H     H_    0.005390 0.761853 0.186972 0.177650
H28   H     H_    0.782569 0.523084 0.719778 0.174030
H29   H     H_    0.817548 0.487305 0.820988 0.163698
H30   H     H_    0.758947 0.425409 0.813199 0.196425
H31   H     H_    0.703278 0.258278 0.567611 0.377587
H32   H     H_    0.373841 0.744719 0.244737 0.374099
H33   H     H_    0.213780 0.802654 0.612138 0.351722
H34   H     H_    0.760013 0.042474 0.187022 0.170508
H35   H     H_    0.717914 0.416125 0.290675 0.384928
H36   H     H_    0.562373 0.687890 0.257853 0.371634
H37   H     H_    0.314624 0.429666 0.734046 0.376889
H38   H     H_    0.311207 0.041216 0.799801 0.066126
H39   H     H_    0.250952 0.159564 0.792526 0.208934
H40   H     H_    0.297057 0.084942 0.885427 0.145457
H41   H     H_    0.623630 0.781035 0.387583 0.086266
H42   H     H_    0.726366 0.798685 0.294122 0.194439
H43   H     H_    0.670294 0.725567 0.304361 0.219956
H44   H     H_    0.042863 0.803148 0.301976 0.035862
H45   H     H_    0.650145 0.102056 0.246582 0.200049
H46   H     H_    0.160958 0.798520 0.243786 0.204693
H47   H     H_    0.083036 0.890720 0.289418 0.150015
H48   H     H_    0.802577 0.352703 0.666144 0.118817
H49   H     H_    0.856670 0.250739 0.744354 0.186974
H50   H     H_    0.764119 0.255920 0.718005 0.234264
H51   H     H_    0.814033 0.336384 0.011857 0.028459
H52   H     H_    0.798703 0.253786 0.124914 0.185414
H53   H     H_    0.891372 0.301516 0.073794 0.163267
H54   H     H_    0.381788 0.633672 0.780177 0.114649
H55   H     H_    0.291247 0.732067 0.812518 0.190976
H56   H     H_    0.662068 0.046888 0.167850 0.208298
H57   H     H_    0.292121 0.691149 0.732494 0.214736
H58   H     H_    0.128331 0.095117 0.666585 0.180786
H59   H     H_    0.133207 0.992337 0.653806 0.134659
H60   H     H_    0.048075 0.097270 0.627274 0.203046
H61   H     H_    0.835452 0.937925 0.360165 0.143473
H62   H     H_    0.891773 0.817927 0.405528 0.161470
H63   H     H_    0.933081 0.906798 0.389559 0.169961
H64   H     H_    0.377376 0.249561 0.213536 0.122716
H65   H     H_    0.469203 0.160130 0.255364 0.187904
H66   H     H_    0.384787 0.133945 0.240605 0.180281
H67   H     H_    0.233766 0.490148 0.355983 0.143295
H68   H     H_    0.363600 0.830114 0.936610 0.147981
H69   H     H_    0.410607 0.888772 0.817329 0.165078
H70   H     H_    0.392304 0.928368 0.908132 0.169400
H71   H     H_    0.203154 0.374300 0.251418 0.133800
H72   H     H_    0.253032 0.462546 0.163995 0.181003
H73   H     H_    0.231771 0.384373 0.134417 0.182281
H74   H     H_    0.002295 0.288592 0.818992 0.190375
H75   H     H_    0.942283 0.372952 0.881141 0.129396
H76   H     H_    0.050260 0.294841 0.890896 0.155687
H77   H     H_    0.272097 0.560984 0.380625 0.180209
H78   H     H_    0.305255 0.556990 0.266320 0.175135
O1    O     O_R   0.982940 0.138950 0.510160 -0.593423
O2    O     O_R   0.982940 0.510160 0.138950 -0.594296
O3    O     O_R   0.861050 0.017060 0.489840 -0.604683
O4    O     O_R   0.138950 0.982940 0.510160 -0.636840
O5    O     O_R   0.867700 0.025880 0.612340 -0.555218
O6    O     O_R   0.132300 0.974120 0.387660 -0.572119
O7    O     O_R   0.025880 0.612340 0.867700 -0.565078
O8    O     O_R   0.974120 0.387660 0.132300 -0.586543
O9    O     O_R   0.612340 0.867700 0.025880 -0.557783
O10   O     O_R   0.387660 0.132300 0.974120 -0.592654
O11   O     O_R   0.387660 0.974120 0.132300 -0.599100
O12   O     O_R   0.017060 0.861050 0.489840 -0.608418
O13   O     O_R   0.612340 0.025880 0.867700 -0.596140
O14   O     O_R   0.132300 0.387660 0.974120 -0.594286
O15   O     O_R   0.867700 0.612340 0.025880 -0.595955
O16   O     O_R   0.974120 0.132300 0.387660 -0.604774
O17   O     O_R   0.025880 0.867700 0.612340 -0.621441
O18   O     O_3   0.321256 0.165956 0.623488 -0.591050
O19   O     O_3   0.685314 0.960193 0.292298 -0.604747
O20   O     O_3   0.173056 0.630410 0.312894 -0.563688
O21   O     O_3   0.009436 0.274807 0.665269 -0.617050
O22   O     O_3   0.625723 0.317709 0.179331 -0.547400
O23   O     O_R   0.138950 0.510160 0.982940 -0.571482
O24   O     O_3   0.296220 0.682483 0.967726 -0.620617
O25   O     O_3   0.277131 0.019523 0.660676 -0.617088
O26   O     O_3   0.719063 0.845241 0.442950 -0.586259
O27   O     O_3   0.621332 0.242059 0.087153 -0.564694
O28   O     O_3   0.447483 0.712659 0.846196 -0.593937
O29   O     O_3   0.075959 0.630054 0.239789 -0.570976
O30   O     O_3   0.891937 0.405478 0.733621 -0.600893
O31   O     O_2   0.619999 0.208763 0.740797 -0.328415
O32   O     O_2   0.766710 0.096554 0.750271 -0.279376
O33   O     O_3   0.753770 0.210761 0.590815 -0.511301
O34   O     O_R   0.861050 0.489840 0.017060 -0.636599
O35   O     O_2   0.257258 0.793883 0.400560 -0.225305
O36   O     O_2   0.238952 0.901105 0.250952 -0.331706
O37   O     O_3   0.395472 0.783762 0.256173 -0.551813
O38   O     O_2   0.105766 0.746365 0.763732 -0.314858
O39   O     O_2   0.211139 0.600379 0.738039 -0.271844
O40   O     O_3   0.219896 0.747137 0.601029 -0.546884
O41   O     O_2   0.889043 0.256035 0.240069 -0.281289
O42   O     O_2   0.784714 0.264937 0.390852 -0.328192
O43   O     O_3   0.781882 0.416130 0.257968 -0.497946
O44   O     O_2   0.736177 0.615182 0.210908 -0.340562
O45   O     O_R   0.510160 0.982940 0.138950 -0.572959
O46   O     O_2   0.739681 0.767876 0.108038 -0.250449
O47   O     O_3   0.582208 0.741991 0.213672 -0.512731
O48   O     O_2   0.405027 0.259242 0.790865 -0.256877
O49   O     O_2   0.253006 0.244431 0.890796 -0.291189
O50   O     O_3   0.265300 0.401195 0.774717 -0.491069
O51   O     O_3   0.390093 0.128940 0.763096 -0.523185
O52   O     O_3   0.607008 0.864608 0.256549 -0.529807
O53   O     O_3   0.125605 0.770049 0.384318 -0.523747
O54   O     O_3   0.887353 0.239797 0.615363 -0.548654
O55   O     O_3   0.766864 0.386518 0.125048 -0.515514
O56   O     O_R   0.489840 0.017060 0.861050 -0.620299
O57   O     O_3   0.254779 0.611577 0.868493 -0.540949
O58   O     O_3   0.174601 0.092526 0.530674 -0.628953
O59   O     O_3   0.823131 0.886266 0.503515 -0.616984
O60   O     O_3   0.482843 0.174614 0.122937 -0.584109
O61   O     O_3   0.505906 0.818824 0.887263 -0.614990
O62   O     O_3   0.120097 0.487373 0.173202 -0.577897
O63   O     O_3   0.056547 0.396564 0.768765 -0.555469
O64   O     O_R   0.489840 0.861050 0.017060 -0.611187
O65   O     O_R   0.510160 0.138950 0.982940 -0.592670
O66   O     O_R   0.017060 0.489840 0.861050 -0.607131
S1    S     S_3+6 0.703324 0.147213 0.692603 0.022515
S2    S     S_3+6 0.301109 0.851563 0.309616 0.055065
S3    S     S_3+6 0.153349 0.692017 0.696849 0.028916
S4    S     S_3+6 0.844804 0.312434 0.304551 0.060163
S5    S     S_3+6 0.687576 0.699560 0.150632 0.019883
S6    S     S_3+6 0.313449 0.304933 0.845338 0.070046
Zn1   Zn    Zn3+2 0.004880 0.004880 0.583590 1.041636
Zn2   Zn    Zn3+2 0.995120 0.995120 0.416410 1.019473
Zn3   Zn    Zn3+2 0.004880 0.583590 0.004880 1.113213
Zn4   Zn    Zn3+2 0.995120 0.416410 0.995120 1.004997
Zn5   Zn    Zn3+2 0.583590 0.004880 0.004880 1.116543
Zn6   Zn    Zn3+2 0.416410 0.995120 0.995120 1.006100

loop_
_geom_bond_atom_site_label_1
_geom_bond_atom_site_label_2
_ccdc_geom_bond_type
C48   C55   A    
C30   O8    A    
C46   C99   A    
C18   H75   S    
C11   H57   S    
C15   H65   S    
C24   O45   A    
C73   C100  A    
C37   C70   A    
C50   C64   A    
O36   S2    D    
O15   Zn3   S    
C54   C82   A    
C114  O27   S    
C32   O4    A    
C18   O63   S    
C8    H44   S    
C92   S1    S    
C72   C85   A    
C77   C102  A    
C2    C57   A    
C109  H3    S    
C57   C62   A    
C24   O11   A    
H36   O47   S    
C69   C102  A    
C26   C89   S    
O17   Zn1   S    
C66   C79   A    
C91   C95   A    
C42   C75   A    
C11   O57   S    
C113  H15   S    
C108  H67   S    
C60   C63   A    
C84   C97   A    
C35   C68   A    
C44   C77   A    
C110  O22   S    
O6    Zn2   S    
C109  O21   S    
C8    H47   S    
C26   O64   A    
C110  H7    S    
C81   C95   A    
C16   H68   S    
C5    H29   S    
C107  O19   S    
C15   O60   S    
C83   C96   A    
O8    Zn4   S    
C51   C103  A    
C71   O24   S    
C106  O18   S    
C49   O21   S    
C43   C76   A    
C12   O58   S    
C40   C73   A    
C22   O14   A    
C3    H22   S    
C16   O61   S    
C22   C85   S    
C9    H49   S    
O3    Zn2   S    
C60   O22   S    
C112  H13   S    
C14   H62   S    
C85   C98   A    
C86   C94   A    
C109  H2    S    
C41   C74   A    
H37   O50   S    
C24   C80   S    
C41   C93   A    
C7    H42   S    
C17   H71   S    
C3    O28   S    
C29   O7    A    
O49   S6    D    
O14   Zn4   S    
C7    O52   S    
C109  H4    S    
C32   O6    A    
C112  O25   S    
C108  H77   S    
C45   C78   A    
C51   C57   A    
C74   C87   A    
C70   C84   A    
C2    C43   A    
C42   C104  A    
C30   C90   S    
C76   C89   A    
C13   C56   A    
C6    H38   S    
O40   S3    S    
C43   O61   S    
C76   C103  A    
C5    O30   S    
O39   S3    D    
O38   S3    D    
O66   Zn4   S    
C49   C64   A    
C39   C71   A    
C15   H66   S    
C111  H8    S    
C2    O28   S    
C21   O12   A    
O47   S5    S    
O4    Zn1   S    
O31   S1    D    
C19   O30   S    
O48   S6    D    
C25   O13   A    
C108  O20   S    
C33   C66   A    
C50   C102  A    
C27   C34   A    
C53   C59   A    
C17   O62   S    
O13   Zn5   S    
C77   C90   A    
C16   H69   S    
C3    H21   S    
C35   O53   S    
C23   C84   S    
O2    Zn3   S    
C46   C61   A    
C34   O52   S    
C20   O1    A    
C40   C82   A    
C35   C38   A    
C31   C87   S    
C68   C101  A    
O33   S1    S    
C12   H58   S    
O46   S5    D    
C113  H16   S    
C110  H6    S    
C4    H27   S    
O65   Zn5   S    
C70   C103  A    
C10   H53   S    
C106  H23   S    
O7    Zn3   S    
C14   O59   S    
C53   C93   A    
C52   C62   A    
C50   C56   A    
C47   C100  A    
C1    C33   A    
C89   C97   A    
C93   O26   S    
C12   H59   S    
C66   C99   A    
C110  H5    S    
C9    H50   S    
O37   S2    S    
C104  O27   S    
C28   C88   S    
C14   H61   S    
C69   C83   A    
O11   Zn6   S    
C4    H26   S    
O56   Zn6   S    
C40   O58   S    
H33   O40   S    
C15   H64   S    
C39   O57   S    
C38   C65   A    
C95   S3    S    
C17   H72   S    
C10   H52   S    
C32   C86   S    
C55   C64   A    
C26   O9    A    
C27   O19   S    
C79   C92   A    
C51   C63   A    
C3    H24   S    
H35   O43   S    
C37   C60   A    
C111  O24   S    
C9    O54   S    
C112  H11   S    
C6    H40   S    
C39   C72   A    
C52   C58   A    
C67   C100  A    
C45   O63   S    
C47   C54   A    
O35   S2    D    
C19   C45   A    
C21   C81   S    
C52   C105  A    
C11   H55   S    
O43   S4    S    
O32   S1    D    
C11   H54   S    
C48   C65   A    
C6    O51   S    
C33   O51   S    
C58   C104  A    
C20   O16   A    
C56   C65   A    
C80   C94   A    
C8    H46   S    
C28   O10   A    
C113  O26   S    
C29   C91   S    
C23   O34   A    
C87   C92   A    
C36   C69   A    
C12   H60   S    
C19   C55   A    
C58   C63   A    
C111  H9    S    
C18   H76   S    
C96   S4    S    
C113  H17   S    
C94   S2    S    
C23   O15   A    
C111  H10   S    
C25   C79   S    
C114  H18   S    
C1    O18   S    
C67   C80   A    
C13   O29   S    
C5    H30   S    
C1    C61   A    
C34   C67   A    
C8    O53   S    
C107  H45   S    
C16   H70   S    
C90   C96   A    
C74   C99   A    
C7    H43   S    
C54   C61   A    
O12   Zn2   S    
C78   C91   A    
C106  H12   S    
C29   O66   A    
C37   O55   S    
C68   C81   A    
C106  H1    S    
O1    Zn1   S    
C31   O5    A    
O10   Zn6   S    
O23   Zn3   S    
O9    Zn5   S    
C27   C59   A    
C4    H25   S    
C31   O3    A    
C107  H34   S    
C44   O62   S    
C5    H28   S    
C30   O2    A    
C82   O25   S    
H31   O33   S    
C41   O59   S    
C17   H73   S    
C10   H51   S    
O16   Zn2   S    
C48   C101  A    
C46   C53   A    
C18   H74   S    
C114  H20   S    
C114  H19   S    
C21   O17   A    
C62   C71   A    
O64   Zn6   S    
O5    Zn1   S    
C9    H48   S    
C73   C86   A    
C112  H14   S    
C6    H39   S    
C97   S5    S    
C47   C59   A    
C25   O56   A    
C98   S6    S    
C75   C88   A    
O42   S4    D    
C7    H41   S    
C72   C105  A    
O44   S5    D    
C28   O65   A    
C20   C83   S    
C36   O54   S    
O50   S6    S    
C14   H63   S    
C108  H78   S    
O45   Zn5   S    
C10   O55   S    
C42   O60   S    
C75   C105  A    
C38   O20   S    
C22   O23   A    
H32   O37   S    
C13   C44   A    
C88   C98   A    
C36   C49   A    
C4    O29   S    
O34   Zn4   S    
O41   S4    D    
C78   C101  A    
C107  H56   S    
