data_mof_unit_13420.cif
_audit_creation_date              2012-12-10T20:31:03-0500
_audit_creation_method            fapswitch 2.2
_symmetry_space_group_name_H-M    P1
_symmetry_Int_Tables_number       1
_space_group_crystal_system       triclinic
_cell_length_a                    14.948742
_cell_length_b                    10.681785
_cell_length_c                    9.88103
_cell_angle_alpha                 90.473774
_cell_angle_beta                  89.729312
_cell_angle_gamma                 89.633875
_cell_volume                      1577.69128278

loop_
_atom_site_label
_atom_site_type_symbol
_atom_type_description
_atom_site_fract_x
_atom_site_fract_y
_atom_site_fract_z
_atom_type_partial_charge
C1    C     C_R   0.502004 0.260416 0.499176 0.953908
C2    C     C_R   0.904415 0.600047 0.552341 0.165413
C3    C     C_R   0.953665 0.286385 0.399058 0.689760
C4    C     C_R   0.046317 0.286222 0.401332 -0.268725
C5    C     C_R   0.093605 0.390855 0.449745 -0.022632
C6    C     C_R   0.045891 0.496143 0.501039 0.087514
C7    C     C_R   0.091234 0.602488 0.552475 0.081006
C8    C     C_R   0.041696 0.706439 0.600807 -0.158899
C9    C     C_R   0.949256 0.704469 0.601853 -0.158850
C10   C     C_R   0.187278 0.391860 0.450485 0.008867
C11   C     C_R   0.231302 0.498235 0.501116 -0.154264
C12   C     C_R   0.327169 0.499900 0.500311 0.950195
C13   C     C_R   0.184799 0.603477 0.551485 -0.068833
C14   C     C_R   0.557008 0.064548 0.592300 0.128324
C15   C     C_R   0.509462 0.128900 0.494121 -0.031411
C16   C     C_R   0.472915 0.064088 0.383829 -0.152640
C17   C     C_R   0.471199 0.935046 0.385590 -0.167473
C18   C     C_R   0.505168 0.871734 0.498252 -0.089250
C19   C     C_R   0.552768 0.937311 0.596522 0.034675
C20   C     C_3   0.557478 0.936053 0.748357 -0.248336
C21   C     C_3   0.563582 0.078630 0.742379 -0.507332
C22   C     C_R   0.431274 0.553217 0.072357 0.222832
C23   C     C_R   0.500358 0.739806 0.500400 0.902231
C24   C     C_R   0.571669 0.455085 0.070956 -0.076855
C25   C     C_R   0.571866 0.455762 0.927148 -0.083854
C26   C     C_R   0.430131 0.549341 0.930052 0.248842
C27   C     C_3   0.333794 0.510914 0.927646 -0.395397
C28   C     C_3   0.334340 0.520434 0.081939 -0.374448
C29   C     C_R   0.672673 0.498978 0.499687 0.950971
C30   C     C_R   0.812024 0.599126 0.553107 -0.325028
C31   C     C_R   0.767502 0.496981 0.499130 -0.199941
C32   C     C_R   0.812697 0.393286 0.445799 0.616042
C33   C     C_R   0.905885 0.390743 0.447663 -0.164990
C34   C     C_R   0.952180 0.495501 0.500372 -0.074158
H1    H     H_    0.774384 0.678481 0.593381 0.164515
H2    H     H_    0.438554 0.885727 0.303389 0.208988
H3    H     H_    0.619974 0.891131 0.785540 0.158678
H4    H     H_    0.505753 0.130235 0.787434 0.247886
H5    H     H_    0.630064 0.114572 0.773516 0.206895
H6    H     H_    0.628669 0.417219 0.124168 0.176261
H7    H     H_    0.629101 0.418633 0.872445 0.153255
H8    H     H_    0.290563 0.581562 0.877524 0.211719
H9    H     H_    0.322637 0.430501 0.135091 0.212537
H10   H     H_    0.080212 0.202750 0.364876 0.209500
H11   H     H_    0.073363 0.790546 0.638018 0.187424
H12   H     H_    0.912746 0.785296 0.640503 0.160347
H13   H     H_    0.440746 0.112612 0.301164 0.177836
N1    N     N_R   0.499390 0.499140 0.142800 -0.129125
N2    N     N_R   0.499390 0.499180 0.857150 -0.118300
O1    O     O_R   0.500010 0.316790 0.614690 -0.615590
O2    O     O_R   0.500000 0.316760 0.385350 -0.619614
O3    O     O_R   0.367850 0.499990 0.614680 -0.615149
O4    O     O_R   0.367840 0.499950 0.385340 -0.627906
O5    O     O_R   0.500000 0.683240 0.614650 -0.622547
O6    O     O_R   0.499990 0.683210 0.385310 -0.609668
O7    O     O_R   0.632160 0.500050 0.614660 -0.641691
O8    O     O_R   0.632150 0.500010 0.385320 -0.603992
Zn1   Zn    Zn3+2 0.500010 0.500020 0.653130 0.998835
Zn2   Zn    Zn3+2 0.499990 0.499980 0.346870 1.008457
C35   C     C_2   0.473782 0.893162 0.819063 1.011016
O9    O     O_2   0.479892 0.821823 0.914574 -0.623346
O10   O     O_R   0.390031 0.938044 0.778975 -0.793624
H14   H     H_    0.339893 0.906766 0.838943 0.385782
C36   C     C_2   0.318527 0.378787 0.877828 1.036633
O11   O     O_2   0.256788 0.357445 0.800508 -0.588891
O12   O     O_R   0.373371 0.280875 0.922036 -0.811850
H15   H     H_    0.355195 0.196882 0.882786 0.361977
C37   C     C_2   0.277967 0.627561 0.135425 1.026231
O13   O     O_2   0.212825 0.605802 0.206365 -0.604589
O14   O     O_R   0.299245 0.751054 0.102597 -0.778264
H16   H     H_    0.256377 0.814120 0.145055 0.355056
F1    F     F_    0.765237 0.295260 0.395431 -0.621093
F2    F     F_    0.911386 0.183528 0.349985 -0.592863
C38   C     C_2   0.239952 0.282048 0.400496 0.876941
O15   O     O_2   0.289855 0.226512 0.477490 -0.621490
O16   O     O_R   0.232664 0.243345 0.265526 -0.794064
H17   H     H_    0.272075 0.168235 0.243574 0.347401
C39   C     C_2   0.234657 0.716364 0.595701 0.893366
O17   O     O_2   0.229771 0.752431 0.713212 -0.631573
O18   O     O_R   0.286046 0.781672 0.501732 -0.800980
H18   H     H_    0.313359 0.859977 0.542126 0.371410

loop_
_geom_bond_atom_site_label_1
_geom_bond_atom_site_label_2
_ccdc_geom_bond_type
C22   N1    A    
O6    Zn2   S    
C11   C13   A    
C19   C20   S    
O4    Zn2   S    
C7    C8    A    
C32   F1    S    
C26   C27   S    
C38   O16   S    
C30   H1    S    
N1    Zn2   S    
C14   C21   S    
C28   C37   S    
C5    C6    A    
C39   O18   S    
O8    Zn2   S    
C3    C33   A    
C15   C16   A    
C35   O10   S    
C18   C19   A    
C8    H11   S    
C37   O13   D    
C21   H4    S    
C8    C9    A    
O14   H16   S    
C1    C15   S    
C17   H2    S    
C20   C35   S    
C1    O1    A    
C12   O4    A    
C2    C34   A    
O12   H15   S    
C9    H12   S    
C22   C28   S    
C16   H13   S    
C12   O3    A    
C17   C18   A    
C38   O15   D    
C18   C23   S    
C24   N1    A    
O16   H17   S    
C10   C11   A    
C26   N2    A    
C25   H7    S    
C39   O17   D    
C16   C17   A    
C4    H10   S    
N2    Zn1   S    
C6    C34   A    
C35   O9    D    
O1    Zn1   S    
O10   H14   S    
C31   C32   A    
C21   H5    S    
C7    C13   A    
C33   C34   A    
C24   C25   A    
C1    O2    A    
O3    Zn1   S    
C29   O8    A    
O2    Zn2   S    
C3    C4    A    
C23   O5    A    
O5    Zn1   S    
C13   C39   S    
C14   C19   A    
O18   H18   S    
C11   C12   S    
C23   O6    A    
C6    C7    A    
C29   O7    A    
C28   H9    S    
C2    C30   A    
C36   O11   D    
C5    C10   A    
C29   C31   S    
C32   C33   A    
C20   H3    S    
C10   C38   S    
C27   H8    S    
C30   C31   A    
C24   H6    S    
O7    Zn1   S    
C3    F2    S    
C25   N2    A    
C27   C36   S    
C4    C5    A    
C20   C21   S    
C37   O14   S    
C22   C26   A    
C27   C28   S    
C14   C15   A    
C2    C9    A    
C36   O12   S    
