data_mof_unit_63575.cif
_audit_creation_date              2012-10-26T20:53:12-0400
_audit_creation_method            fapswitch 2.2
_symmetry_space_group_name_H-M    P1
_symmetry_Int_Tables_number       1
_space_group_crystal_system       triclinic
_cell_length_a                    14.756965
_cell_length_b                    15.983286
_cell_length_c                    17.049048
_cell_angle_alpha                 89.147583
_cell_angle_beta                  93.332347
_cell_angle_gamma                 89.654952
_cell_volume                      4013.93102356

loop_
_atom_site_label
_atom_site_type_symbol
_atom_type_description
_atom_site_fract_x
_atom_site_fract_y
_atom_site_fract_z
_atom_type_partial_charge
Br1   Br    Br    0.638805 0.643661 0.100757 -0.370478
Br2   Br    Br    0.893119 0.318050 0.488200 -0.375325
Br3   Br    Br    0.344375 0.600195 0.899885 -0.323999
Br4   Br    Br    0.640182 0.359241 0.926090 -0.273193
Br5   Br    Br    0.325603 0.429585 0.066595 -0.258431
Br6   Br    Br    0.651415 0.366689 0.731221 -0.329293
Br7   Br    Br    0.338637 0.391451 0.258927 -0.398865
Br8   Br    Br    0.693662 0.099324 0.475870 -0.356282
Br9   Br    Br    0.307204 0.899837 0.533887 -0.408729
Br10  Br    Br    0.106981 0.681931 0.512402 -0.399066
C1    C     C_R   0.500300 0.340878 0.500352 0.565562
C2    C     C_1   0.498827 0.747949 0.502138 -0.022472
C3    C     C_R   0.951204 0.574763 0.504903 -0.107724
C4    C     C_R   0.048816 0.425276 0.495213 -0.104147
C5    C     C_R   0.902838 0.499204 0.499972 -0.009812
C6    C     C_R   0.097179 0.500831 0.500142 -0.008520
C7    C     C_R   0.952998 0.424056 0.495107 0.181652
C8    C     C_R   0.047034 0.575973 0.505102 0.179474
C9    C     C_1   0.802690 0.499745 0.500004 0.216129
C10   C     C_1   0.197315 0.500279 0.500046 0.218375
C11   C     C_R   0.510650 0.497988 0.651244 0.578616
C12   C     C_R   0.499737 0.659057 0.500691 0.495261
C13   C     C_R   0.489277 0.502462 0.348609 0.583072
C14   C     C_R   0.514408 0.498548 0.737285 -0.058288
C15   C     C_R   0.484361 0.514531 0.262843 -0.048613
C16   C     C_R   0.453745 0.551295 0.774949 0.216732
C17   C     C_R   0.544619 0.571410 0.228831 0.223568
C18   C     C_R   0.443353 0.541344 0.855453 0.185281
C19   C     C_R   0.546945 0.577337 0.147214 0.170198
C20   C     C_R   0.500771 0.485398 0.900429 0.173356
C21   C     C_R   0.484777 0.533252 0.099050 0.173884
C22   C     C_R   0.563986 0.435924 0.863392 0.177061
C23   C     C_R   0.499000 0.912415 0.505336 -0.047301
C24   C     C_R   0.419021 0.482015 0.132456 0.195336
C25   C     C_R   0.570621 0.441609 0.781722 0.103240
C26   C     C_R   0.420511 0.470697 0.214435 0.110090
C27   C     C_R   0.581121 0.954572 0.495717 0.235990
C28   C     C_R   0.419385 0.044959 0.513459 0.251913
C29   C     C_3   0.562980 0.686034 0.308175 0.029009
C30   C     C_3   0.558570 0.762134 0.252297 -0.260506
C31   C     C_3   0.522852 0.839386 0.292378 -0.455707
C32   C     C_3   0.445854 0.676361 0.705688 0.034982
C33   C     C_3   0.448257 0.746210 0.766232 -0.247779
C34   C     C_R   0.501418 0.087153 0.503294 -0.031123
C35   C     C_3   0.494159 0.824254 0.734969 -0.458130
C36   C     C_3   0.702590 0.886197 0.555627 0.028955
C37   C     C_3   0.779799 0.825193 0.541250 -0.250209
C38   C     C_3   0.828351 0.795752 0.618302 -0.449303
C39   C     C_3   0.296630 0.110971 0.453160 0.025825
C40   C     C_3   0.217020 0.169491 0.466975 -0.247828
C41   C     C_3   0.167135 0.196426 0.389711 -0.437434
C42   C     C_R   0.418618 0.957259 0.515905 0.140178
C43   C     C_R   0.581934 0.042217 0.493325 0.153873
C44   C     C_1   0.498144 0.822860 0.503605 0.004694
C45   C     C_1   0.501930 0.176837 0.502606 0.053877
C46   C     C_1   0.501235 0.251861 0.501573 0.055862
Cu1   Cu    Cu3+1 0.589220 0.500000 0.499980 1.090659
Cu2   Cu    Cu3+1 0.410780 0.500000 0.500020 1.091292
H1    H     H_    0.914374 0.633268 0.508588 0.133720
H2    H     H_    0.409798 0.700382 0.650865 0.193613
H3    H     H_    0.516307 0.660606 0.690333 0.095477
H4    H     H_    0.377823 0.762475 0.780522 0.230056
H5    H     H_    0.486306 0.724296 0.820934 0.189787
H6    H     H_    0.565035 0.809589 0.720904 0.140145
H7    H     H_    0.495572 0.873568 0.780191 0.188648
H8    H     H_    0.456114 0.848650 0.681232 0.186359
H9    H     H_    0.654785 0.854456 0.594542 0.115064
H10   H     H_    0.731126 0.942242 0.585965 0.184260
H11   H     H_    0.751926 0.769890 0.509463 0.176688
H12   H     H_    0.085647 0.366772 0.491494 0.135881
H13   H     H_    0.829490 0.856292 0.504064 0.215240
H14   H     H_    0.857330 0.849961 0.650917 0.185406
H15   H     H_    0.884495 0.752294 0.605768 0.182455
H16   H     H_    0.780370 0.762291 0.655418 0.155911
H17   H     H_    0.270240 0.053689 0.423505 0.179415
H18   H     H_    0.343122 0.143851 0.413838 0.132221
H19   H     H_    0.168728 0.137108 0.504636 0.217007
H20   H     H_    0.242633 0.226091 0.498026 0.186834
H21   H     H_    0.213570 0.231192 0.352113 0.194603
H22   H     H_    0.109263 0.238034 0.401910 0.185117
H23   H     H_    0.604349 0.703016 0.361999 0.176605
H24   H     H_    0.140386 0.140892 0.357767 0.183615
H25   H     H_    0.493676 0.671243 0.326930 0.111097
H26   H     H_    0.627504 0.775581 0.232525 0.229217
H27   H     H_    0.512790 0.748608 0.200054 0.189860
H28   H     H_    0.454482 0.827256 0.313961 0.167939
H29   H     H_    0.517771 0.892691 0.249816 0.183978
H30   H     H_    0.569942 0.856790 0.342524 0.199223
N1    N     N_2   0.495025 0.475424 0.982628 -0.117273
N2    N     N_2   0.489149 0.543234 0.016951 -0.136645
N3    N     N_1   0.276710 0.499980 0.499980 -0.158820
N4    N     N_1   0.723290 0.500020 0.500020 -0.159550
O1    O     O_R   0.575320 0.380310 0.499960 -0.453129
O2    O     O_3   0.396494 0.606641 0.732246 -0.497869
O3    O     O_3   0.659381 0.910077 0.482520 -0.538460
O4    O     O_3   0.341080 0.089511 0.526417 -0.516727
O5    O     O_R   0.424680 0.619690 0.500040 -0.475580
O6    O     O_R   0.424640 0.380310 0.500000 -0.504193
O7    O     O_R   0.575360 0.619690 0.500000 -0.526185
O8    O     O_R   0.583590 0.499240 0.613900 -0.476815
O9    O     O_R   0.416410 0.500760 0.386100 -0.470911
O10   O     O_R   0.432900 0.499240 0.613940 -0.457871
O11   O     O_R   0.567100 0.500760 0.386060 -0.455580
O12   O     O_3   0.606694 0.617095 0.274611 -0.505269

loop_
_geom_bond_atom_site_label_1
_geom_bond_atom_site_label_2
_ccdc_geom_bond_type
C16   O2    S    
C45   C46   T    
Cu1   N4    S    
C17   C19   A    
Br7   C26   S    
C30   H26   S    
Cu2   O6    S    
C33   H5    S    
C29   O12   S    
C23   C42   A    
C5    C9    S    
C31   H28   S    
Br9   C42   S    
C3    C8    A    
C1    O6    A    
Br3   C18   S    
C14   C16   A    
C28   C42   A    
Cu1   O7    S    
C2    C12   S    
C17   O12   S    
Br6   C25   S    
C27   O3    S    
C41   H22   S    
C37   H11   S    
C9    N4    T    
C36   H10   S    
C34   C43   A    
C13   O11   A    
C36   O3    S    
C39   H17   S    
Cu2   O10   S    
Cu2   N3    S    
C27   C43   A    
C1    O1    A    
C12   O5    A    
Cu1   O1    S    
Br2   C7    S    
C4    H12   S    
C4    C7    A    
Cu2   O5    S    
C38   H14   S    
C20   N1    S    
C31   H29   S    
C40   H20   S    
Cu1   O11   S    
C10   N3    T    
C21   C24   A    
C14   C25   A    
C22   C25   A    
C38   H16   S    
C29   H23   S    
C32   H2    S    
C29   C30   S    
C11   O8    A    
Cu1   O8    S    
C23   C27   A    
C30   H27   S    
C28   C34   A    
C37   C38   S    
C32   H3    S    
C6    C10   S    
C21   N2    S    
Br5   C24   S    
Br1   C19   S    
C40   C41   S    
C39   H18   S    
Cu2   O9    S    
C33   C35   S    
C41   H24   S    
C37   H13   S    
Br4   C22   S    
C11   O10   A    
C30   C31   S    
C3    C5    A    
C35   H7    S    
C4    C6    A    
C32   C33   S    
C40   H19   S    
C23   C44   S    
C5    C7    A    
C31   H30   S    
C36   C37   S    
C12   O7    A    
C32   O2    S    
C38   H15   S    
Br8   C43   S    
C3    H1    S    
C15   C17   A    
C35   H6    S    
C16   C18   A    
C18   C20   A    
C29   H25   S    
C36   H9    S    
C19   C21   A    
C20   C22   A    
C34   C45   S    
Cu1   Cu2   S    
C13   O9    A    
Br10  C8    S    
C24   C26   A    
C13   C15   S    
C39   O4    S    
C41   H21   S    
C15   C26   A    
C6    C8    A    
C39   C40   S    
C11   C14   S    
C28   O4    S    
C35   H8    S    
N1    N2    D    
C2    C44   T    
C1    C46   S    
C33   H4    S    
