data_mof_unit_6505.cif
_audit_creation_date              2013-03-05T16:09:37-0500
_audit_creation_method            fapswitch 2.2
_symmetry_space_group_name_H-M    P1
_symmetry_Int_Tables_number       1
_space_group_crystal_system       monoclinic
_cell_length_a                    14.678903
_cell_length_b                    7.329203
_cell_length_c                    13.455028
_cell_angle_alpha                 90.0
_cell_angle_beta                  99.913519
_cell_angle_gamma                 90.0
_cell_volume                      1425.94078536

loop_
_atom_site_label
_atom_site_type_symbol
_atom_site_description
_atom_site_fract_x
_atom_site_fract_y
_atom_site_fract_z
_atom_type_partial_charge
O1    O     O_R   0.398210 0.494340 0.401550 -0.580645
O2    O     O_R   0.601790 0.994340 0.598450 -0.580645
O3    O     O_R   0.586310 0.821730 0.403360 -0.519571
O4    O     O_R   0.413690 0.321730 0.596640 -0.519570
C1    C     C_R   0.615693 0.655237 0.382349 1.014483
C2    C     C_R   0.384307 0.155237 0.617651 1.014482
O5    O     O_R   0.397970 0.823900 0.389580 -0.567224
O6    O     O_R   0.602030 0.323900 0.610420 -0.567224
O7    O     O_R   0.412100 0.996500 0.584560 -0.559760
O8    O     O_R   0.587900 0.496500 0.415440 -0.559760
C3    C     C_R   0.365256 0.655369 0.363384 0.998176
C4    C     C_R   0.634744 0.155369 0.636615 0.998176
O9    O     O_3   0.504860 0.661550 0.563990 -0.258771
O10   O     O_3   0.495140 0.161550 0.436010 -0.258771
V1    V     V_3+5 0.499100 0.935510 0.488130 1.351688
V2    V     V_3+5 0.500900 0.435510 0.511870 1.351688
C5    C     C_1   0.716100 0.144812 0.716566 -0.137839
C6    C     C_1   0.283900 0.644812 0.283434 -0.137839
C7    C     C_1   0.784171 0.134034 0.783073 -0.143776
C8    C     C_1   0.215829 0.634034 0.216927 -0.143776
C9    C     C_3   0.272817 0.228344 0.863023 -0.496377
C10   C     C_3   0.727183 0.728344 0.136977 -0.496377
H1    H     H_    0.255883 0.357066 0.898889 0.249606
H2    H     H_    0.744117 0.857066 0.101112 0.249606
H3    H     H_    0.304812 0.141988 0.927893 0.155797
H4    H     H_    0.695188 0.641988 0.072107 0.155797
C11   C     C_3   0.343910 0.251888 0.789427 0.229388
C12   C     C_3   0.656090 0.751888 0.210573 0.229387
H5    H     H_    0.408109 0.181826 0.827173 0.054551
H6    H     H_    0.591891 0.681825 0.172827 0.054552
C13   C     C_3   0.142863 0.239003 0.708868 0.653673
C14   C     C_3   0.857137 0.739004 0.291132 0.653673
C15   C     C_3   0.212660 0.939049 0.780962 -0.401275
C16   C     C_3   0.787340 0.439049 0.219038 -0.401275
C17   C     C_3   0.183256 0.133912 0.809345 -0.353787
C18   C     C_3   0.816743 0.633912 0.190655 -0.353786
H7    H     H_    0.152668 0.870948 0.733788 0.291369
H8    H     H_    0.847332 0.370949 0.266212 0.291369
H9    H     H_    0.232334 0.854931 0.850141 0.214422
H10   H     H_    0.767666 0.354931 0.149859 0.214422
C19   C     C_3   0.310014 0.146431 0.686010 -0.565119
C20   C     C_3   0.689986 0.646430 0.313991 -0.565119
C21   C     C_3   0.210856 0.214088 0.629302 0.663865
C22   C     C_3   0.789144 0.714088 0.370698 0.663865
C23   C     C_3   0.296261 0.946623 0.724552 0.388473
C24   C     C_3   0.703740 0.446622 0.275448 0.388473
H11   H     H_    0.359383 0.906260 0.778287 0.120175
H12   H     H_    0.640617 0.406260 0.221714 0.120175
O11   O     O_R   0.912140 0.786650 0.084610 -0.564969
O12   O     O_R   0.087860 0.286650 0.915390 -0.564968
O13   O     O_R   0.102040 0.454810 0.110430 -0.579619
O14   O     O_R   0.897960 0.954810 0.889570 -0.579619
C25   C     C_R   0.134628 0.623455 0.136767 0.977628
C26   C     C_R   0.865372 0.123455 0.863233 0.977628
O15   O     O_R   0.913690 0.457060 0.096650 -0.589254
O16   O     O_R   0.086310 0.957060 0.903350 -0.589254
O17   O     O_R   0.898200 0.284560 0.901540 -0.580078
O18   O     O_R   0.101800 0.784560 0.098460 -0.580079
C27   C     C_R   0.886042 0.625167 0.118169 1.033889
C28   C     C_R   0.113958 0.125167 0.881831 1.033888
O19   O     O_3   0.995160 0.617270 0.936040 -0.263619
O20   O     O_3   0.004840 0.117270 0.063960 -0.263619
V3    V     V_3+5 0.000900 0.343280 0.011870 1.273204
V4    V     V_3+5 0.999100 0.843280 0.988130 1.273204
Cl1   Cl    Cl    0.285255 0.770046 0.632827 -0.391612
Cl2   Cl    Cl    0.714746 0.270047 0.367174 -0.391612
Cl3   Cl    Cl    0.026964 0.159533 0.661233 -0.424390
Cl4   Cl    Cl    0.973036 0.659533 0.338767 -0.424390
Cl5   Cl    Cl    0.163116 0.060154 0.528952 -0.373607
Cl6   Cl    Cl    0.836884 0.560155 0.471049 -0.373606
N1    N     N_R   0.371698 0.443109 0.779934 0.295596
O21   O     O_R   0.328307 0.572259 0.818553 -0.388392
O22   O     O_R   0.456695 0.476498 0.769706 -0.389729
N2    N     N_R   0.628302 0.943108 0.220066 0.295596
O23   O     O_R   0.671693 0.072260 0.181449 -0.388391
O24   O     O_R   0.543304 0.976496 0.230293 -0.389730
Cl7   Cl    Cl    0.125948 0.476473 0.735677 -0.455814
Cl8   Cl    Cl    0.874052 0.976474 0.264323 -0.455813
Cl9   Cl    Cl    0.216354 0.410164 0.552942 -0.380758
Cl10  Cl    Cl    0.783646 0.910164 0.447058 -0.380758

loop_
_geom_bond_atom_site_label_1
_geom_bond_atom_site_label_2
_geom_bond_distance
_ccdc_geom_bond_type
C1    C20   1.544277 S    
C3    C6    1.465266 S    
O15   C27   1.344267 A    
C11   H5    1.115746 S    
C15   C23   1.551066 S    
O1    C3    1.343530 A    
C18   C27   1.526972 S    
C12   N2    1.471331 S    
C2    O7    1.334452 A    
O3    V1    2.034178 S    
C13   Cl3   1.808016 S    
C15   H9    1.112356 S    
N2    O24   1.301774 A    
C16   H10   1.112356 S    
C14   C18   1.580040 S    
C24   Cl2   1.776363 S    
C21   Cl9   1.776480 S    
C20   C24   1.578070 S    
C5    C7    1.223741 T    
C2    C19   1.544276 S    
O15   V3    2.034268 S    
C4    C5    1.465266 S    
O16   V4    2.034266 S    
C22   Cl6   1.805889 S    
C16   C24   1.551067 S    
C6    C8    1.223741 T    
C14   Cl4   1.808017 S    
O5    V1    1.988292 S    
C9    C11   1.566915 S    
O2    C4    1.343530 A    
O6    V2    1.988293 S    
O11   V4    2.014298 S    
C10   C12   1.566916 S    
O12   V3    2.014296 S    
C19   C21   1.601317 S    
C20   C22   1.601318 S    
O14   C26   1.350489 A    
C13   Cl7   1.803285 S    
C23   H11   1.112701 S    
O18   V4    1.972563 S    
C24   H12   1.112700 S    
N2    O23   1.298321 A    
C22   Cl10  1.776480 S    
O13   V3    1.988217 S    
O4    C2    1.340510 A    
O14   V4    1.988217 S    
N1    O22   1.301771 A    
C15   H7    1.111316 S    
O16   C28   1.344267 A    
C17   C28   1.526971 S    
O13   C25   1.350489 A    
O4    V2    2.034176 S    
O19   V4    1.795692 S    
O5    C3    1.349915 A    
O20   V3    1.795693 S    
C11   C19   1.594616 S    
O6    C4    1.349914 A    
C14   C22   1.594832 S    
O1    V2    1.972562 S    
O2    V1    1.972562 S    
C13   C21   1.594831 S    
C7    C26   1.465385 S    
C9    H1    1.107259 S    
C23   Cl1   1.776363 S    
C10   H2    1.107259 S    
C11   N1    1.471332 S    
C9    H3    1.114377 S    
C16   H8    1.111315 S    
O17   V3    1.972562 S    
C8    C25   1.465385 S    
O3    C1    1.340509 A    
C25   O18   1.344085 A    
C9    C17   1.549842 S    
C10   C18   1.549841 S    
O11   C27   1.345728 A    
O12   C28   1.345729 A    
C12   H6    1.115746 S    
O7    V1    2.021055 S    
N1    O21   1.298316 A    
O8    V2    2.021055 S    
C13   C17   1.580041 S    
C12   C20   1.594614 S    
C15   C17   1.558406 S    
C16   C18   1.558405 S    
C14   Cl8   1.803286 S    
C1    O8    1.334452 A    
C21   Cl5   1.805888 S    
C10   H4    1.114376 S    
O9    V2    1.796040 S    
C19   C23   1.578071 S    
O10   V1    1.796041 S    
C26   O17   1.344085 A    
