data_mof_unit_41550.cif
_audit_creation_date              2012-12-10T20:39:56-0500
_audit_creation_method            fapswitch 2.2
_symmetry_space_group_name_H-M    P1
_symmetry_Int_Tables_number       1
_space_group_crystal_system       triclinic
_cell_length_a                    23.438131
_cell_length_b                    10.690291
_cell_length_c                    9.859706
_cell_angle_alpha                 90.195558
_cell_angle_beta                  89.484455
_cell_angle_gamma                 90.581929
_cell_volume                      2470.21122961

loop_
_atom_site_label
_atom_site_type_symbol
_atom_type_description
_atom_site_fract_x
_atom_site_fract_y
_atom_site_fract_z
_atom_type_partial_charge
C1    C     C_R   0.500795 0.260362 0.499520 0.977170
C2    C     C_R   0.969335 0.280532 0.605789 -0.176822
C3    C     C_R   0.028954 0.278195 0.603368 -0.039834
C4    C     C_R   0.059987 0.382912 0.550958 -0.095897
C5    C     C_R   0.029842 0.482827 0.491787 -0.016236
C6    C     C_R   0.059502 0.584527 0.432142 -0.014091
C7    C     C_R   0.029332 0.683238 0.373922 -0.130166
C8    C     C_R   0.970082 0.682527 0.376048 -0.139789
C9    C     C_R   0.119795 0.394877 0.558866 0.545809
C10   C     C_R   0.118917 0.585146 0.432067 0.530655
C11   C     C_R   0.236971 0.594002 0.560835 -0.078197
C12   C     C_R   0.389547 0.501058 0.500466 1.047697
C13   C     C_R   0.296504 0.599765 0.561436 -0.051447
C14   C     C_R   0.327419 0.499821 0.500645 -0.175832
C15   C     C_R   0.297986 0.399081 0.436641 -0.071502
C16   C     C_R   0.238665 0.400413 0.433316 -0.098497
C17   C     C_R   0.208422 0.495841 0.496556 0.232639
C18   C     C_R   0.760834 0.453701 0.372468 0.000733
C19   C     C_R   0.701436 0.462867 0.376155 -0.240558
C20   C     C_R   0.672749 0.493229 0.497168 -0.055827
C21   C     C_R   0.703527 0.514931 0.616006 -0.176455
C22   C     C_R   0.762508 0.508276 0.613469 -0.095399
C23   C     C_R   0.497425 0.739565 0.499815 0.978010
C24   C     C_R   0.791279 0.478606 0.492938 0.236213
C25   C     C_R   0.530335 0.062816 0.595283 0.048685
C26   C     C_R   0.502412 0.128685 0.495395 -0.120902
C27   C     C_R   0.477538 0.066304 0.385530 -0.186718
C28   C     C_R   0.472222 0.937143 0.386870 -0.076825
C29   C     C_R   0.496029 0.871769 0.497507 -0.130982
C30   C     C_R   0.527436 0.935270 0.595748 0.087286
C31   C     C_3   0.523763 0.929141 0.747365 -0.470527
C32   C     C_3   0.526824 0.071438 0.746627 -0.228816
C33   C     C_R   0.472410 0.407251 0.072299 0.220253
C34   C     C_R   0.610649 0.499165 0.499317 0.865507
C35   C     C_R   0.532114 0.583716 0.071531 -0.065546
C36   C     C_R   0.532410 0.583199 0.927518 -0.043493
C37   C     C_R   0.470662 0.409230 0.929766 0.152050
C38   C     C_3   0.407147 0.381294 0.933478 -0.216424
C39   C     C_3   0.411327 0.372862 0.088131 -0.538522
C40   C     C_R   0.880426 0.579932 0.438100 0.553650
C41   C     C_R   0.880013 0.382018 0.550249 0.572574
C42   C     C_R   0.939650 0.381119 0.551055 -0.035507
C43   C     C_R   0.969824 0.481934 0.492518 -0.006439
C44   C     C_R   0.939973 0.582477 0.435195 -0.011206
H1    H     H_    0.946001 0.200855 0.646684 0.215766
H2    H     H_    0.677282 0.443743 0.285098 0.205072
H3    H     H_    0.682124 0.538375 0.710414 0.170098
H4    H     H_    0.786215 0.527513 0.705134 0.154624
H5    H     H_    0.457845 0.118552 0.304584 0.205762
H6    H     H_    0.481915 0.891933 0.784064 0.242738
H7    H     H_    0.561524 0.882754 0.791583 0.206966
H8    H     H_    0.557065 0.653074 0.125594 0.145271
H9    H     H_    0.557784 0.651727 0.872821 0.129085
H10   H     H_    0.386682 0.444960 0.144417 0.226979
H11   H     H_    0.406966 0.277758 0.132087 0.238963
H12   H     H_    0.051387 0.761942 0.327583 0.207993
H13   H     H_    0.948011 0.760416 0.331032 0.203342
H14   H     H_    0.212002 0.667162 0.608153 0.199217
N1    N     N_R   0.852024 0.479998 0.493513 -0.347475
N2    N     N_R   0.147550 0.492124 0.495991 -0.353197
N3    N     N_R   0.499610 0.499140 0.142800 -0.106333
N4    N     N_R   0.499610 0.499180 0.857150 -0.102627
O1    O     O_R   0.500010 0.316790 0.614690 -0.606755
O2    O     O_2   0.850067 0.285636 0.604467 -0.527076
O3    O     O_2   0.150225 0.313538 0.632517 -0.490041
O4    O     O_2   0.148072 0.677986 0.368850 -0.525978
O5    O     O_R   0.500000 0.316760 0.385350 -0.616429
O6    O     O_R   0.416160 0.499980 0.614700 -0.572119
O7    O     O_R   0.416150 0.499940 0.385360 -0.614577
O8    O     O_R   0.500000 0.683240 0.614650 -0.608395
O9    O     O_R   0.499990 0.683210 0.385310 -0.625099
O10   O     O_R   0.583850 0.500060 0.614640 -0.629211
O11   O     O_R   0.583840 0.500020 0.385300 -0.630295
O12   O     O_2   0.850937 0.675951 0.385715 -0.540143
Zn1   Zn    Zn3+2 0.500000 0.500020 0.653130 1.022143
Zn2   Zn    Zn3+2 0.500000 0.499980 0.346870 0.996967
C45   C     C_2   0.437376 0.877038 0.278744 0.966895
O13   O     O_2   0.440178 0.916589 0.162550 -0.610753
O14   O     O_R   0.399852 0.778619 0.310207 -0.762277
H15   H     H_    0.378630 0.746039 0.227966 0.358149
H16   H     H_    0.486944 0.115464 0.783914 0.183759
C46   C     C_2   0.580080 0.126289 0.808634 0.982141
O15   O     O_2   0.627270 0.090025 0.772997 -0.596451
O16   O     O_R   0.575028 0.219860 0.907114 -0.815001
H17   H     H_    0.613401 0.250695 0.941000 0.351139
C47   C     C_2   0.055802 0.160416 0.647585 1.008182
O17   O     O_2   0.091401 0.109472 0.575345 -0.555992
O18   O     O_R   0.037755 0.103839 0.768401 -0.779506
H18   H     H_    0.058313 0.022703 0.786639 0.361275
C48   C     C_2   0.370117 0.490292 0.893119 0.972275
O19   O     O_2   0.324413 0.471454 0.837341 -0.589564
O20   O     O_R   0.386925 0.612445 0.926612 -0.795579
H19   H     H_    0.357552 0.676814 0.900968 0.362202
C49   C     C_2   0.391586 0.259109 0.863338 0.954622
O21   O     O_2   0.377357 0.166812 0.928953 -0.594416
O22   O     O_R   0.392144 0.253117 0.721884 -0.762129
H20   H     H_    0.381108 0.167197 0.686322 0.358092
C50   C     C_2   0.323737 0.713051 0.623334 0.942667
O23   O     O_2   0.373525 0.740186 0.599484 -0.625140
O24   O     O_R   0.291481 0.791481 0.707434 -0.780859
H21   H     H_    0.314304 0.865758 0.742426 0.365277
C51   C     C_2   0.326893 0.288533 0.376128 0.909045
O25   O     O_2   0.372406 0.252959 0.420294 -0.651080
O26   O     O_R   0.300734 0.221854 0.270920 -0.767344
H22   H     H_    0.323970 0.147478 0.239565 0.370246
H23   H     H_    0.215204 0.324976 0.384759 0.200177
C52   C     C_2   0.789368 0.417166 0.242798 0.955719
O27   O     O_2   0.838512 0.379877 0.241711 -0.606156
O28   O     O_R   0.759383 0.423361 0.120958 -0.806309
H24   H     H_    0.783044 0.395734 0.039836 0.360982

loop_
_geom_bond_atom_site_label_1
_geom_bond_atom_site_label_2
_ccdc_geom_bond_type
C22   H4    S    
C12   O7    A    
C41   C42   A    
C19   C20   A    
C37   N4    A    
C19   H2    S    
C7    C8    A    
C45   O13   D    
O6    Zn1   S    
C32   H16   S    
C12   O6    A    
C26   C27   A    
C33   C39   S    
C35   H8    S    
C18   C24   A    
C23   C29   S    
C28   C29   A    
C30   C31   S    
C47   O18   S    
C39   H10   S    
C15   C16   A    
O7    Zn2   S    
C18   C19   A    
C13   C50   S    
C18   C52   S    
O20   H19   S    
C36   H9    S    
C39   H11   S    
C35   C36   A    
C16   C17   A    
C52   O27   D    
C11   H14   S    
C16   H23   S    
C49   O22   S    
C20   C34   S    
C25   C32   S    
C45   O14   S    
C5    C43   A    
N3    Zn2   S    
C40   N1    A    
C21   C22   A    
C3    C47   S    
C52   O28   S    
C23   O8    A    
C49   O21   D    
C7    H12   S    
O10   Zn1   S    
C36   N4    A    
C1    O1    A    
O26   H22   S    
C10   O4    S    
C2    H1    S    
C38   C39   S    
C23   O9    A    
O16   H17   S    
C41   N1    A    
C47   O17   D    
C17   N2    S    
C25   C26   A    
C33   C37   A    
C10   N2    A    
C43   C44   A    
C37   C38   S    
C8    H13   S    
C48   O20   S    
C31   C32   S    
O22   H20   S    
C38   C49   S    
C35   N3    A    
C20   C21   A    
C51   O26   S    
C28   C45   S    
C12   C14   S    
C50   O23   D    
C46   O16   S    
C1    C26   S    
O11   Zn2   S    
C22   C24   A    
N4    Zn1   S    
C42   C43   A    
C31   H6    S    
C3    C4    A    
C34   O10   A    
O9    Zn2   S    
O8    Zn1   S    
C25   C30   A    
C11   C17   A    
C8    C44   A    
C31   H7    S    
C4    C5    A    
C6    C10   A    
C6    C7    A    
C32   C46   S    
C38   C48   S    
C50   O24   S    
C9    N2    A    
C2    C3    A    
O28   H24   S    
C11   C13   A    
C48   O19   D    
C5    C6    A    
O1    Zn1   S    
C2    C42   A    
C24   N1    S    
O24   H21   S    
C1    O5    A    
C40   O12   S    
C15   C51   S    
C51   O25   D    
C9    O3    S    
C34   O11   A    
C29   C30   A    
O14   H15   S    
C40   C44   A    
O18   H18   S    
C33   N3    A    
C46   O15   D    
C27   C28   A    
C14   C15   A    
O5    Zn2   S    
C41   O2    S    
C4    C9    A    
C13   C14   A    
C27   H5    S    
C21   H3    S    
