data_mof_unit_9280.cif
_audit_creation_date              2012-12-10T18:45:05-0500
_audit_creation_method            fapswitch 2.2
_symmetry_space_group_name_H-M    P1
_symmetry_Int_Tables_number       1
_space_group_crystal_system       triclinic
_cell_length_a                    10.721704
_cell_length_b                    9.811356
_cell_length_c                    10.601519
_cell_angle_alpha                 90.904156
_cell_angle_beta                  89.692464
_cell_angle_gamma                 90.03948
_cell_volume                      1115.06588986

loop_
_atom_site_label
_atom_site_type_symbol
_atom_type_description
_atom_site_fract_x
_atom_site_fract_y
_atom_site_fract_z
_atom_type_partial_charge
C1    C     C_R   0.259785 0.499931 0.499373 0.898792
C2    C     C_R   0.740204 0.499991 0.500640 0.919897
C3    C     C_R   0.936198 0.624227 0.508044 -0.134836
C4    C     C_R   0.063890 0.624220 0.507377 -0.127083
C5    C     C_R   0.570275 0.073522 0.584799 -0.032243
C6    C     C_R   0.429958 0.070548 0.415013 -0.033255
C7    C     C_R   0.570431 0.929434 0.584685 0.016387
C8    C     C_R   0.430030 0.926459 0.414936 0.007779
C9    C     C_R   0.510682 0.498692 0.258579 0.988943
C10   C     C_R   0.478597 0.501076 0.738544 0.970908
C11   C     C_R   0.592915 0.736872 0.097417 0.537967
C12   C     C_R   0.419370 0.753502 0.901215 0.544240
C13   C     C_R   0.563036 0.863018 0.045625 -0.289487
C14   C     C_R   0.470929 0.871996 0.954001 -0.307600
C15   C     C_R   0.462942 0.625143 0.941924 -0.182774
C16   C     C_R   0.527455 0.618443 0.055475 -0.186034
C17   C     C_R   0.518486 0.494768 0.121905 -0.131382
C18   C     C_R   0.450252 0.502869 0.872436 -0.110504
C19   C     C_R   0.484476 0.372225 0.058874 0.320297
C20   C     C_R   0.445214 0.377847 0.933721 0.327707
C21   C     C_R   0.063798 0.375881 0.491163 -0.166930
C22   C     C_R   0.936106 0.375895 0.491748 -0.166486
C23   C     C_R   0.872621 0.500046 0.500311 0.002390
C24   C     C_R   0.127376 0.500012 0.499159 -0.003230
H1    H     H_    0.610514 0.954576 0.077426 0.209684
H2    H     H_    0.441120 0.971042 0.922524 0.203407
H3    H     H_    0.112239 0.279130 0.484334 0.169532
H4    H     H_    0.887598 0.279136 0.485276 0.168998
H5    H     H_    0.887762 0.720973 0.514873 0.178160
H6    H     H_    0.112400 0.720977 0.513873 0.187378
H7    H     H_    0.626294 0.129472 0.652577 0.137525
H8    H     H_    0.373907 0.124137 0.347286 0.156479
H9    H     H_    0.626365 0.875794 0.652489 0.117968
H10   H     H_    0.374135 0.870471 0.347069 0.122608
N1    N     N_R   0.500000 0.857200 0.500000 -0.051992
N2    N     N_R   0.500000 0.142810 0.500000 -0.085644
O1    O     O_R   0.316770 0.614620 0.499990 -0.598271
O2    O     O_R   0.683230 0.614620 0.500010 -0.588335
O3    O     O_R   0.316800 0.385290 0.500000 -0.635595
O4    O     O_R   0.683200 0.385290 0.500000 -0.643662
O5    O     O_R   0.500010 0.614690 0.316770 -0.622947
O6    O     O_R   0.499990 0.614690 0.683230 -0.624639
O7    O     O_R   0.500040 0.385360 0.316770 -0.562897
O8    O     O_R   0.499960 0.385360 0.683230 -0.576304
Zn1   Zn    Zn3+2 0.500000 0.653120 0.500000 1.046670
Zn2   Zn    Zn3+2 0.500000 0.346880 0.500000 1.020114
O9    O     O_3   0.494090 0.248982 0.119577 -0.755605
H11   H     H_    0.512430 0.176311 0.056400 0.333741
O10   O     O_3   0.399797 0.264487 0.869842 -0.740765
H12   H     H_    0.357040 0.204972 0.931116 0.349734
S1    S     S_3+6 0.731206 0.729862 0.187622 0.013730
O11   O     O_2   0.711884 0.806750 0.309762 -0.323801
O12   O     O_2   0.769194 0.585494 0.212933 -0.334188
O13   O     O_3   0.845905 0.806414 0.106288 -0.537293
H13   H     H_    0.918759 0.806265 0.163367 0.389578
S2    S     S_3+6 0.281172 0.770358 0.811966 0.015636
O14   O     O_2   0.309468 0.841806 0.691046 -0.324039
O15   O     O_2   0.222709 0.634048 0.783828 -0.327032
O16   O     O_3   0.179834 0.866030 0.896395 -0.540978
H14   H     H_    0.105775 0.874698 0.841631 0.389578

loop_
_geom_bond_atom_site_label_1
_geom_bond_atom_site_label_2
_ccdc_geom_bond_type
C15   C18   A    
C6    H8    S    
C12   C15   A    
N2    Zn2   S    
C20   O10   S    
C10   O6    A    
C11   C13   A    
C11   C16   A    
C2    O2    A    
C9    O5    A    
C19   C20   A    
S2    O16   S    
C1    O1    A    
S1    O13   S    
C21   H3    S    
O16   H14   S    
C8    H10   S    
C13   C14   A    
C14   H2    S    
O4    Zn2   S    
C7    H9    S    
C13   H1    S    
C12   S2    S    
C10   C18   S    
O3    Zn2   S    
C6    C8    A    
C10   O8    A    
C9    C17   S    
C17   C19   A    
C6    N2    A    
C18   C20   A    
S2    O15   D    
C4    C24   A    
O7    Zn2   S    
C19   O9    S    
C9    O7    A    
C11   S1    S    
C1    O3    A    
O1    Zn1   S    
C15   C16   A    
N1    Zn1   S    
C5    N2    A    
C2    O4    A    
O9    H11   S    
S2    O14   D    
C1    C24   S    
C3    H5    S    
O10   H12   S    
C21   C24   A    
C2    C23   S    
C5    C7    A    
O5    Zn1   S    
O13   H13   S    
O2    Zn1   S    
C22   H4    S    
O8    Zn2   S    
C5    H7    S    
C3    C23   A    
C21   C22   A    
C7    N1    A    
C8    N1    A    
C22   C23   A    
C4    H6    S    
C3    C4    A    
S1    O11   D    
C12   C14   A    
C16   C17   A    
S1    O12   D    
O6    Zn1   S    
