data_mof_unit_6156.cif
_audit_creation_date              2012-12-11T17:00:18-0500
_audit_creation_method            fapswitch 2.2
_symmetry_space_group_name_H-M    P1
_symmetry_Int_Tables_number       1
_space_group_crystal_system       triclinic
_cell_length_a                    6.949341
_cell_length_b                    13.700673
_cell_length_c                    20.158181
_cell_angle_alpha                 102.862226
_cell_angle_beta                  90.521849
_cell_angle_gamma                 90.241112
_cell_volume                      1870.9995122

loop_
_atom_site_label
_atom_site_type_symbol
_atom_type_description
_atom_site_fract_x
_atom_site_fract_y
_atom_site_fract_z
_atom_type_partial_charge
O1    O     O_R   0.506770 0.599700 0.449550 -0.542229
O2    O     O_R   0.179980 0.595740 0.587960 -0.538161
O3    O     O_R   0.004580 0.400300 0.550450 -0.548345
C1    C     C_R   0.349457 0.619707 0.614234 0.735622
O4    O     O_R   0.177380 0.611700 0.452380 -0.533117
O5    O     O_R   0.001970 0.416370 0.413900 -0.538407
C2    C     C_R   0.346214 0.638119 0.435519 0.779359
O6    O     O_R   0.509390 0.583630 0.586100 -0.523390
O7    O     O_3   0.337530 0.435890 0.487530 -0.375231
V1    V     V_3+5 0.064660 0.511890 0.502310 1.563732
O8    O     O_R   0.671950 0.404260 0.412040 -0.537019
C3    C     C_R   0.840825 0.379720 0.385942 0.697765
O9    O     O_R   0.674540 0.388300 0.547620 -0.521670
C4    C     C_R   0.844404 0.361331 0.564197 0.745093
V2    V     V_3+5 0.564030 0.488110 0.497690 1.575719
O10   O     O_3   0.841030 0.564110 0.512470 -0.362310
C5    C     C_R   0.042044 0.135284 0.616577 0.434807
C6    C     C_R   0.863790 0.280784 0.601489 -0.300216
C7    C     C_R   0.751152 0.303147 0.925725 -0.256901
C8    C     C_R   0.712140 0.376371 0.888915 0.387729
C9    C     C_R   0.759262 0.358559 0.820158 -0.051763
C10   C     C_R   0.849714 0.268842 0.786762 0.049824
C11   C     C_R   0.914685 0.203108 0.827669 -0.009380
C12   C     C_R   0.884933 0.244030 0.714959 -0.116214
C13   C     C_R   0.009109 0.162157 0.687864 -0.167198
C14   C     C_R   0.102565 0.111097 0.732514 0.466172
C15   C     C_R   0.045005 0.127579 0.800369 -0.167666
C16   C     C_R   0.802447 0.297664 0.668952 0.548206
C17   C     C_R   0.977187 0.196632 0.574492 0.280005
C18   C     C_R   0.853308 0.216990 0.896049 -0.119577
H1    H     H_    0.704429 0.313900 0.978018 0.126662
H2    H     H_    0.732030 0.419066 0.795429 0.231063
H3    H     H_    0.111968 0.084172 0.832651 0.161441
C19   C     C_R   0.728730 0.261227 0.201050 -0.023064
C20   C     C_R   0.868469 0.186754 0.183089 -0.161367
C21   C     C_R   0.007348 0.178586 0.232660 -0.145473
H4    H     H_    0.113762 0.120069 0.221054 0.177587
C22   C     C_R   0.000687 0.237871 0.299479 0.308568
C23   C     C_R   0.851685 0.310255 0.317959 -0.237156
C24   C     C_R   0.720150 0.320693 0.267027 0.080583
C25   C     C_3   0.505884 0.314956 0.268609 0.133865
C26   C     C_3   0.513808 0.253113 0.195788 0.153369
H5    H     H_    0.453303 0.275446 0.307573 0.136404
H6    H     H_    0.452204 0.290276 0.156734 0.174837
C27   C     C_R   0.480296 0.671683 0.732705 -0.089525
C28   C     C_R   0.356316 0.690161 0.681793 -0.251391
C29   C     C_R   0.221847 0.769723 0.700321 0.388027
C30   C     C_R   0.215795 0.826255 0.767962 0.646520
C31   C     C_R   0.351647 0.812046 0.817195 -0.236701
C32   C     C_R   0.479752 0.732103 0.798441 -0.183824
C33   C     C_3   0.693567 0.731206 0.804994 0.531369
C34   C     C_3   0.695393 0.667967 0.732965 0.806078
H7    H     H_    0.744945 0.692730 0.844859 0.059189
C35   C     C_R   0.438550 0.886428 0.389248 -0.119339
H8    H     H_    0.456028 0.010304 0.305544 0.125008
H9    H     H_    0.473204 0.963192 0.414115 0.177673
C36   C     C_R   0.359267 0.717294 0.397288 -0.277390
C37   C     C_R   0.331708 0.683913 0.069119 0.439384
C38   C     C_R   0.350015 0.606481 0.104163 0.291641
C39   C     C_R   0.392271 0.629702 0.174000 0.384755
C40   C     C_R   0.381282 0.730620 0.212168 -0.078756
C41   C     C_R   0.380114 0.807832 0.175297 -0.067888
C42   C     C_R   0.379791 0.758099 0.285110 -0.018446
C43   C     C_R   0.418399 0.859034 0.318267 -0.015029
C44   C     C_R   0.431632 0.932580 0.280498 -0.114448
C45   C     C_R   0.404777 0.907841 0.210464 -0.121439
C46   C     C_R   0.331208 0.690737 0.326471 0.535840
C47   C     C_R   0.416387 0.816028 0.429071 0.311148
C48   C     C_R   0.357982 0.783572 0.103666 -0.247585
H10   H     H_    0.406389 0.967478 0.183539 0.126023
O11   O     O_R   0.203450 0.916320 0.913910 -0.512541
O12   O     O_R   0.535520 0.888300 0.047620 -0.549956
O13   O     O_R   0.710860 0.083650 0.086100 -0.529540
C49   C     C_R   0.366650 0.861194 0.063881 0.813608
O14   O     O_R   0.532860 0.904250 0.912040 -0.516020
O15   O     O_R   0.708190 0.099710 0.949550 -0.540982
C50   C     C_R   0.363412 0.881981 0.884985 0.813639
O16   O     O_R   0.206120 0.900260 0.050460 -0.542732
O17   O     O_3   0.375280 0.064080 0.012470 -0.383571
V3    V     V_3+5 0.648180 0.988110 0.997690 1.569484
O18   O     O_R   0.038220 0.111740 0.952370 -0.553130
C51   C     C_R   0.868839 0.137382 0.934556 0.744930
O19   O     O_R   0.040880 0.095790 0.087940 -0.541350
C52   C     C_R   0.872846 0.117851 0.114993 0.715588
V4    V     V_3+5 0.148800 0.011950 0.002300 1.545973
O20   O     O_3   0.871820 0.935920 0.987530 -0.356570
O21   O     O_3   0.022792 0.169905 0.506320 -0.597881
H11   H     H_    0.931560 0.202702 0.480301 0.262120
O22   O     O_3   0.134663 0.216719 0.345156 -0.648304
H12   H     H_    0.094209 0.246311 0.392012 0.303196
O23   O     O_3   0.422597 0.408706 0.273042 -0.574898
H13   H     H_    0.281520 0.396980 0.272028 0.347149
O24   O     O_3   0.446152 0.154688 0.188973 -0.651557
H14   H     H_    0.505377 0.126988 0.225815 0.271187
O25   O     O_3   0.103290 0.799818 0.653381 -0.549240
H15   H     H_    0.158156 0.777356 0.607426 0.287853
F1    F     F_    0.089058 0.902491 0.783219 -0.625630
F2    F     F_    0.772341 0.825256 0.809783 -0.592378
O26   O     O_3   0.766739 0.571650 0.729605 -0.661824
H16   H     H_    0.779138 0.540454 0.680513 0.326479
O27   O     O_3   0.255447 0.048520 0.709894 -0.602877
H17   H     H_    0.319314 0.028956 0.749118 0.309651
F3    F     F_    0.777256 0.715360 0.686033 -0.612545
O28   O     O_3   0.446774 0.848068 0.498409 -0.595456
H18   H     H_    0.419496 0.793024 0.521478 0.277117
F4    F     F_    0.244346 0.601622 0.299462 -0.651109
F5    F     F_    0.302651 0.662166 0.000588 -0.677226
O29   O     O_3   0.466647 0.553494 0.200668 -0.552861
H19   H     H_    0.559975 0.583168 0.237164 0.322301
O30   O     O_3   0.340153 0.506784 0.071050 -0.615722
H20   H     H_    0.297887 0.501519 0.023315 0.341943
O31   O     O_3   0.134616 0.048411 0.585711 -0.560915
H21   H     H_    0.084185 0.993972 0.606009 0.355314
F6    F     F_    0.658808 0.364557 0.687287 -0.690535
O32   O     O_3   0.625587 0.465743 0.918365 -0.613781
H22   H     H_    0.610677 0.469133 0.967675 0.320147

loop_
_geom_bond_atom_site_label_1
_geom_bond_atom_site_label_2
_ccdc_geom_bond_type
O21   H11   S    
C34   F3    S    
O27   H17   S    
C26   O24   S    
C5    C17   A    
C25   C26   S    
C4    C6    S    
C7    C8    A    
C19   C26   S    
O11   C50   A    
C1    O6    A    
C7    H1    S    
O18   C51   A    
C1    C28   S    
V4    O20   S    
C15   H3    S    
C30   F1    S    
C22   O22   S    
C14   C15   A    
O24   H14   S    
O19   C52   A    
C19   C24   A    
C21   H4    S    
C19   C20   A    
C14   O27   S    
O5    C3    A    
C22   C23   A    
C35   C47   A    
V2    O10   S    
C38   O30   S    
O29   H19   S    
C37   F5    S    
C40   C42   A    
O30   H20   S    
O28   H18   S    
V3    O20   S    
O11   V4    S    
O8    V2    S    
C29   C30   A    
O1    V2    S    
C11   C15   A    
C12   C16   A    
O14   V3    S    
O13   C52   A    
C39   O29   S    
C33   F2    S    
C38   C39   A    
O9    C4    A    
C25   H5    S    
C26   H6    S    
C36   C46   A    
O31   H21   S    
H8    C44   S    
C35   H9    S    
C9    H2    S    
C42   C46   A    
C41   C45   A    
C33   C34   S    
C11   C18   A    
O15   V3    S    
C6    C16   A    
C12   C13   A    
O12   C49   A    
O15   C51   A    
C23   C24   A    
O4    C2    A    
C27   C34   S    
C13   C14   A    
C27   C28   A    
O17   V3    S    
C41   C48   A    
C39   C40   A    
C33   H7    S    
C20   C21   A    
C18   C51   S    
O2    C1    A    
O26   H16   S    
C20   C52   S    
C32   C33   S    
C48   C49   S    
C37   C48   A    
C6    C17   A    
O14   C50   A    
O3    C4    A    
C16   F6    S    
O16   V4    S    
C30   C31   A    
C25   O23   S    
C44   C45   A    
O6    V2    S    
O9    V2    S    
C10   C12   A    
C36   C47   A    
O2    V1    S    
C5    O31   S    
O17   V4    S    
O7    V1    S    
C28   C29   A    
C24   C25   S    
O19   V4    S    
O1    C2    A    
C47   O28   S    
O5    V1    S    
C8    O32   S    
O8    C3    A    
C46   F4    S    
C34   O26   S    
C5    C13   A    
C43   C44   A    
C3    C23   S    
C21   C22   A    
C37   C38   A    
O4    V1    S    
O12   V3    S    
O3    V1    S    
V1    O10   S    
C45   H10   S    
C35   C43   A    
C27   C32   A    
O13   V3    S    
C31   C50   S    
O7    V2    S    
C40   C41   A    
C17   O21   S    
C42   C43   A    
C8    C9    A    
C31   C32   A    
C49   O16   A    
O25   H15   S    
C29   O25   S    
C10   C11   A    
O22   H12   S    
C9    C10   A    
C7    C18   A    
C2    C36   S    
O18   V4    S    
O23   H13   S    
O32   H22   S    
