data_mof_unit_53896.cif
_audit_creation_date              2013-03-05T15:39:44-0500
_audit_creation_method            fapswitch 2.2
_symmetry_space_group_name_H-M    P1
_symmetry_Int_Tables_number       1
_space_group_crystal_system       triclinic
_cell_length_a                    20.202541
_cell_length_b                    17.121978
_cell_length_c                    15.784718
_cell_angle_alpha                 89.998301
_cell_angle_beta                  51.089469
_cell_angle_gamma                 89.999943
_cell_volume                      4248.61759142

loop_
_atom_site_label
_atom_site_type_symbol
_atom_site_description
_atom_site_fract_x
_atom_site_fract_y
_atom_site_fract_z
_atom_type_partial_charge
C1    C     C_R   0.343484 0.178953 0.045075 0.317888
C2    C     C_R   0.636436 0.806548 0.988235 0.285249
C3    C     C_R   0.656524 0.178949 0.954910 0.317920
C4    C     C_R   0.363571 0.806543 0.011754 0.285220
C5    C     C_R   0.839821 0.675051 0.051199 0.316310
C6    C     C_R   0.141167 0.308998 0.980966 0.294746
C7    C     C_R   0.160180 0.675053 0.948796 0.316327
C8    C     C_R   0.858835 0.308995 0.019029 0.294713
N1    N     N_R   0.408680 0.130810 0.995780 -0.097933
N2    N     N_R   0.591320 0.869190 0.004220 -0.103572
N3    N     N_R   0.591320 0.130810 0.004220 -0.097934
N4    N     N_R   0.408680 0.869190 0.995780 -0.103570
N5    N     N_R   0.908680 0.630810 0.995780 -0.105666
N6    N     N_R   0.091320 0.369190 0.004220 -0.100770
N7    N     N_R   0.091320 0.630810 0.004220 -0.105678
N8    N     N_R   0.908680 0.369190 0.995780 -0.100773
C9    C     C_R   0.349073 0.828183 0.221843 -0.025202
C10   C     C_R   0.615746 0.194818 0.780917 -0.008094
C11   C     C_R   0.650891 0.828148 0.778158 -0.025205
C12   C     C_R   0.384256 0.194820 0.219074 -0.008133
C13   C     C_R   0.846377 0.331965 0.222563 -0.060942
C14   C     C_R   0.098897 0.699876 0.792523 0.018356
C15   C     C_R   0.153611 0.331951 0.777440 -0.060994
C16   C     C_R   0.901103 0.699872 0.207477 0.018431
H1    H     H_    0.330991 0.776910 0.202539 0.183538
H2    H     H_    0.613465 0.253911 0.805533 0.200142
H3    H     H_    0.668941 0.776848 0.797461 0.183594
H4    H     H_    0.386538 0.253910 0.194448 0.200191
H5    H     H_    0.827960 0.278466 0.207927 0.190683
H6    H     H_    0.090874 0.756623 0.826116 0.206857
H7    H     H_    0.172014 0.278445 0.792082 0.190713
H8    H     H_    0.909133 0.756629 0.173890 0.206790
N9    N     N_R   0.421410 0.867210 0.153620 -0.062272
N10   N     N_R   0.578590 0.132790 0.846380 -0.078513
N11   N     N_R   0.578590 0.867210 0.846380 -0.062298
N12   N     N_R   0.421410 0.132790 0.153620 -0.078508
N13   N     N_R   0.921410 0.367210 0.153620 -0.059035
N14   N     N_R   0.078590 0.632790 0.846380 -0.081700
N15   N     N_R   0.078590 0.367210 0.846380 -0.059056
N16   N     N_R   0.921410 0.632790 0.153620 -0.081699
C17   C     C_R   0.349360 0.895687 0.921136 -0.070066
C18   C     C_R   0.668756 0.090811 0.048458 -0.065701
C19   C     C_R   0.650647 0.895687 0.078853 -0.070330
C20   C     C_R   0.331247 0.090815 0.951536 -0.065715
C21   C     C_R   0.844545 0.397999 0.928362 -0.060118
C22   C     C_R   0.170195 0.588826 0.045673 -0.087492
C23   C     C_R   0.155461 0.398000 0.071630 -0.060108
C24   C     C_R   0.829806 0.588827 0.954323 -0.087448
N17   N     N_R   0.403840 0.921910 0.935760 -0.080313
N18   N     N_R   0.596160 0.078090 0.064240 -0.080162
N19   N     N_R   0.596160 0.921910 0.064240 -0.080331
N20   N     N_R   0.403840 0.078090 0.935760 -0.080172
N21   N     N_R   0.903840 0.421910 0.935760 -0.078602
N22   N     N_R   0.096160 0.578090 0.064240 -0.081599
N23   N     N_R   0.096160 0.421910 0.064240 -0.078602
N24   N     N_R   0.903840 0.578090 0.935760 -0.081583
C25   C     C_R   0.390422 0.101811 0.312793 -0.037164
C26   C     C_R   0.644747 0.920989 0.683496 -0.024538
C27   C     C_R   0.609585 0.101806 0.687202 -0.037232
C28   C     C_R   0.355241 0.921000 0.316499 -0.025776
C29   C     C_R   0.906102 0.609129 0.303435 -0.048595
C30   C     C_R   0.145868 0.424513 0.684535 -0.016867
C31   C     C_R   0.093915 0.609138 0.696552 -0.048914
C32   C     C_R   0.854129 0.424520 0.315462 -0.016831
N25   N     N_R   0.426250 0.076100 0.213650 -0.079907
N26   N     N_R   0.573750 0.923900 0.786350 -0.063004
N27   N     N_R   0.573750 0.076100 0.786350 -0.079967
N28   N     N_R   0.426250 0.923900 0.213650 -0.063078
N29   N     N_R   0.926250 0.576100 0.213650 -0.073868
N30   N     N_R   0.073750 0.423900 0.786350 -0.060398
N31   N     N_R   0.073750 0.576100 0.786350 -0.073859
N32   N     N_R   0.926250 0.423900 0.213650 -0.060390
C33   C     C_R   0.292040 0.154599 0.021356 -0.043249
C34   C     C_R   0.676611 0.822776 0.030777 -0.009435
C35   C     C_R   0.707969 0.154593 0.978628 -0.043243
C36   C     C_R   0.323401 0.822771 0.969205 -0.009456
C37   C     C_R   0.788219 0.650234 0.027870 -0.036984
C38   C     C_R   0.185077 0.327122 0.017572 -0.022256
C39   C     C_R   0.211784 0.650235 0.972121 -0.036992
C40   C     C_R   0.814930 0.327118 0.982416 -0.022227
C41   C     C_R   0.306550 0.861243 0.323017 0.195226
C42   C     C_R   0.639790 0.174173 0.681000 0.188760
C43   C     C_R   0.693396 0.861195 0.676983 0.195352
C44   C     C_R   0.360218 0.174179 0.318989 0.188663
C45   C     C_R   0.803106 0.367131 0.322986 0.198291
C46   C     C_R   0.109776 0.686297 0.699732 0.161209
C47   C     C_R   0.196883 0.367116 0.677015 0.198406
C48   C     C_R   0.890221 0.686279 0.300266 0.161140
Ni1   Ni    Ni4+2 0.500000 0.131570 0.000000 0.318689
Ni2   Ni    Ni4+2 0.500000 0.868430 0.000000 0.344712
Ni3   Ni    Ni4+2 0.000000 0.631570 0.000000 0.296129
Ni4   Ni    Ni4+2 0.000000 0.368430 0.000000 0.352870
Ni5   Ni    Ni4+2 0.488900 0.000000 0.862310 0.264765
Ni6   Ni    Ni4+2 0.511100 0.000000 0.137690 0.264653
Ni7   Ni    Ni4+2 0.988900 0.500000 0.862310 0.267011
Ni8   Ni    Ni4+2 0.011100 0.500000 0.137690 0.267002
C49   C     C_3   0.271578 0.199647 0.529833 0.164458
C50   C     C_3   0.842270 0.848900 0.469601 0.187432
C51   C     C_3   0.728384 0.199652 0.470155 0.164548
C52   C     C_3   0.157567 0.848919 0.530411 0.187650
C53   C     C_3   0.766659 0.713293 0.497591 0.169578
C54   C     C_3   0.304746 0.347662 0.458924 0.148942
C55   C     C_3   0.233323 0.713419 0.502447 0.169433
C56   C     C_3   0.695293 0.347664 0.541080 0.148748
C57   C     C_3   0.728732 0.793569 0.510271 0.156957
C58   C     C_3   0.371832 0.284968 0.426923 0.186562
C59   C     C_3   0.271153 0.793751 0.489798 0.156516
C60   C     C_3   0.628175 0.284994 0.573108 0.186525
C61   C     C_3   0.205234 0.261436 0.560823 0.155150
C62   C     C_3   0.881365 0.767356 0.454332 0.184752
C63   C     C_3   0.794761 0.261413 0.439137 0.155175
C64   C     C_3   0.118570 0.767329 0.545660 0.184676
C65   C     C_3   0.757421 0.820706 0.576493 -0.325029
C66   C     C_3   0.323562 0.225672 0.410214 -0.347961
C67   C     C_3   0.242459 0.820781 0.423538 -0.324945
C68   C     C_3   0.676447 0.225662 0.589768 -0.348083
C69   C     C_3   0.252681 0.322016 0.578746 -0.330116
C70   C     C_3   0.851691 0.740414 0.389916 -0.332397
C71   C     C_3   0.747312 0.322030 0.421260 -0.330186
C72   C     C_3   0.148238 0.740479 0.610114 -0.332669
C73   C     C_3   0.319447 0.259005 0.546701 0.173910
C74   C     C_3   0.812904 0.822066 0.404573 0.132954
C75   C     C_3   0.680515 0.259046 0.453334 0.174006
C76   C     C_3   0.186922 0.822191 0.595497 0.133665
C77   C     C_3   0.796743 0.739397 0.561077 0.141026
C78   C     C_3   0.256566 0.288153 0.442721 0.155319
C79   C     C_3   0.203234 0.739424 0.438935 0.141225
C80   C     C_3   0.743476 0.288116 0.557238 0.155544
C81   C     C_2   0.278891 0.697088 0.953114 -0.004048
C82   C     C_2   0.754153 0.277255 0.992799 -0.032186
C83   C     C_2   0.721115 0.697090 0.046874 -0.004039
C84   C     C_2   0.245858 0.277261 0.007178 -0.032120
C85   C     C_2   0.772815 0.202588 0.962630 -0.007888
C86   C     C_2   0.263562 0.773028 0.976756 -0.068375
C87   C     C_2   0.227195 0.202594 0.037355 -0.007916
C88   C     C_2   0.736450 0.773030 0.023225 -0.068337
H9    H     H_    0.338896 0.669820 0.921320 0.203433
H10   H     H_    0.691555 0.301802 0.031729 0.192468
H11   H     H_    0.661107 0.669824 0.078677 0.203455
H12   H     H_    0.308459 0.301808 0.968236 0.192490
H13   H     H_    0.834864 0.177416 0.925357 0.202310
H14   H     H_    0.202675 0.799396 0.011051 0.189233
H15   H     H_    0.165142 0.177422 0.074643 0.202300
H16   H     H_    0.797339 0.799397 0.988926 0.189261
N33   N     N_R   0.344383 0.255034 0.081579 0.199810
O1    O     O_R   0.414515 0.295415 0.025212 -0.341794
O2    O     O_R   0.273980 0.287770 0.162882 -0.324764
N34   N     N_R   0.614702 0.729771 0.977163 0.221560
O3    O     O_R   0.673803 0.680252 0.908541 -0.329774
O4    O     O_R   0.536799 0.705480 0.047931 -0.288589
N35   N     N_R   0.655638 0.255026 0.918383 0.199798
O5    O     O_R   0.585516 0.295419 0.974745 -0.341821
O6    O     O_R   0.726046 0.287749 0.837063 -0.324797
N36   N     N_R   0.385307 0.729768 0.022827 0.221592
O7    O     O_R   0.326208 0.680247 0.091458 -0.329762
O8    O     O_R   0.463208 0.705477 0.952048 -0.288629
N37   N     N_R   0.833733 0.748114 0.099241 0.198678
O9    O     O_R   0.894866 0.798875 0.042013 -0.356190
O10   O     O_R   0.762105 0.769334 0.191146 -0.313701
N38   N     N_R   0.124069 0.231434 0.965286 0.217145
O11   O     O_R   0.186105 0.184734 0.894882 -0.341788
O12   O     O_R   0.047258 0.203896 0.032528 -0.277351
N39   N     N_R   0.166263 0.748123 0.900761 0.198646
O13   O     O_R   0.105129 0.798879 0.957998 -0.356321
O14   O     O_R   0.237878 0.769345 0.808837 -0.314066
N40   N     N_R   0.875929 0.231432 0.034721 0.217154
O15   O     O_R   0.813889 0.184732 0.105128 -0.341789
O16   O     O_R   0.952739 0.203893 0.967482 -0.277365
H17   H     H_    0.335798 0.923347 0.871958 0.171123
H18   H     H_    0.688581 0.060417 0.089184 0.171912
H19   H     H_    0.664212 0.923344 0.128028 0.171155
H20   H     H_    0.311421 0.060422 0.910812 0.171909
H21   H     H_    0.829697 0.425318 0.880371 0.172648
H22   H     H_    0.189868 0.558667 0.086664 0.173588
H23   H     H_    0.170313 0.425317 0.119616 0.172648
H24   H     H_    0.810134 0.558670 0.913331 0.173589
H25   H     H_    0.396083 0.074836 0.369912 0.151286
H26   H     H_    0.657673 0.954422 0.616622 0.144010
H27   H     H_    0.603923 0.074829 0.630086 0.151251
H28   H     H_    0.342307 0.954444 0.383366 0.144268
H29   H     H_    0.910213 0.581152 0.361422 0.157222
H30   H     H_    0.157522 0.458934 0.618976 0.144265
H31   H     H_    0.089800 0.581166 0.638567 0.157304
H32   H     H_    0.842476 0.458940 0.381018 0.144282
N41   N     N_R   0.644005 0.800773 0.540796 0.276362
O17   O     O_R   0.636152 0.798585 0.465164 -0.223164
O18   O     O_R   0.577635 0.784748 0.640193 -0.323028
N42   N     N_R   0.464026 0.294089 0.351152 0.280929
O19   O     O_R   0.512657 0.233837 0.324954 -0.304748
O20   O     O_R   0.498153 0.361026 0.304864 -0.262940
N43   N     N_R   0.355997 0.801069 0.458877 0.275757
O21   O     O_R   0.364078 0.801230 0.534360 -0.224179
O22   O     O_R   0.422179 0.783650 0.359941 -0.321587
N44   N     N_R   0.535982 0.294121 0.648934 0.280903
O23   O     O_R   0.487338 0.233890 0.675062 -0.304700
O24   O     O_R   0.501872 0.361015 0.695404 -0.263112
N45   N     N_R   0.113215 0.248918 0.633559 0.279226
O25   O     O_R   0.063430 0.300449 0.638869 -0.323557
O26   O     O_R   0.080214 0.187559 0.695786 -0.247077
N46   N     N_R   0.965546 0.751285 0.420988 0.293172
O27   O     O_R   0.990028 0.679493 0.412452 -0.298703
O28   O     O_R   0.018074 0.808113 0.394365 -0.254162
N47   N     N_R   0.886775 0.248871 0.366360 0.279217
O29   O     O_R   0.936595 0.300379 0.361011 -0.323559
O30   O     O_R   0.919737 0.187508 0.304142 -0.247016
N48   N     N_R   0.034416 0.751166 0.578965 0.293210
O31   O     O_R   0.010009 0.679349 0.587470 -0.298733
O32   O     O_R   0.981839 0.807942 0.605580 -0.254096
N49   N     N_R   0.251011 0.119132 0.568596 0.274061
O33   O     O_R   0.267342 0.092525 0.630860 -0.249308
O34   O     O_R   0.212495 0.074544 0.545037 -0.288951
N50   N     N_R   0.883386 0.923036 0.456294 0.307785
O35   O     O_R   0.952636 0.943422 0.361395 -0.219933
O36   O     O_R   0.852774 0.967912 0.539953 -0.286334
N51   N     N_R   0.748910 0.119139 0.431387 0.274015
O37   O     O_R   0.732513 0.092555 0.369183 -0.249582
O38   O     O_R   0.787442 0.074526 0.454896 -0.288969
N52   N     N_R   0.116398 0.923008 0.543657 0.307807
O39   O     O_R   0.047096 0.943369 0.638518 -0.219960
O40   O     O_R   0.147057 0.967894 0.459988 -0.286238
N53   N     N_R   0.718961 0.642553 0.516167 0.281370
O41   O     O_R   0.659559 0.620319 0.615905 -0.206329
O42   O     O_R   0.714764 0.619613 0.441105 -0.302752
N54   N     N_R   0.327147 0.428028 0.421250 0.281987
O43   O     O_R   0.344130 0.447478 0.329809 -0.219272
O44   O     O_R   0.353866 0.472582 0.460879 -0.245143
N55   N     N_R   0.281050 0.642729 0.483978 0.281310
O45   O     O_R   0.340241 0.620256 0.384296 -0.206035
O46   O     O_R   0.285503 0.620072 0.558920 -0.302562
N56   N     N_R   0.672903 0.428036 0.578738 0.281880
O47   O     O_R   0.656632 0.447670 0.669699 -0.219432
O48   O     O_R   0.645687 0.472464 0.539617 -0.244580
N57   N     N_R   0.356270 0.244296 0.600271 0.297872
O49   O     O_R   0.408871 0.186523 0.568287 -0.226621
O50   O     O_R   0.341701 0.291806 0.674576 -0.312252
N58   N     N_R   0.824795 0.870854 0.320066 0.286458
O51   O     O_R   0.759858 0.903362 0.335510 -0.228396
O52   O     O_R   0.901061 0.892473 0.237120 -0.257642
N59   N     N_R   0.643654 0.244382 0.399803 0.297870
O53   O     O_R   0.591015 0.186636 0.431818 -0.226581
O54   O     O_R   0.658248 0.291892 0.325480 -0.312236
N60   N     N_R   0.174706 0.871050 0.680160 0.286564
O55   O     O_R   0.239387 0.904208 0.664689 -0.227424
O56   O     O_R   0.098285 0.892286 0.763136 -0.258171
N61   N     N_R   0.794218 0.694749 0.641702 0.278355
O57   O     O_R   0.771753 0.621692 0.659403 -0.240840
O58   O     O_R   0.824991 0.725147 0.685926 -0.287981
N62   N     N_R   0.217120 0.300121 0.391937 0.288370
O59   O     O_R   0.178351 0.242160 0.386420 -0.259105
O60   O     O_R   0.208405 0.370204 0.368517 -0.244275
N63   N     N_R   0.205798 0.694749 0.358300 0.278359
O61   O     O_R   0.228233 0.621686 0.340673 -0.240836
O62   O     O_R   0.174999 0.725106 0.314084 -0.288029
N64   N     N_R   0.782985 0.299991 0.607958 0.288445
O63   O     O_R   0.821625 0.241941 0.613549 -0.259228
O64   O     O_R   0.791985 0.370058 0.631104 -0.244113

loop_
_geom_bond_atom_site_label_1
_geom_bond_atom_site_label_2
_geom_bond_distance
_ccdc_geom_bond_type
N12   Ni1   1.888066 S    
N24   Ni7   1.892668 S    
N44   O24   1.299947 A    
N47   O29   1.300460 A    
C13   H5    1.067181 S    
N37   O9    1.301985 A    
C50   C62   1.546647 S    
C53   N53   1.458288 S    
N21   Ni7   1.892623 S    
N7    Ni3   1.887491 S    
C49   C66   1.541283 S    
C43   C65   1.446513 S    
C1    N33   1.429130 S    
C55   C72   1.545297 S    
C10   H2    1.074397 S    
C27   C42   1.357268 A    
C24   N24   1.343931 A    
N29   Ni8   1.868685 S    
C5    C37   1.373021 A    
N54   O43   1.299930 A    
C62   C70   1.540059 S    
N43   O22   1.300960 A    
N33   O1    1.301338 A    
C42   C68   1.435158 S    
C54   N54   1.453884 S    
N63   O61   1.299769 A    
C52   C67   1.544304 S    
N47   O30   1.300120 A    
C46   C72   1.443818 S    
C18   C35   1.392175 A    
N53   O41   1.300081 A    
C7    C39   1.373030 A    
C49   N49   1.458792 S    
C58   C66   1.540903 S    
C59   C67   1.551036 S    
C53   C70   1.545176 S    
C57   C65   1.551006 S    
N39   O14   1.301330 A    
N59   O53   1.299512 A    
N34   O4    1.299708 A    
C4    N36   1.431017 S    
C47   C69   1.441049 S    
N51   O38   1.300029 A    
C37   C83   1.435478 S    
C22   C39   1.390640 A    
C66   C78   1.538618 S    
N48   O32   1.299699 A    
N41   O18   1.300779 A    
N31   Ni7   1.868637 S    
N45   O25   1.300457 A    
C55   N55   1.458269 S    
C14   N14   1.331240 A    
C48   C70   1.443585 S    
C67   C79   1.544506 S    
N58   O51   1.299457 A    
C30   N30   1.328252 A    
C13   N13   1.331898 A    
C45   C71   1.441049 S    
C70   C74   1.547362 S    
C57   N41   1.463289 S    
C16   H8    1.069431 S    
N45   O26   1.300119 A    
C38   C84   1.417945 S    
N8    N21   1.355826 A    
C64   C79   1.540173 S    
N64   O64   1.299719 A    
C18   H18   1.080699 S    
C27   N27   1.320521 A    
C61   N45   1.462465 S    
C26   N26   1.330529 A    
C58   N42   1.457924 S    
C33   C87   1.428175 S    
N42   O20   1.299950 A    
C49   C73   1.537048 S    
N46   O27   1.300012 A    
C34   C88   1.421293 S    
C80   N64   1.456765 S    
N35   O5    1.301339 A    
C22   H22   1.079961 S    
C54   C58   1.544118 S    
C82   H10   1.085052 S    
C4    N4    1.325120 A    
C3    C35   1.372235 A    
N57   O49   1.299514 A    
C5    N5    1.321206 A    
C27   H27   1.081112 S    
C2    C34   1.368056 A    
C56   C71   1.541868 S    
C20   N20   1.342206 A    
C19   C34   1.381852 A    
C14   C46   1.357680 A    
N6    N23   1.355861 A    
C28   N28   1.330549 A    
C52   N52   1.458157 S    
C8    N8    1.321638 A    
N5    N24   1.355863 A    
C15   C47   1.377920 A    
N61   O57   1.299778 A    
N5    Ni3   1.887493 S    
N35   O6    1.300457 A    
N40   O16   1.299167 A    
C41   C67   1.446783 S    
N56   O47   1.299893 A    
N1    N20   1.355863 A    
C9    N9    1.328467 A    
C59   C76   1.532951 S    
C11   C43   1.373033 A    
N2    N19   1.355861 A    
C10   C42   1.373309 A    
C17   N17   1.336198 A    
N33   O2    1.300451 A    
C81   H9    1.084040 S    
N62   O60   1.299730 A    
N4    N17   1.355826 A    
C75   N59   1.456722 S    
C53   C57   1.524385 S    
C13   C45   1.377954 A    
C64   N48   1.456239 S    
C31   H31   1.081487 S    
N16   N29   1.402110 A    
C78   N62   1.456731 S    
N43   O21   1.300244 A    
N7    N22   1.355824 A    
C40   C82   1.417949 S    
N34   O3    1.301216 A    
C26   H26   1.078801 S    
C83   C88   1.334414 D    
C63   N47   1.462467 S    
N60   O56   1.300411 A    
C64   C72   1.540008 S    
C83   H11   1.084041 S    
C19   H19   1.081246 S    
N48   O31   1.300012 A    
N18   Ni6   1.892621 S    
C50   C65   1.544312 S    
C71   C75   1.543400 S    
C29   H29   1.081493 S    
C12   H4    1.074394 S    
N11   N26   1.402113 A    
C54   C78   1.537461 S    
C7    N39   1.427629 S    
N14   Ni3   1.888064 S    
N28   Ni6   1.868639 S    
N27   Ni5   1.868638 S    
N42   O19   1.300066 A    
C52   C76   1.543375 S    
N32   Ni8   1.868640 S    
C24   C37   1.390642 A    
C61   C69   1.554168 S    
N30   Ni7   1.868686 S    
N51   O37   1.299845 A    
C20   H20   1.080699 S    
N64   O63   1.300620 A    
C29   C48   1.367659 A    
C21   H21   1.080758 S    
C73   N57   1.456729 S    
C86   H14   1.083266 S    
C74   N58   1.460216 S    
C28   C41   1.377648 A    
N3    Ni1   1.887491 S    
C56   N56   1.453926 S    
N55   O45   1.300075 A    
C56   C80   1.537526 S    
C3    N3    1.316203 A    
C51   C63   1.526876 S    
C22   N22   1.343931 A    
C7    N7    1.321218 A    
N49   O33   1.299847 A    
C25   C44   1.357302 A    
C1    N1    1.316186 A    
N20   Ni5   1.892668 S    
N59   O54   1.300155 A    
C51   C68   1.541253 S    
C53   C77   1.529221 S    
N56   O48   1.299532 A    
C10   N10   1.335930 A    
N6    Ni4   1.887491 S    
N36   O7    1.301214 A    
C54   C69   1.541833 S    
C8    N40   1.432371 S    
C18   N18   1.342209 A    
N26   Ni5   1.868685 S    
C63   C71   1.554184 S    
N46   O28   1.299703 A    
N25   Ni6   1.868685 S    
N55   O46   1.300610 A    
N63   O62   1.299973 A    
C31   N31   1.330274 A    
C52   C64   1.546589 S    
C5    N37   1.427610 S    
C12   C44   1.373286 A    
C31   C46   1.367752 A    
N40   O15   1.302123 A    
C88   H16   1.083270 S    
N52   O39   1.300122 A    
C59   N43   1.463220 S    
C82   C85   1.333356 D    
C84   H12   1.085055 S    
C60   C75   1.542271 S    
C76   N60   1.460289 S    
C2    N2    1.325111 A    
N15   Ni4   1.888066 S    
C56   C60   1.544158 S    
C11   H3    1.066243 S    
N62   O59   1.300618 A    
C79   N63   1.457761 S    
C23   N23   1.338656 A    
C51   C75   1.537036 S    
C29   N29   1.330197 A    
C50   C74   1.543271 S    
N14   N31   1.402152 A    
N49   O34   1.300035 A    
C36   C86   1.421283 S    
C14   H6    1.069386 S    
N13   Ni4   1.888064 S    
N60   O55   1.299455 A    
N12   N25   1.402110 A    
N36   O8    1.299708 A    
C30   H30   1.080538 S    
C16   C48   1.357648 A    
N50   O36   1.300324 A    
N23   Ni8   1.892668 S    
C55   C79   1.529165 S    
N54   O44   1.299532 A    
N10   N27   1.402151 A    
N4    Ni2   1.887493 S    
C6    N38   1.432373 S    
C35   C85   1.428189 S    
N8    Ni4   1.887493 S    
C69   C73   1.543417 S    
N1    Ni1   1.887493 S    
C28   H28   1.078799 S    
C30   C47   1.374194 A    
C3    N35   1.429132 S    
C62   N46   1.456237 S    
N52   O40   1.300323 A    
N53   O42   1.300591 A    
C60   N44   1.457939 S    
C9    H1    1.066234 S    
C44   C66   1.435179 S    
C60   C68   1.540900 S    
N61   O58   1.299963 A    
C49   C61   1.526894 S    
C32   H32   1.080536 S    
N10   Ni1   1.888064 S    
C1    C33   1.372231 A    
C6    N6    1.321624 A    
C32   C45   1.374159 A    
N3    N18   1.355824 A    
C11   N11   1.328381 A    
N9    Ni2   1.888064 S    
N38   O11   1.302125 A    
C17   C36   1.381834 A    
C25   H25   1.081114 S    
C19   N19   1.336211 A    
N41   O17   1.299884 A    
C51   N51   1.458799 S    
C84   C87   1.333356 D    
C15   N15   1.331874 A    
C58   C73   1.542285 S    
C87   H15   1.084819 S    
C16   N16   1.331228 A    
N15   N30   1.402112 A    
N58   O52   1.300382 A    
C57   C74   1.532733 S    
N44   O23   1.300068 A    
C21   C40   1.384745 A    
C9    C41   1.373105 A    
C32   N32   1.328247 A    
N16   Ni3   1.888066 S    
C20   C33   1.392181 A    
C4    C36   1.368057 A    
N39   O13   1.301987 A    
C6    C38   1.364177 A    
N19   Ni6   1.892668 S    
C62   C77   1.540197 S    
C21   N21   1.338647 A    
C81   C86   1.334406 D    
C12   N12   1.335927 A    
N11   Ni2   1.888066 S    
C61   C78   1.526883 S    
C65   C77   1.544541 S    
N50   O35   1.300121 A    
N2    Ni2   1.887491 S    
N37   O10   1.301319 A    
C77   N61   1.457743 S    
C68   C80   1.538617 S    
N13   N32   1.402148 A    
N57   O50   1.300157 A    
C63   C80   1.526906 S    
C8    C40   1.364185 A    
C55   C59   1.524506 S    
C85   H13   1.084819 S    
C23   C38   1.384758 A    
N17   Ni5   1.892623 S    
C17   H17   1.081247 S    
C26   C43   1.377595 A    
C2    N34   1.431015 S    
N22   Ni8   1.892621 S    
C50   N50   1.458138 S    
C23   H23   1.080757 S    
C72   C76   1.547531 S    
N9    N28   1.402149 A    
N38   O12   1.299166 A    
C24   H24   1.079961 S    
C25   N25   1.320548 A    
C15   H7    1.067178 S    
C39   C81   1.435476 S    
