data_mof_unit_22372.cif
_audit_creation_date              2013-03-05T15:41:35-0500
_audit_creation_method            fapswitch 2.2
_symmetry_space_group_name_H-M    P1
_symmetry_Int_Tables_number       1
_space_group_crystal_system       triclinic
_cell_length_a                    24.74853
_cell_length_b                    17.594197
_cell_length_c                    15.537652
_cell_angle_alpha                 90.204334
_cell_angle_beta                  129.497926
_cell_angle_gamma                 90.184609
_cell_volume                      5220.46883539

loop_
_atom_site_label
_atom_site_type_symbol
_atom_site_description
_atom_site_fract_x
_atom_site_fract_y
_atom_site_fract_z
_atom_type_partial_charge
C1    C     C_R   0.350542 0.359617 0.242569 -0.094260
C2    C     C_R   0.331995 0.602466 0.196895 -0.079556
C3    C     C_R   0.851055 0.858817 0.244988 -0.110528
C4    C     C_R   0.832856 0.104550 0.197723 -0.087079
H1    H     H_    0.302837 0.347443 0.228788 0.109075
H2    H     H_    0.280221 0.599671 0.172286 0.093893
H3    H     H_    0.803604 0.846569 0.231928 0.130576
H4    H     H_    0.780673 0.101613 0.171437 0.100759
N1    N     N_R   0.389430 0.421450 0.294590 -0.056678
N2    N     N_R   0.389430 0.578550 0.294590 -0.054514
N3    N     N_R   0.889430 0.921450 0.294590 -0.056323
N4    N     N_R   0.889430 0.078550 0.294590 -0.056122
C5    C     C_R   0.648775 0.361121 0.754245 -0.057703
C6    C     C_R   0.667082 0.608551 0.799774 -0.099701
C7    C     C_R   0.149262 0.861555 0.754777 -0.040488
C8    C     C_R   0.166718 0.109377 0.799011 -0.101979
H5    H     H_    0.693909 0.344308 0.762950 0.114793
H6    H     H_    0.719027 0.610861 0.825555 0.125735
H7    H     H_    0.193634 0.844852 0.761302 0.144214
H8    H     H_    0.218748 0.111844 0.825008 0.123485
N5    N     N_R   0.612200 0.424040 0.705410 -0.049804
N6    N     N_R   0.612200 0.575960 0.705410 -0.050590
N7    N     N_R   0.112200 0.924040 0.705410 -0.054526
N8    N     N_R   0.112200 0.075960 0.705410 -0.051133
C9    C     C_R   0.614896 0.401320 0.406532 0.240611
C10   C     C_R   0.598194 0.635844 0.408693 0.215833
C11   C     C_R   0.114862 0.898180 0.406607 0.192277
C12   C     C_R   0.100109 0.131955 0.407153 0.194408
N9    N     N_R   0.581780 0.422390 0.443390 -0.076989
N10   N     N_R   0.581780 0.577610 0.443390 -0.064475
N11   N     N_R   0.081780 0.922390 0.443390 -0.068431
N12   N     N_R   0.081780 0.077610 0.443390 -0.057217
C13   C     C_R   0.388820 0.397984 0.595434 -0.146263
C14   C     C_R   0.412288 0.638549 0.596112 -0.121710
C15   C     C_R   0.888910 0.898169 0.595436 -0.139144
C16   C     C_R   0.905344 0.134735 0.593508 -0.126302
H9    H     H_    0.412794 0.397793 0.682603 0.100944
H10   H     H_    0.439003 0.647404 0.683227 0.136285
H11   H     H_    0.912848 0.898313 0.682700 0.104792
H12   H     H_    0.930630 0.146080 0.680016 0.101531
N13   N     N_R   0.419850 0.423100 0.556610 -0.041413
N14   N     N_R   0.419850 0.576900 0.556610 -0.048590
N15   N     N_R   0.919850 0.923100 0.556610 -0.044905
N16   N     N_R   0.919850 0.076900 0.556610 -0.042805
C17   C     C_R   0.688140 0.396520 0.591408 -0.150555
C18   C     C_R   0.670470 0.635535 0.596051 -0.100394
C19   C     C_R   0.189268 0.900563 0.591719 -0.142061
C20   C     C_R   0.168827 0.137232 0.594217 -0.101014
H13   H     H_    0.734598 0.394064 0.677785 0.157131
H14   H     H_    0.713145 0.645583 0.683047 0.114412
H15   H     H_    0.236286 0.904523 0.677725 0.135285
H16   H     H_    0.211304 0.149519 0.680822 0.115060
N17   N     N_R   0.627410 0.423100 0.556610 -0.065144
N18   N     N_R   0.627410 0.576900 0.556610 -0.055266
N19   N     N_R   0.127410 0.923100 0.556610 -0.060139
N20   N     N_R   0.127410 0.076900 0.556610 -0.056161
C21   C     C_R   0.312677 0.399396 0.410704 -0.073302
C22   C     C_R   0.338826 0.641979 0.409932 -0.083185
C23   C     C_R   0.812349 0.901065 0.411155 -0.098930
C24   C     C_R   0.832535 0.135988 0.406096 -0.044191
H17   H     H_    0.265099 0.398007 0.324878 0.114670
H18   H     H_    0.297868 0.656276 0.323803 0.121910
H19   H     H_    0.763711 0.906568 0.327143 0.140618
H20   H     H_    0.791377 0.147412 0.319052 0.113452
N21   N     N_R   0.374220 0.422390 0.443390 -0.043843
N22   N     N_R   0.374220 0.577610 0.443390 -0.050843
N23   N     N_R   0.874220 0.922390 0.443390 -0.048507
N24   N     N_R   0.874220 0.077610 0.443390 -0.049710
C25   C     C_R   0.558840 0.360683 0.756976 -0.091318
C26   C     C_R   0.577934 0.607897 0.802398 -0.092934
C27   C     C_R   0.059687 0.860985 0.758363 -0.107263
C28   C     C_R   0.077104 0.109299 0.800944 -0.112560
H21   H     H_    0.522612 0.343962 0.770191 0.112643
H22   H     H_    0.549655 0.607173 0.834025 0.128233
H23   H     H_    0.023524 0.844066 0.771653 0.112108
H24   H     H_    0.048234 0.109685 0.831560 0.115519
N25   N     N_R   0.555000 0.424040 0.705410 -0.053755
N26   N     N_R   0.555000 0.575960 0.705410 -0.053432
N27   N     N_R   0.055000 0.924040 0.705410 -0.052499
N28   N     N_R   0.055000 0.075960 0.705410 -0.050335
C29   C     C_R   0.441917 0.356708 0.243513 -0.113404
C30   C     C_R   0.417895 0.596156 0.188930 -0.035469
C31   C     C_R   0.942554 0.854796 0.247272 -0.093655
C32   C     C_R   0.920481 0.102628 0.192649 -0.061050
H25   H     H_    0.478657 0.338315 0.232351 0.169520
H26   H     H_    0.438517 0.578762 0.148529 0.148024
H27   H     H_    0.979835 0.833183 0.239721 0.138331
H28   H     H_    0.943560 0.093159 0.154166 0.150432
N29   N     N_R   0.446630 0.421450 0.294590 -0.052188
N30   N     N_R   0.446630 0.578550 0.294590 -0.048224
N31   N     N_R   0.946630 0.921450 0.294590 -0.046737
N32   N     N_R   0.946630 0.078550 0.294590 -0.048103
C33   C     C_R   0.382776 0.316640 0.211607 0.128889
C34   C     C_R   0.348276 0.613448 0.128600 0.100787
C35   C     C_R   0.883632 0.814954 0.215828 0.119675
C36   C     C_R   0.850757 0.119636 0.132114 0.121855
C37   C     C_R   0.617458 0.321221 0.788951 0.154495
C38   C     C_R   0.647840 0.627955 0.863017 0.156591
C39   C     C_R   0.118784 0.821797 0.791012 0.153950
C40   C     C_R   0.146907 0.129577 0.861233 0.164626
C41   C     C_R   0.681177 0.378959 0.498370 0.025518
C42   C     C_R   0.653541 0.674371 0.505253 0.018427
C43   C     C_R   0.183127 0.880933 0.499891 0.099437
C44   C     C_R   0.152455 0.174043 0.501982 0.059478
C45   C     C_R   0.320918 0.382337 0.505218 0.132142
C46   C     C_R   0.360273 0.681235 0.505377 0.106451
C47   C     C_R   0.821070 0.882003 0.505209 0.105184
C48   C     C_R   0.848593 0.171228 0.498994 0.098895
Ni1   Ni    Ni4+2 0.382890 0.500000 0.370170 0.223232
Ni2   Ni    Ni4+2 0.882890 0.000000 0.370170 0.230388
Ni3   Ni    Ni4+2 0.618740 0.500000 0.629830 0.251010
Ni4   Ni    Ni4+2 0.118740 0.000000 0.629830 0.248554
Ni5   Ni    Ni4+2 0.514090 0.500000 0.370170 0.264747
Ni6   Ni    Ni4+2 0.014090 0.000000 0.370170 0.274580
Ni7   Ni    Ni4+2 0.487550 0.500000 0.629830 0.231568
Ni8   Ni    Ni4+2 0.987550 0.000000 0.629830 0.230283
C49   C     C_3   0.298875 0.248289 0.508906 -0.045425
C50   C     C_3   0.338119 0.744150 0.626482 -0.104725
C51   C     C_3   0.770308 0.754603 0.450891 -0.110908
C52   C     C_3   0.837859 0.306217 0.525673 -0.082505
H29   H     H_    0.350701 0.239377 0.592417 0.175511
H30   H     H_    0.340400 0.686172 0.656653 0.179165
H31   H     H_    0.823851 0.736803 0.485760 0.188673
H32   H     H_    0.892098 0.302483 0.606239 0.176620
C53   C     C_3   0.737887 0.693595 0.474972 0.014091
C54   C     C_3   0.795167 0.363617 0.536421 0.018489
C55   C     C_3   0.246520 0.191661 0.492644 -0.003211
C56   C     C_3   0.282220 0.788998 0.619069 -0.010109
H33   H     H_    0.702890 0.657598 0.400468 0.184992
H34   H     H_    0.781301 0.413619 0.482431 0.171612
H35   H     H_    0.215024 0.169286 0.406918 0.178808
H36   H     H_    0.309846 0.830965 0.688314 0.149159
H37   H     H_    0.339048 0.339024 0.692454 0.176900
H38   H     H_    0.234200 0.656861 0.456859 0.219598
H39   H     H_    0.856865 0.783316 0.673796 0.191376
H40   H     H_    0.846989 0.207487 0.670051 0.177915
H41   H     H_    0.787231 0.720356 0.694630 0.201876
H42   H     H_    0.771104 0.278119 0.664919 0.194731
H43   H     H_    0.283900 0.236857 0.689940 0.199129
H44   H     H_    0.150569 0.742429 0.410902 0.217523
C57   C     C_3   0.283517 0.341120 0.615471 -0.444296
C58   C     C_3   0.240004 0.710303 0.425098 -0.386084
C59   C     C_3   0.806656 0.814457 0.630510 -0.391881
C60   C     C_3   0.795525 0.203568 0.584568 -0.387307
C61   C     C_3   0.197131 0.344464 0.404834 -0.048710
C62   C     C_3   0.323713 0.820061 0.473951 -0.013869
C63   C     C_3   0.701129 0.865906 0.446422 0.048924
C64   C     C_3   0.728716 0.226710 0.379093 0.038548
C65   C     C_3   0.275432 0.331256 0.507630 0.091563
C66   C     C_3   0.317492 0.738786 0.507645 0.086400
C67   C     C_3   0.774955 0.831635 0.507481 0.077561
C68   C     C_3   0.803336 0.225869 0.496175 0.060107
H45   H     H_    0.189175 0.326306 0.328749 0.108617
H46   H     H_    0.379590 0.837904 0.530707 0.154441
H47   H     H_    0.679689 0.886031 0.362311 0.137406
H48   H     H_    0.732527 0.240532 0.313392 0.105512
C69   C     C_3   0.698685 0.732580 0.511686 0.039855
C70   C     C_3   0.726114 0.324346 0.498171 0.019802
C71   C     C_3   0.197286 0.232418 0.508092 0.038185
C72   C     C_3   0.233229 0.831282 0.504043 0.041838
C73   C     C_3   0.755970 0.765190 0.631491 -0.385138
C74   C     C_3   0.745354 0.257561 0.578966 -0.377306
C75   C     C_3   0.244418 0.275847 0.622054 -0.404362
C76   C     C_3   0.191203 0.769996 0.411176 -0.386956
C77   C     C_3   0.653381 0.801540 0.432875 0.311888
C78   C     C_3   0.686787 0.290526 0.377584 0.309035
C79   C     C_3   0.150604 0.292784 0.414196 0.330544
C80   C     C_3   0.282089 0.876775 0.490339 0.313474
H49   H     H_    0.622950 0.783275 0.345702 0.154049
H50   H     H_    0.685134 0.336007 0.326742 0.130314
H51   H     H_    0.113756 0.265939 0.331962 0.129780
H52   H     H_    0.321114 0.907939 0.570079 0.144350
H53   H     H_    0.262703 0.397022 0.615402 0.211891
H54   H     H_    0.221919 0.697180 0.340516 0.187819
H55   H     H_    0.818905 0.867170 0.679651 0.197383
H56   H     H_    0.776553 0.143965 0.572247 0.224291
H57   H     H_    0.732822 0.799084 0.661051 0.175058
H58   H     H_    0.698090 0.225852 0.552706 0.182932
H59   H     H_    0.213472 0.298267 0.645670 0.187149
H60   H     H_    0.163828 0.795163 0.328012 0.200651
H61   H     H_    0.208020 0.630450 0.991210 0.132866
H62   H     H_    0.280615 0.229986 0.171882 0.153582
H63   H     H_    0.709974 0.129967 0.989828 0.142497
H64   H     H_    0.783274 0.726069 0.178590 0.165962
C81   C     C_2   0.642886 0.249138 0.846600 -0.285429
C82   C     C_2   0.693436 0.661987 0.974811 -0.264767
C83   C     C_2   0.143755 0.748985 0.847438 -0.270763
C84   C     C_2   0.192176 0.164339 0.972036 -0.289194
C85   C     C_2   0.711684 0.238957 0.925817 0.259426
C86   C     C_2   0.762924 0.649794 0.050154 0.266321
C87   C     C_2   0.212475 0.735030 0.921548 0.284365
C88   C     C_2   0.261472 0.151591 0.047441 0.273446
H65   H     H_    0.326290 0.664993 0.982886 0.183800
H66   H     H_    0.377623 0.222622 0.112305 0.166794
H67   H     H_    0.830233 0.179559 0.992514 0.166310
H68   H     H_    0.878493 0.721831 0.115791 0.163981
C89   C     C_2   0.301396 0.639862 0.013830 -0.133844
C90   C     C_2   0.356949 0.243496 0.152085 -0.161644
C91   C     C_2   0.804894 0.149405 0.019446 -0.149212
C92   C     C_2   0.858200 0.741681 0.156594 -0.170325
C93   C     C_2   0.236161 0.659246 0.968461 -0.180393
C94   C     C_2   0.303148 0.207924 0.135988 -0.124979
C95   C     C_2   0.738314 0.163670 0.971410 -0.190309
C96   C     C_2   0.804711 0.705337 0.140415 -0.138847
H69   H     H_    0.605996 0.202369 0.817402 0.157081
H70   H     H_    0.669919 0.705881 0.990856 0.169147
H71   H     H_    0.105552 0.704700 0.822992 0.150939
H72   H     H_    0.168855 0.209438 0.986699 0.142485
I1    I     I_    0.318481 0.216964 0.395924 -0.379036
I2    I     I_    0.440845 0.795208 0.756010 -0.394216
I3    I     I_    0.710685 0.755443 0.270707 -0.450502
I4    I     I_    0.852232 0.346830 0.409963 -0.301340
I5    I     I_    0.302509 0.093491 0.597750 -0.326649
I6    I     I_    0.227547 0.714504 0.653447 -0.424477
I7    I     I_    0.814929 0.610127 0.589278 -0.354506
I8    I     I_    0.862463 0.408135 0.705805 -0.341285
I9    I     I_    0.702552 0.967245 0.528220 -0.341670
I10   I     I_    0.673641 0.117144 0.324508 -0.316308
I11   I     I_    0.165677 0.463317 0.374616 -0.358371
I12   I     I_    0.298965 0.825033 0.312236 -0.288548
O1    O     O_3   0.603718 0.827501 0.442731 -0.665934
H73   H     H_    0.626296 0.831740 0.522694 0.345032
O2    O     O_3   0.616977 0.267360 0.322327 -0.700787
H74   H     H_    0.615004 0.238658 0.374905 0.345775
O3    O     O_3   0.108145 0.332849 0.429881 -0.669262
H75   H     H_    0.137850 0.368213 0.493894 0.355625
O4    O     O_3   0.247133 0.933133 0.408194 -0.647676
H76   H     H_    0.214020 0.907518 0.335292 0.370178
I13   I     I_    0.784599 0.332431 0.013222 -0.280213
I14   I     I_    0.817042 0.556961 0.047539 -0.273985
I15   I     I_    0.290773 0.824114 0.003664 -0.252576
I16   I     I_    0.314584 0.056163 0.047873 -0.253850
I17   I     I_    0.580956 0.440682 0.249631 -0.361354
I18   I     I_    0.560271 0.650921 0.241787 -0.340037
I19   I     I_    0.073247 0.916562 0.238720 -0.404081
I20   I     I_    0.077723 0.124917 0.249581 -0.383902

loop_
_geom_bond_atom_site_label_1
_geom_bond_atom_site_label_2
_geom_bond_distance
_ccdc_geom_bond_type
C52   I4    2.165766 S    
C36   C91   1.452562 S    
C21   C45   1.382330 A    
C59   C73   1.530533 S    
C22   H18   1.077070 S    
C46   C66   1.483791 S    
C2    C34   1.367704 A    
C55   C71   1.559777 S    
N19   Ni4   1.863422 S    
C26   N26   1.346363 A    
C64   C78   1.521433 S    
C6    H6    1.076670 S    
C25   N25   1.343039 A    
N26   Ni7   1.852678 S    
C14   N14   1.315644 A    
C3    N3    1.329051 A    
C59   H55   1.110720 S    
C58   C66   1.560172 S    
C4    H4    1.079706 S    
C86   C96   1.459466 S    
C80   O4    1.403775 S    
C39   C83   1.454503 S    
C77   O1    1.409012 S    
C58   H54   1.108897 S    
C85   C95   1.452306 S    
C37   C81   1.450159 S    
N7    Ni4   1.855523 S    
N10   N18   1.357649 A    
C56   C72   1.573671 S    
C50   I2    2.187313 S    
H65   C89   1.087549 S    
C1    H1    1.077981 S    
C72   C76   1.548904 S    
C40   C84   1.458644 S    
C7    H7    1.078522 S    
C78   O2    1.412155 S    
C3    H3    1.077779 S    
N16   N24   1.357649 A    
C58   C76   1.511927 S    
N4    Ni2   1.888697 S    
C53   C69   1.562889 S    
C43   C72   1.486726 S    
C79   O3    1.410590 S    
C16   C48   1.389331 A    
C54   H34   1.111955 S    
C20   C44   1.380973 A    
C77   H49   1.096696 S    
C29   C33   1.397428 A    
N2    Ni1   1.888697 S    
C20   N20   1.321178 A    
H64   C96   1.079967 S    
C32   C36   1.375675 A    
N30   Ni5   1.899679 S    
C50   C66   1.574245 S    
C49   H29   1.113098 S    
C64   I10   2.189545 S    
C62   C80   1.568512 S    
C63   C77   1.548039 S    
C23   N23   1.324982 A    
C48   C68   1.457899 S    
C52   H32   1.112111 S    
N8    N28   1.415616 A    
C87   I15   2.158815 S    
O2    H74   0.989109 S    
N32   Ni6   1.899679 S    
C35   C92   1.467854 S    
N8    Ni4   1.850233 S    
C90   C94   1.340541 D    
C32   N32   1.345244 A    
C25   H21   1.079579 S    
C17   H13   1.078338 S    
C4    N4    1.327862 A    
C53   I7    2.162241 S    
C63   H47   1.112320 S    
N11   Ni6   1.888549 S    
C83   C87   1.338713 D    
C76   H60   1.103239 S    
C11   I19   2.135533 S    
N10   Ni5   1.874825 S    
C47   C67   1.460839 S    
C29   H25   1.078752 S    
C10   I18   2.141699 S    
C7    N7    1.325074 A    
C60   C68   1.555198 S    
C9    I17   2.130544 S    
C8    N8    1.331858 A    
C4    C36   1.371714 A    
N27   Ni8   1.866430 S    
N3    Ni2   1.883325 S    
C91   C95   1.332162 D    
C18   N18   1.316484 A    
C2    H2    1.080112 S    
C50   C56   1.534506 S    
N13   Ni7   1.865936 S    
C56   H36   1.107045 S    
C42   C69   1.468668 S    
C27   N27   1.344291 A    
N5    Ni3   1.855523 S    
C22   N22   1.323426 A    
C24   H20   1.076052 S    
C6    C38   1.379436 A    
H67   C91   1.087715 S    
C45   C65   1.457297 S    
C54   C70   1.564806 S    
C9    N9    1.317060 A    
N29   Ni5   1.885708 S    
C64   C68   1.564208 S    
C52   C68   1.558176 S    
C19   C43   1.377827 A    
C82   H70   1.087838 S    
C57   C65   1.564923 S    
C14   C46   1.383417 A    
C81   H69   1.087220 S    
C16   H12   1.079549 S    
C1    N1    1.326837 A    
C13   N13   1.318299 A    
N6    N26   1.415616 A    
N12   Ni6   1.874825 S    
C69   C77   1.581613 S    
H68   C92   1.086600 S    
C8    C40   1.379515 A    
C19   H15   1.079518 S    
C30   H26   1.074876 S    
C11   N11   1.331975 A    
C23   C47   1.377477 A    
C28   N28   1.343675 A    
C22   C46   1.395364 A    
N1    Ni1   1.883325 S    
C81   C85   1.335535 D    
N17   Ni3   1.863422 S    
C82   C86   1.347998 D    
C15   H11   1.080510 S    
N15   N23   1.357466 A    
C26   H22   1.081190 S    
O1    H73   0.988609 S    
C63   I9    2.173024 S    
N3    N31   1.415616 A    
N15   Ni8   1.865936 S    
H38   C58   1.113942 S    
C18   C42   1.374605 A    
C12   C44   1.398384 A    
N23   Ni2   1.877394 S    
O4    H76   0.985328 S    
C62   H46   1.110167 S    
C12   N12   1.327764 A    
C8    H8    1.077490 S    
C31   C35   1.393261 A    
C60   H56   1.112595 S    
O3    H75   0.989615 S    
C5    N5    1.326387 A    
C28   H24   1.081295 S    
H42   C74   1.110381 S    
C5    C37   1.383895 A    
N24   Ni2   1.872490 S    
C89   C93   1.333133 D    
C49   C55   1.519473 S    
N21   Ni1   1.877394 S    
C54   I8    2.171362 S    
C61   I11   2.179866 S    
C12   I20   2.142041 S    
C51   C53   1.521587 S    
C1    C33   1.388942 A    
C41   C70   1.473548 S    
C57   C75   1.544427 S    
C14   H10   1.073757 S    
H43   C75   1.111898 S    
C17   C41   1.376417 A    
C75   H59   1.111400 S    
C83   H71   1.086988 S    
C71   C75   1.561098 S    
C23   H19   1.079391 S    
C16   N16   1.324008 A    
C44   C71   1.467256 S    
N1    N29   1.415616 A    
C30   C34   1.375029 A    
C2    N2    1.328657 A    
C69   C73   1.560200 S    
C3    C35   1.384585 A    
C15   N15   1.315302 A    
C70   C78   1.574918 S    
C19   N19   1.319684 A    
C28   C40   1.387146 A    
C80   H52   1.112653 S    
C57   H53   1.111431 S    
C61   H45   1.113184 S    
C88   I16   2.133045 S    
C62   C66   1.564939 S    
N9    Ni5   1.888549 S    
C84   H72   1.087903 S    
C88   C94   1.455179 S    
C59   C67   1.568066 S    
C60   C74   1.523954 S    
H62   C94   1.080823 S    
H37   C57   1.109192 S    
N4    N32   1.415616 A    
H61   C93   1.085744 S    
C32   H28   1.070465 S    
C7    C39   1.383772 A    
C24   C48   1.374099 A    
C31   H27   1.072054 S    
C79   H51   1.094511 S    
N31   Ni6   1.885708 S    
C21   H17   1.080512 S    
C51   H31   1.112705 S    
H44   C76   1.112639 S    
C64   H48   1.110973 S    
C18   H14   1.074645 S    
C51   I3    2.181928 S    
C30   N30   1.347872 A    
C13   C45   1.364691 A    
C5    H5    1.078761 S    
C84   C88   1.346271 D    
C34   C89   1.455868 S    
N7    N27   1.415616 A    
C6    N6    1.333809 A    
C55   H35   1.100119 S    
C49   I1    2.167789 S    
C33   C90   1.467724 S    
C29   N29   1.347544 A    
N13   N21   1.357466 A    
C38   C82   1.464200 S    
C10   C42   1.399699 A    
C27   H23   1.079836 S    
C62   I12   2.177260 S    
C9    C41   1.382849 A    
H66   C90   1.086543 S    
N9    N17   1.357466 A    
C61   C79   1.543062 S    
C50   H30   1.110684 S    
C63   C67   1.551777 S    
C31   N31   1.350824 A    
H63   C95   1.085957 S    
C11   C43   1.392322 A    
H39   C59   1.113784 S    
C78   H50   1.108895 S    
C71   C79   1.570371 S    
N18   Ni3   1.868302 S    
C52   C54   1.547333 S    
C72   C80   1.571844 S    
N22   Ni1   1.872490 S    
C27   C39   1.391767 A    
C85   I13   2.157047 S    
C73   H57   1.108941 S    
C13   H9    1.078999 S    
C74   H58   1.110419 S    
C51   C67   1.576414 S    
C15   C47   1.365652 A    
C24   N24   1.305997 A    
C70   C74   1.561104 S    
C17   N17   1.320052 A    
C55   I5    2.174223 S    
C53   H33   1.098706 S    
N14   Ni7   1.879597 S    
C20   H16   1.076823 S    
N2    N30   1.415616 A    
N16   Ni8   1.879597 S    
H40   C60   1.112603 S    
N6    Ni3   1.850233 S    
N5    N25   1.415616 A    
N14   N22   1.357649 A    
N12   N20   1.357649 A    
C49   C65   1.568071 S    
C92   C96   1.339619 D    
C87   C93   1.456436 S    
N28   Ni8   1.852678 S    
N11   N19   1.357466 A    
N25   Ni7   1.866430 S    
C86   I14   2.132143 S    
N20   Ni4   1.868302 S    
C61   C65   1.558376 S    
C26   C38   1.387668 A    
H41   C73   1.107766 S    
C56   I6    2.178745 S    
C21   N21   1.323610 A    
C10   N10   1.336127 A    
C25   C37   1.387647 A    
