data_mof_unit_22623.cif
_audit_creation_date              2012-12-11T14:46:08-0500
_audit_creation_method            fapswitch 2.2
_symmetry_space_group_name_H-M    P1
_symmetry_Int_Tables_number       1
_space_group_crystal_system       triclinic
_cell_length_a                    11.136144
_cell_length_b                    11.110245
_cell_length_c                    18.793418
_cell_angle_alpha                 89.960467
_cell_angle_beta                  90.146659
_cell_angle_gamma                 120.635465
_cell_volume                      2000.67539245

loop_
_atom_site_label
_atom_site_type_symbol
_atom_type_description
_atom_site_fract_x
_atom_site_fract_y
_atom_site_fract_z
_atom_type_partial_charge
C1    C     C_R   0.876497 0.632508 0.607460 0.575715
C2    C     C_R   0.950945 0.164320 0.713574 0.015776
C3    C     C_R   0.963863 0.174966 0.788986 0.005232
C4    C     C_R   0.269884 0.631641 0.602996 0.549028
C5    C     C_R   0.747838 0.191982 0.722607 0.002534
C6    C     C_R   0.778861 0.228523 0.794911 0.040742
C7    C     C_R   0.617578 0.165553 0.696673 -0.077928
C8    C     C_R   0.537052 0.203142 0.735990 -0.093126
C9    C     C_R   0.581396 0.262070 0.802950 -0.041606
C10   C     C_R   0.703569 0.278375 0.833285 0.281402
C11   C     C_R   0.845366 0.179215 0.679343 0.002399
C12   C     C_R   0.260874 0.585101 0.798316 0.296525
C13   C     C_R   0.719963 0.575935 0.707726 -0.138494
C14   C     C_R   0.696614 0.581794 0.779257 0.183585
C15   C     C_R   0.811075 0.645629 0.827282 0.033590
C16   C     C_R   0.861788 0.228700 0.604060 0.513276
C17   C     C_R   0.947203 0.698738 0.801910 0.222158
C18   C     C_R   0.970208 0.708606 0.729293 0.232850
C19   C     C_R   0.855075 0.643547 0.682083 -0.041311
C20   C     C_R   0.236951 0.541609 0.275410 -0.061324
C21   C     C_R   0.258060 0.559711 0.203103 -0.124105
C22   C     C_R   0.344074 0.693534 0.175613 0.050962
C23   C     C_R   0.223024 0.565939 0.727109 -0.041182
C24   C     C_R   0.401172 0.811747 0.221292 0.284775
C25   C     C_R   0.386488 0.791272 0.294652 -0.053635
C26   C     C_R   0.303805 0.656696 0.321510 0.060027
C27   C     C_R   0.746464 0.197788 0.279259 0.267928
C28   C     C_R   0.870953 0.637615 0.395869 0.604572
C29   C     C_R   0.770797 0.217483 0.206513 0.244542
C30   C     C_R   0.850526 0.167741 0.173787 -0.048346
C31   C     C_R   0.932504 0.132265 0.216376 -0.166982
C32   C     C_R   0.929868 0.141120 0.290565 0.204676
C33   C     C_R   0.840166 0.179916 0.321778 -0.000961
C34   C     C_R   0.312528 0.660270 0.675759 0.017041
C35   C     C_R   0.960938 0.698929 0.273627 0.224832
C36   C     C_R   0.936793 0.684441 0.200833 0.237925
C37   C     C_R   0.804383 0.646783 0.175670 -0.006329
C38   C     C_R   0.689334 0.593136 0.223018 0.222847
C39   C     C_R   0.712517 0.603841 0.296100 0.134778
C40   C     C_R   0.267981 0.631888 0.395973 0.563935
C41   C     C_R   0.847286 0.651819 0.321375 -0.074820
C42   C     C_R   0.813204 0.111756 0.898241 0.591041
C43   C     C_R   0.443928 0.718556 0.889261 0.634238
C44   C     C_R   0.795485 0.690280 0.897531 0.622797
C45   C     C_R   0.866809 0.191105 0.829957 0.020422
C46   C     C_R   0.809302 0.108203 0.102037 0.576048
C47   C     C_R   0.397901 0.705869 0.103967 0.549501
C48   C     C_R   0.794284 0.694344 0.105102 0.574099
C49   C     C_R   0.861755 0.232229 0.394966 0.541577
C50   C     C_R   0.442661 0.771173 0.693876 -0.072975
C51   C     C_R   0.484597 0.787770 0.764259 0.205873
C52   C     C_R   0.391034 0.702253 0.817381 0.137621
C53   C     C_3   0.399542 0.994422 0.165730 -0.018453
C54   C     C_3   0.593911 0.269736 0.313595 -0.002658
C55   C     C_3   0.923485 0.986879 0.372580 -0.089265
C56   C     C_R   0.070994 0.164394 0.822231 0.022899
C57   C     C_3   0.161774 0.902190 0.296226 -0.064090
C58   C     C_3   0.022880 0.603766 0.114837 -0.082806
C59   C     C_3   0.105504 0.490237 0.890286 -0.074329
C60   C     C_3   0.651281 0.318714 0.948665 -0.071241
C61   C     C_R   0.152202 0.126274 0.784116 0.294053
C62   C     C_R   0.137794 0.110643 0.710545 -0.061783
C63   C     C_R   0.038186 0.129422 0.675366 -0.113178
Cl1   Cl    Cl    0.521357 0.514491 0.801979 -0.619427
Cl2   Cl    Cl    0.091794 0.761274 0.860596 -0.535776
Cl3   Cl    Cl    0.144824 0.811265 0.700710 -0.563860
Cl4   Cl    Cl    0.664012 0.880802 0.780174 -0.650385
Cl5   Cl    Cl    0.698496 0.301138 0.157194 -0.701411
Cl6   Cl    Cl    0.514776 0.498995 0.193599 -0.529862
Cl7   Cl    Cl    0.572973 0.557345 0.356044 -0.590153
Cl8   Cl    Cl    0.260218 0.084966 0.832027 -0.555416
Cr1   Cr    Cr6+3 0.791660 0.390250 0.499930 1.037645
Cr2   Cr    Cr6+3 0.098520 0.708290 0.500540 1.060267
Cr3   Cr    Cr6+3 0.109770 0.401430 0.499480 1.060222
Cr4   Cr    Cr6+3 0.874790 0.925890 0.000070 1.083465
Cr5   Cr    Cr6+3 0.574120 0.948670 0.999300 1.074230
Cr6   Cr    Cr6+3 0.551420 0.625320 0.000920 1.103732
H1    H     H_    0.515335 0.835910 0.652867 0.132966
H2    H     H_    0.125698 0.474096 0.711343 0.125591
H3    H     H_    0.201521 0.081537 0.680381 0.170668
H4    H     H_    0.092940 0.185553 0.878392 0.169274
H5    H     H_    0.024919 0.107667 0.618945 0.142750
H6    H     H_    0.293928 0.910602 0.148858 0.143923
H7    H     H_    0.450602 0.055680 0.117194 0.199428
H8    H     H_    0.390368 0.065661 0.203403 0.137488
H9    H     H_    0.527613 0.270518 0.269832 0.205549
H10   H     H_    0.693210 0.370636 0.315958 0.155090
H11   H     H_    0.537231 0.257175 0.364058 0.166601
H12   H     H_    0.440746 0.188018 0.713886 0.169762
H13   H     H_    0.870080 0.894713 0.337206 0.129528
H14   H     H_    0.843350 0.994349 0.403970 0.121874
H15   H     H_    0.987244 0.970843 0.412500 0.149724
H16   H     H_    0.148378 0.942884 0.244475 0.133877
H17   H     H_    0.274459 0.949120 0.306375 0.131785
H18   H     H_    0.124436 0.940088 0.339877 0.158449
H19   H     H_    0.934257 0.569176 0.077215 0.153218
H20   H     H_    0.004700 0.515423 0.149962 0.134020
H21   H     H_    0.116107 0.632631 0.081934 0.122394
H22   H     H_    0.058339 0.400994 0.927917 0.128040
H23   H     H_    0.574439 0.111833 0.646879 0.156206
H24   H     H_    0.018965 0.489648 0.860687 0.182725
H25   H     H_    0.165004 0.585994 0.923145 0.174536
H26   H     H_    0.567276 0.206785 0.950042 0.162081
H27   H     H_    0.604285 0.383722 0.938415 0.155960
H28   H     H_    0.699810 0.346873 0.002201 0.182621
H29   H     H_    0.517897 0.290829 0.832308 0.210159
H30   H     H_    0.632150 0.524790 0.671361 0.173414
H31   H     H_    0.168369 0.436880 0.295409 0.161256
H32   H     H_    0.211725 0.468457 0.168826 0.140338
H33   H     H_    0.436596 0.879882 0.330451 0.153812
H34   H     H_    0.992764 0.091058 0.192651 0.165908
O1    O     O_R   0.766500 0.250040 0.579790 -0.529800
O2    O     O_R   0.413330 0.603360 0.920440 -0.446249
O3    O     O_R   0.676110 0.626250 0.926750 -0.492724
O4    O     O_R   0.798570 0.516780 0.574780 -0.507442
O5    O     O_R   0.895350 0.809870 0.080950 -0.490050
O6    O     O_R   0.872490 0.049760 0.073800 -0.528791
O7    O     O_R   0.691680 0.088070 0.079070 -0.452270
O8    O     O_R   0.451720 0.825250 0.074050 -0.491600
O9    O     O_R   0.413580 0.606370 0.080960 -0.476225
O10   O     O_R   0.676340 0.629040 0.075550 -0.458817
O11   O     O_3   0.666780 0.833290 0.000090 -0.298260
O12   O     O_R   0.218690 0.701900 0.425960 -0.493271
O13   O     O_R   0.984000 0.732950 0.581090 -0.467896
O14   O     O_R   0.218600 0.700890 0.574760 -0.462942
O15   O     O_R   0.249390 0.515350 0.579940 -0.512721
O16   O     O_R   0.982790 0.280900 0.573700 -0.514307
O17   O     O_R   0.766600 0.251130 0.419260 -0.504131
O18   O     O_R   0.798660 0.517790 0.425980 -0.482917
O19   O     O_R   0.984100 0.734040 0.420570 -0.514072
O20   O     O_3   0.484229 0.946194 0.195752 -0.521488
O21   O     O_3   0.614598 0.155806 0.305958 -0.557883
O22   O     O_3   0.011610 0.107469 0.331889 -0.564189
O23   O     O_R   0.249490 0.516440 0.419420 -0.471270
O24   O     O_3   0.096336 0.754733 0.297752 -0.539495
O25   O     O_3   0.047609 0.721820 0.154986 -0.563969
O26   O     O_3   0.191920 0.470946 0.843157 -0.568545
O27   O     O_3   0.756636 0.345912 0.898395 -0.618208
O28   O     O_R   0.982880 0.281910 0.424890 -0.473283
O29   O     O_3   0.999980 0.499990 0.499980 -0.285917
O30   O     O_R   0.895110 0.806860 0.920430 -0.434935
O31   O     O_R   0.872260 0.046970 0.925000 -0.508724
O32   O     O_R   0.691430 0.085060 0.918550 -0.477456
O33   O     O_R   0.451490 0.822460 0.925250 -0.487333

loop_
_geom_bond_atom_site_label_1
_geom_bond_atom_site_label_2
_ccdc_geom_bond_type
Cr1   O1    S    
C6    C45   A    
C27   C29   A    
Cr4   O11   S    
C59   H22   S    
C35   C36   A    
Cr4   O6    S    
C13   H30   S    
Cr6   O9    S    
C7    C8    A    
C39   C41   A    
C27   C33   A    
Cr1   O4    S    
C37   C38   A    
C20   C26   A    
C4    O14   A    
Cr1   O17   S    
C53   H7    S    
C5    C6    A    
C62   H3    S    
C36   C37   A    
C15   C44   S    
C5    C11   A    
C55   H13   S    
C54   H10   S    
C43   C52   S    
C59   O26   S    
C33   C49   S    
C36   O25   S    
C28   C41   S    
C18   C19   A    
C46   O7    A    
C28   O18   A    
C3    C56   A    
C49   O17   A    
C58   H19   S    
C55   H14   S    
Cr6   O11   S    
Cr4   O30   S    
Cr3   O16   S    
C8    C9    A    
Cr2   O12   S    
C58   H21   S    
C42   O31   A    
C53   O20   S    
C60   H26   S    
C9    C10   A    
C48   O5    A    
C61   Cl8   S    
C47   O8    A    
C22   C47   S    
C38   Cl6   S    
C44   O3    A    
C57   H16   S    
C13   C14   A    
C27   O21   S    
C43   O33   A    
C58   H20   S    
Cr6   O2    S    
C32   O22   S    
C50   H1    S    
C12   C52   A    
C50   C51   A    
C38   C39   A    
C4    C34   S    
C1    C19   S    
Cr5   O8    S    
C34   C50   A    
C7    H23   S    
C13   C19   A    
C63   H5    S    
C51   C52   A    
C59   H24   S    
C56   H4    S    
C1    O4    A    
C24   C25   A    
C35   O24   S    
C48   O10   A    
C5    C7    A    
C44   O30   A    
C58   O25   S    
C25   C26   A    
C55   O22   S    
C40   O23   A    
C3    C45   A    
Cr5   O7    S    
C46   O6    A    
C42   C45   S    
C62   C63   A    
Cr4   O31   S    
C29   Cl5   S    
C11   C16   S    
C31   C32   A    
C12   C23   A    
C30   C31   A    
Cr2   O13   S    
C14   Cl1   S    
Cr1   O18   S    
C17   C18   A    
C51   Cl4   S    
C37   C48   S    
C25   H33   S    
Cr5   O33   S    
C47   O9    A    
C55   H15   S    
C57   H17   S    
C49   O28   A    
C22   C24   A    
Cr6   O3    S    
C2    C63   A    
C16   O1    A    
C54   H9    S    
C15   C17   A    
C40   O12   A    
Cr2   O19   S    
C23   C34   A    
C56   C61   A    
C59   H25   S    
C30   C46   S    
C14   C15   A    
C6    C10   A    
C21   H32   S    
C8    H12   S    
Cr2   O29   S    
C18   Cl3   S    
C54   O21   S    
Cr3   O28   S    
C17   Cl2   S    
C4    O15   A    
C53   H6    S    
Cr5   O11   S    
C32   C33   A    
C53   H8    S    
C2    C3    A    
C9    H29   S    
C1    O13   A    
C60   H27   S    
C43   O2    A    
C54   H11   S    
C24   O20   S    
C26   C40   S    
Cr3   O15   S    
Cr3   O29   S    
Cr2   O14   S    
Cr3   O23   S    
C39   Cl7   S    
C28   O19   A    
C61   C62   A    
C35   C41   A    
C16   O16   A    
Cr6   O10   S    
C29   C30   A    
Cr5   O32   S    
Cr1   O29   S    
C20   C21   A    
C57   H18   S    
C42   O32   A    
C31   H34   S    
C12   O26   S    
C57   O24   S    
C2    C11   A    
Cr4   O5    S    
C10   O27   S    
C23   H2    S    
C21   C22   A    
C60   H28   S    
C60   O27   S    
C20   H31   S    
