data_mof_unit_37463.cif
_audit_creation_date              2012-12-10T16:58:40-0500
_audit_creation_method            fapswitch 2.2
_symmetry_space_group_name_H-M    P1
_symmetry_Int_Tables_number       1
_space_group_crystal_system       triclinic
_cell_length_a                    12.964897
_cell_length_b                    13.108241
_cell_length_c                    15.368165
_cell_angle_alpha                 108.048668
_cell_angle_beta                  74.591708
_cell_angle_gamma                 91.864367
_cell_volume                      2390.46808394

loop_
_atom_site_label
_atom_site_type_symbol
_atom_type_description
_atom_site_fract_x
_atom_site_fract_y
_atom_site_fract_z
_atom_type_partial_charge
C1    C     C_R   0.216695 0.538667 0.536597 0.557249
C2    C     C_R   0.513503 0.477814 0.109711 -0.109835
C3    C     C_R   0.670511 0.367553 0.086945 0.215270
C4    C     C_R   0.782819 0.460762 0.466238 0.520031
C5    C     C_R   0.451338 0.587800 0.856136 -0.034797
C6    C     C_2   0.898180 0.462873 0.463395 0.216730
C7    C     C_2   0.928696 0.456402 0.539192 -0.147494
C8    C     C_2   0.098842 0.543331 0.553288 -0.034208
C9    C     C_2   0.041621 0.453489 0.541946 0.281462
C10   C     C_2   0.538560 0.897153 0.536685 0.311084
C11   C     C_2   0.452397 0.954371 0.538439 0.289730
C12   C     C_R   0.346325 0.680267 0.017770 0.264804
C13   C     C_2   0.442698 0.105952 0.475240 0.278543
C14   C     C_2   0.462734 0.069966 0.543635 0.285668
C15   C     C_R   0.466965 0.218117 0.474810 0.499446
C16   C     C_R   0.529389 0.781759 0.526635 0.527455
C17   C     C_R   0.545183 0.442398 0.246587 0.555133
C18   C     C_R   0.460355 0.558057 0.752995 0.529259
C19   C     C_R   0.718710 0.389159 0.001022 0.277552
C20   C     C_R   0.570587 0.418220 0.143551 -0.008334
C21   C     C_R   0.359863 0.648794 0.919755 -0.149305
C22   C     C_3   0.429175 0.163944 0.703438 -0.017267
C23   C     C_R   0.422667 0.643813 0.053769 0.246556
C24   C     C_3   0.347620 0.253114 0.715834 -0.273538
C25   C     C_3   0.276350 0.293104 0.817517 -0.436917
C26   C     C_3   0.266933 0.950945 0.590998 -0.011470
C27   C     C_3   0.244870 0.908332 0.676058 -0.264839
C28   C     C_3   0.141450 0.960236 0.750346 -0.451166
C29   C     C_3   0.300009 0.070288 0.409992 0.031519
C30   C     C_3   0.240248 0.974020 0.365754 -0.221461
C31   C     C_3   0.121048 0.002657 0.387187 -0.405183
C32   C     C_3   0.684410 0.926631 0.600783 0.015796
C33   C     C_3   0.636667 0.007824 0.699210 -0.269064
C34   C     C_R   0.500421 0.561396 0.990512 -0.064186
C35   C     C_3   0.688056 0.993894 0.773474 -0.428375
C36   C     C_3   0.749188 0.614019 0.779237 0.008681
C37   C     C_3   0.763057 0.680585 0.711447 -0.272273
C38   C     C_3   0.850144 0.760583 0.724899 -0.476786
C39   C     C_R   0.527044 0.550239 0.892807 -0.060099
C40   C     C_R   0.556347 0.494047 0.021404 -0.041313
C41   C     C_R   0.654403 0.438129 0.961319 -0.059851
C42   C     C_R   0.685780 0.437176 0.865372 0.263038
C43   C     C_R   0.629157 0.503778 0.836127 0.302764
H1    H     H_    0.869541 0.441376 0.598047 0.185807
H2    H     H_    0.296341 0.222666 0.666920 0.141710
H3    H     H_    0.232308 0.225994 0.837291 0.160285
H4    H     H_    0.217245 0.356029 0.823441 0.192271
H5    H     H_    0.325466 0.328468 0.867673 0.160858
H6    H     H_    0.199199 0.930304 0.558282 0.162281
H7    H     H_    0.266520 0.039937 0.614704 0.104652
H8    H     H_    0.237486 0.820081 0.651222 0.217323
H9    H     H_    0.312407 0.924683 0.709370 0.160516
H10   H     H_    0.146973 0.048695 0.777016 0.169103
H11   H     H_    0.127849 0.928027 0.811094 0.182503
H12   H     H_    0.058890 0.620943 0.568978 0.073780
H13   H     H_    0.072166 0.942034 0.719302 0.161198
H14   H     H_    0.305356 0.126935 0.368491 0.226945
H15   H     H_    0.252839 0.109947 0.485015 0.130316
H16   H     H_    0.274642 0.946569 0.287762 0.269747
H17   H     H_    0.249885 0.906653 0.392789 0.217540
H18   H     H_    0.083450 0.028452 0.465056 0.174786
H19   H     H_    0.080849 0.931112 0.353233 0.202495
H20   H     H_    0.109287 0.068137 0.358502 0.224767
H21   H     H_    0.771298 0.939539 0.578240 0.178244
H22   H     H_    0.679255 0.842960 0.604134 0.103818
H23   H     H_    0.436050 0.513936 0.154538 0.194084
H24   H     H_    0.649235 0.090406 0.694653 0.245297
H25   H     H_    0.549380 0.997512 0.722744 0.142490
H26   H     H_    0.668497 0.915541 0.785389 0.142534
H27   H     H_    0.655779 0.058438 0.841828 0.209321
H28   H     H_    0.776339 0.998893 0.750550 0.186276
H29   H     H_    0.773293 0.242761 0.628280 0.379992
H30   H     H_    0.001574 0.301521 0.880827 0.363178
H31   H     H_    0.384502 0.741259 0.311736 0.375688
H32   H     H_    0.072157 0.790396 0.081366 0.386150
H33   H     H_    0.828194 0.576809 0.771875 0.191320
H34   H     H_    0.300141 0.675444 0.892687 0.196508
H35   H     H_    0.719233 0.670221 0.853205 0.145068
H36   H     H_    0.784738 0.627283 0.636950 0.158095
H37   H     H_    0.685783 0.724299 0.724246 0.151416
H38   H     H_    0.827473 0.818798 0.797784 0.177636
H39   H     H_    0.860909 0.805164 0.672616 0.146464
H40   H     H_    0.927477 0.717969 0.713644 0.156754
H41   H     H_    0.242771 0.325447 0.573838 0.324295
H42   H     H_    0.631258 0.227615 0.241420 0.351680
H43   H     H_    0.992732 0.488836 0.224529 0.398936
H44   H     H_    0.473689 0.194490 0.758129 0.177595
H45   H     H_    0.387877 0.092884 0.717703 0.093939
H46   H     H_    0.390353 0.321704 0.698207 0.199077
O1    O     O_3   0.500000 0.500000 0.500000 -0.477876
O2    O     O_R   0.468210 0.402800 0.293550 -0.514013
O3    O     O_R   0.410220 0.615430 0.721590 -0.558364
O4    O     O_R   0.602670 0.506150 0.290200 -0.483370
O5    O     O_R   0.518910 0.475630 0.694660 -0.475930
O6    O     O_2   0.811198 0.198856 0.041428 -0.174944
O7    O     O_2   0.788028 0.334902 0.196928 -0.215942
O8    O     O_3   0.636572 0.202900 0.172505 -0.494356
O9    O     O_2   0.027096 0.599815 0.394852 -0.296283
O10   O     O_2   0.087789 0.409537 0.331027 -0.216425
O11   O     O_3   0.936043 0.471926 0.274867 -0.412025
O12   O     O_R   0.526920 0.270960 0.524520 -0.487879
O13   O     O_3   0.505291 0.137561 0.613465 -0.545084
O14   O     O_3   0.361672 0.900399 0.521415 -0.584849
O15   O     O_3   0.404687 0.035543 0.403603 -0.540368
O16   O     O_3   0.637024 0.944086 0.532952 -0.545688
O17   O     O_2   0.882889 0.368746 0.748295 -0.197495
O18   O     O_2   0.770541 0.233954 0.802709 -0.284131
O19   O     O_3   0.724519 0.302521 0.675986 -0.476300
O20   O     O_2   0.888573 0.488889 0.925692 -0.262417
O21   O     O_2   0.898290 0.432148 0.059780 -0.209315
O22   O     O_3   0.924988 0.285222 0.896978 -0.413024
O23   O     O_R   0.454490 0.752910 0.584610 -0.565168
O24   O     O_2   0.558127 0.702960 0.166083 -0.261271
O25   O     O_2   0.436195 0.842043 0.169599 -0.206828
O26   O     O_3   0.357768 0.703475 0.256058 -0.501172
O27   O     O_2   0.194968 0.743847 0.185695 -0.214159
O28   O     O_2   0.258305 0.879570 0.106558 -0.255683
O29   O     O_3   0.131896 0.738890 0.037935 -0.510086
O30   O     O_3   0.678508 0.531759 0.755760 -0.518485
O31   O     O_2   0.006058 0.253979 0.553005 -0.247128
O32   O     O_2   0.163964 0.277123 0.433942 -0.286783
O33   O     O_3   0.167379 0.342429 0.612137 -0.537811
O34   O     O_R   0.270990 0.462040 0.468400 -0.467717
O35   O     O_R   0.747590 0.514090 0.422470 -0.476006
O36   O     O_R   0.265290 0.607490 0.589320 -0.556665
O37   O     O_R   0.716130 0.416380 0.519810 -0.512520
O38   O     O_R   0.423930 0.265320 0.430520 -0.560439
O39   O     O_R   0.594650 0.710810 0.460350 -0.512905
S1    S     S_3+6 0.731678 0.274909 0.124085 0.097145
S2    S     S_3+6 0.991809 0.486883 0.364755 0.067172
S3    S     S_3+6 0.770651 0.332890 0.773045 0.063214
S4    S     S_3+6 0.860517 0.401703 0.971180 0.129803
S5    S     S_3+6 0.446566 0.725903 0.162772 0.059492
S6    S     S_3+6 0.231704 0.764017 0.091471 0.058998
S7    S     S_3+6 0.094880 0.327058 0.533308 0.046187
Zn1   Zn    Zn3+2 0.564370 0.417180 0.558730 1.010665
Zn2   Zn    Zn3+2 0.417220 0.409120 0.424430 1.016115
Zn3   Zn    Zn3+2 0.609330 0.556780 0.419650 1.048799
Zn4   Zn    Zn3+2 0.409080 0.616930 0.597190 0.924565

loop_
_geom_bond_atom_site_label_1
_geom_bond_atom_site_label_2
_ccdc_geom_bond_type
C38   H40   S    
C1    C8    S    
C41   C42   A    
C31   H18   S    
C17   O2    A    
C6    S2    S    
C24   H46   S    
O24   S5    D    
O1    Zn4   S    
C28   H13   S    
O36   Zn4   S    
C37   H36   S    
C12   C23   A    
C33   H24   S    
C26   C27   S    
C29   C30   S    
C34   C40   A    
C24   H2    S    
O35   Zn3   S    
C36   C37   S    
C1    O36   A    
C26   H7    S    
C30   C31   S    
C11   C14   S    
O11   S2    S    
C14   O13   S    
O27   S6    D    
H41   O33   S    
C17   C20   S    
C4    O35   A    
C36   O30   S    
O39   Zn3   S    
O19   S3    S    
O4    Zn3   S    
C36   H33   S    
O2    Zn2   S    
H29   O19   S    
C35   H27   S    
C8    C9    D    
C30   H17   S    
O5    Zn1   S    
C3    C19   A    
C42   S3    S    
C22   H45   S    
H43   O11   S    
C25   H4    S    
O29   S6    S    
C35   H28   S    
C15   O38   A    
C13   C14   D    
C38   H39   S    
C31   H19   S    
H32   O29   S    
O28   S6    D    
C8    H12   S    
O1    Zn3   S    
C27   H8    S    
H30   O22   S    
O17   S3    D    
C37   H37   S    
C23   S5    S    
C2    C20   A    
C34   C39   A    
C31   H20   S    
C24   C25   S    
C32   H21   S    
O18   S3    D    
C26   H6    S    
C28   H11   S    
C39   C43   A    
C5    C18   S    
O26   S5    S    
C7    H1    S    
C12   C21   A    
O32   S7    D    
C29   O15   S    
C1    O34   A    
C37   C38   S    
C26   O14   S    
O1    Zn1   S    
C23   C34   A    
C30   H16   S    
O9    S2    D    
O20   S4    D    
C3    C20   A    
C22   H44   S    
C15   O12   A    
C13   O15   S    
O21   S4    D    
C16   O39   A    
C25   H5    S    
C9    S7    S    
C4    C6    S    
C40   C41   A    
C29   H14   S    
C32   O16   S    
C13   C15   S    
C38   H38   S    
C18   O5    A    
C22   C24   S    
C17   O4    A    
C42   C43   A    
O1    Zn2   S    
C27   H9    S    
C16   O23   A    
O12   Zn1   S    
C19   S4    S    
C7    C9    S    
O10   S2    D    
C3    S1    S    
C2    H23   S    
C11   O14   S    
C28   H10   S    
C6    C7    D    
C36   H35   S    
O34   Zn2   S    
C22   O13   S    
C4    O37   A    
O31   S7    D    
C18   O3    A    
C32   C33   S    
C5    C39   A    
O8    S1    S    
C10   C16   S    
H31   O26   S    
C33   C35   S    
O25   S5    D    
O33   S7    S    
H42   O8    S    
C10   C11   D    
O37   Zn1   S    
C2    C40   A    
O22   S4    S    
C5    C21   A    
C29   H15   S    
C35   H26   S    
O23   Zn4   S    
C21   H34   S    
C27   C28   S    
O6    S1    D    
O7    S1    D    
C10   O16   S    
C12   S6    S    
O38   Zn2   S    
O3    Zn4   S    
C25   H3    S    
C19   C41   A    
C33   H25   S    
C43   O30   S    
C32   H22   S    
