data_mof_unit_60920.cif
_audit_creation_date              2013-03-05T16:13:47-0500
_audit_creation_method            fapswitch 2.2
_symmetry_space_group_name_H-M    P1
_symmetry_Int_Tables_number       1
_space_group_crystal_system       cubic
_cell_length_a                    43.011886
_cell_length_b                    43.011886
_cell_length_c                    43.011886
_cell_angle_alpha                 90.0
_cell_angle_beta                  90.0
_cell_angle_gamma                 90.0
_cell_volume                      79572.9498684

loop_
_atom_site_label
_atom_site_type_symbol
_atom_site_description
_atom_site_fract_x
_atom_site_fract_y
_atom_site_fract_z
_atom_type_partial_charge
Zn1   Zn    Zn3+2 0.275920 0.275920 0.724080 0.971502
Zn2   Zn    Zn3+2 0.724080 0.724080 0.275920 0.971502
Zn3   Zn    Zn3+2 0.275920 0.275920 0.275920 0.971502
Zn4   Zn    Zn3+2 0.724080 0.724080 0.724080 0.971502
Zn5   Zn    Zn3+2 0.724080 0.275920 0.275920 0.971502
Zn6   Zn    Zn3+2 0.275920 0.724080 0.724080 0.971502
Zn7   Zn    Zn3+2 0.724080 0.275920 0.724080 0.971502
Zn8   Zn    Zn3+2 0.275920 0.724080 0.275920 0.971502
Zn9   Zn    Zn3+2 0.775920 0.775920 0.724080 0.971502
Zn10  Zn    Zn3+2 0.224080 0.224080 0.275920 0.971502
Zn11  Zn    Zn3+2 0.275920 0.775920 0.775920 0.971502
Zn12  Zn    Zn3+2 0.724080 0.224080 0.224080 0.971502
Zn13  Zn    Zn3+2 0.224080 0.775920 0.275920 0.971502
Zn14  Zn    Zn3+2 0.775920 0.224080 0.724080 0.971502
Zn15  Zn    Zn3+2 0.724080 0.775920 0.224080 0.971502
Zn16  Zn    Zn3+2 0.275920 0.224080 0.775920 0.971502
Zn17  Zn    Zn3+2 0.775920 0.224080 0.275920 0.971502
Zn18  Zn    Zn3+2 0.224080 0.775920 0.724080 0.971502
Zn19  Zn    Zn3+2 0.275920 0.224080 0.224080 0.971502
Zn20  Zn    Zn3+2 0.724080 0.775920 0.775920 0.971502
Zn21  Zn    Zn3+2 0.224080 0.224080 0.724080 0.971502
Zn22  Zn    Zn3+2 0.775920 0.775920 0.275920 0.971502
Zn23  Zn    Zn3+2 0.724080 0.224080 0.775920 0.971502
Zn24  Zn    Zn3+2 0.275920 0.775920 0.224080 0.971502
Zn25  Zn    Zn3+2 0.775920 0.724080 0.775920 0.971502
Zn26  Zn    Zn3+2 0.224080 0.275920 0.224080 0.971502
Zn27  Zn    Zn3+2 0.775920 0.275920 0.224080 0.971502
Zn28  Zn    Zn3+2 0.224080 0.724080 0.775920 0.971502
Zn29  Zn    Zn3+2 0.224080 0.275920 0.775920 0.971502
Zn30  Zn    Zn3+2 0.775920 0.724080 0.224080 0.971502
Zn31  Zn    Zn3+2 0.224080 0.724080 0.224080 0.971502
Zn32  Zn    Zn3+2 0.775920 0.275920 0.775920 0.971502
C1    C     C_R   0.250000 0.368574 0.750000 -0.006055
C2    C     C_R   0.750000 0.631426 0.250000 -0.006055
C3    C     C_R   0.250000 0.368574 0.250000 -0.006055
C4    C     C_R   0.750000 0.631426 0.750000 -0.006055
C5    C     C_R   0.750000 0.368574 0.250000 -0.006055
C6    C     C_R   0.250000 0.631426 0.750000 -0.006055
C7    C     C_R   0.750000 0.368574 0.750000 -0.006055
C8    C     C_R   0.250000 0.631426 0.250000 -0.006055
C9    C     C_R   0.368574 0.750000 0.250000 -0.006054
C10   C     C_R   0.631426 0.250000 0.750000 -0.006055
C11   C     C_R   0.368574 0.250000 0.250000 -0.006055
C12   C     C_R   0.631426 0.750000 0.750000 -0.006054
C13   C     C_R   0.368574 0.250000 0.750000 -0.006054
C14   C     C_R   0.631426 0.750000 0.250000 -0.006055
C15   C     C_R   0.368574 0.750000 0.750000 -0.006055
C16   C     C_R   0.631426 0.250000 0.250000 -0.006054
C17   C     C_R   0.750000 0.250000 0.368574 -0.006054
C18   C     C_R   0.250000 0.750000 0.631426 -0.006055
C19   C     C_R   0.250000 0.250000 0.368574 -0.006055
C20   C     C_R   0.750000 0.750000 0.631426 -0.006055
C21   C     C_R   0.250000 0.750000 0.368574 -0.006054
C22   C     C_R   0.750000 0.250000 0.631426 -0.006055
C23   C     C_R   0.750000 0.750000 0.368574 -0.006055
C24   C     C_R   0.250000 0.250000 0.631426 -0.006055
C25   C     C_R   0.750000 0.868574 0.750000 -0.006055
C26   C     C_R   0.250000 0.131426 0.250000 -0.006055
C27   C     C_R   0.250000 0.868574 0.750000 -0.006055
C28   C     C_R   0.750000 0.131426 0.250000 -0.006055
C29   C     C_R   0.250000 0.868574 0.250000 -0.006055
C30   C     C_R   0.750000 0.131426 0.750000 -0.006055
C31   C     C_R   0.750000 0.868574 0.250000 -0.006055
C32   C     C_R   0.250000 0.131426 0.750000 -0.006055
C33   C     C_R   0.868574 0.750000 0.750000 -0.006054
C34   C     C_R   0.131426 0.250000 0.250000 -0.006055
C35   C     C_R   0.868574 0.750000 0.250000 -0.006055
C36   C     C_R   0.131426 0.250000 0.750000 -0.006054
C37   C     C_R   0.868574 0.250000 0.250000 -0.006054
C38   C     C_R   0.131426 0.750000 0.750000 -0.006055
C39   C     C_R   0.868574 0.250000 0.750000 -0.006055
C40   C     C_R   0.131426 0.750000 0.250000 -0.006054
C41   C     C_R   0.750000 0.750000 0.868574 -0.006054
C42   C     C_R   0.250000 0.250000 0.131426 -0.006055
C43   C     C_R   0.750000 0.250000 0.868574 -0.006055
C44   C     C_R   0.250000 0.750000 0.131426 -0.006055
C45   C     C_R   0.250000 0.250000 0.868574 -0.006054
C46   C     C_R   0.750000 0.750000 0.131426 -0.006055
C47   C     C_R   0.250000 0.750000 0.868574 -0.006055
C48   C     C_R   0.750000 0.250000 0.131426 -0.006055
C49   C     C_R   0.250000 0.531573 0.750000 0.290245
C50   C     C_R   0.750000 0.468427 0.250000 0.290245
C51   C     C_R   0.250000 0.531573 0.250000 0.290245
C52   C     C_R   0.750000 0.468427 0.750000 0.290245
C53   C     C_R   0.750000 0.531573 0.250000 0.290245
C54   C     C_R   0.250000 0.468427 0.750000 0.290245
C55   C     C_R   0.750000 0.531573 0.750000 0.290245
C56   C     C_R   0.250000 0.468427 0.250000 0.290245
C57   C     C_R   0.531573 0.750000 0.250000 0.290245
C58   C     C_R   0.468427 0.250000 0.750000 0.290245
C59   C     C_R   0.531573 0.250000 0.250000 0.290245
C60   C     C_R   0.468427 0.750000 0.750000 0.290245
C61   C     C_R   0.531573 0.250000 0.750000 0.290245
C62   C     C_R   0.468427 0.750000 0.250000 0.290245
C63   C     C_R   0.531573 0.750000 0.750000 0.290245
C64   C     C_R   0.468427 0.250000 0.250000 0.290245
C65   C     C_R   0.750000 0.250000 0.531573 0.290245
C66   C     C_R   0.250000 0.750000 0.468427 0.290245
C67   C     C_R   0.250000 0.250000 0.531573 0.290245
C68   C     C_R   0.750000 0.750000 0.468427 0.290245
C69   C     C_R   0.250000 0.750000 0.531573 0.290245
C70   C     C_R   0.750000 0.250000 0.468427 0.290245
C71   C     C_R   0.750000 0.750000 0.531573 0.290245
C72   C     C_R   0.250000 0.250000 0.468427 0.290245
C73   C     C_R   0.750000 0.031573 0.750000 0.290245
C74   C     C_R   0.250000 0.968427 0.250000 0.290245
C75   C     C_R   0.250000 0.031573 0.750000 0.290245
C76   C     C_R   0.750000 0.968427 0.250000 0.290245
C77   C     C_R   0.250000 0.031573 0.250000 0.290245
C78   C     C_R   0.750000 0.968427 0.750000 0.290245
C79   C     C_R   0.750000 0.031573 0.250000 0.290245
C80   C     C_R   0.250000 0.968427 0.750000 0.290245
C81   C     C_R   0.031573 0.750000 0.750000 0.290245
C82   C     C_R   0.968427 0.250000 0.250000 0.290245
C83   C     C_R   0.031573 0.750000 0.250000 0.290245
C84   C     C_R   0.968427 0.250000 0.750000 0.290245
C85   C     C_R   0.031573 0.250000 0.250000 0.290245
C86   C     C_R   0.968427 0.750000 0.750000 0.290245
C87   C     C_R   0.031573 0.250000 0.750000 0.290245
C88   C     C_R   0.968427 0.750000 0.250000 0.290245
C89   C     C_R   0.750000 0.750000 0.031573 0.290245
C90   C     C_R   0.250000 0.250000 0.968427 0.290245
C91   C     C_R   0.750000 0.250000 0.031573 0.290245
C92   C     C_R   0.250000 0.750000 0.968427 0.290245
C93   C     C_R   0.250000 0.250000 0.031573 0.290245
C94   C     C_R   0.750000 0.750000 0.968427 0.290245
C95   C     C_R   0.250000 0.750000 0.031573 0.290245
C96   C     C_R   0.750000 0.250000 0.968427 0.290245
O1    O     O_3   0.250000 0.250000 0.750000 -0.467337
O2    O     O_3   0.750000 0.750000 0.250000 -0.467337
O3    O     O_3   0.250000 0.250000 0.250000 -0.467337
O4    O     O_3   0.750000 0.750000 0.750000 -0.467337
O5    O     O_3   0.750000 0.250000 0.250000 -0.467337
O6    O     O_3   0.250000 0.750000 0.750000 -0.467337
O7    O     O_3   0.750000 0.250000 0.750000 -0.467337
O8    O     O_3   0.250000 0.750000 0.250000 -0.467337
O9    O     O_R   0.231820 0.268180 0.819350 -0.645578
O10   O     O_R   0.768180 0.731820 0.180650 -0.645578
O11   O     O_R   0.180650 0.268180 0.231820 -0.645578
O12   O     O_R   0.819350 0.731820 0.768180 -0.645578
O13   O     O_R   0.768180 0.268180 0.180650 -0.645578
O14   O     O_R   0.231820 0.731820 0.819350 -0.645577
O15   O     O_R   0.819350 0.268180 0.768180 -0.645578
O16   O     O_R   0.180650 0.731820 0.231820 -0.645578
O17   O     O_R   0.231820 0.731820 0.180650 -0.645578
O18   O     O_R   0.768180 0.268180 0.819350 -0.645578
O19   O     O_R   0.180650 0.731820 0.768180 -0.645578
O20   O     O_R   0.819350 0.268180 0.231820 -0.645578
O21   O     O_R   0.768180 0.731820 0.819350 -0.645578
O22   O     O_R   0.231820 0.268180 0.180650 -0.645578
O23   O     O_R   0.819350 0.731820 0.231820 -0.645578
O24   O     O_R   0.180650 0.268180 0.768180 -0.645578
O25   O     O_R   0.268180 0.819350 0.231820 -0.645578
O26   O     O_R   0.731820 0.180650 0.768180 -0.645578
O27   O     O_R   0.268180 0.231820 0.180650 -0.645578
O28   O     O_R   0.731820 0.768180 0.819350 -0.645578
O29   O     O_R   0.268180 0.180650 0.768180 -0.645578
O30   O     O_R   0.731820 0.819350 0.231820 -0.645578
O31   O     O_R   0.268180 0.768180 0.819350 -0.645578
O32   O     O_R   0.731820 0.231820 0.180650 -0.645578
O33   O     O_R   0.731820 0.180650 0.231820 -0.645578
O34   O     O_R   0.268180 0.819350 0.768180 -0.645578
O35   O     O_R   0.731820 0.768180 0.180650 -0.645578
O36   O     O_R   0.268180 0.231820 0.819350 -0.645578
O37   O     O_R   0.731820 0.819350 0.768180 -0.645578
O38   O     O_R   0.268180 0.180650 0.231820 -0.645578
O39   O     O_R   0.731820 0.231820 0.819350 -0.645577
O40   O     O_R   0.268180 0.768180 0.180650 -0.645578
O41   O     O_R   0.819350 0.231820 0.268180 -0.645578
O42   O     O_R   0.180650 0.768180 0.731820 -0.645578
O43   O     O_R   0.231820 0.180650 0.268180 -0.645578
O44   O     O_R   0.768180 0.819350 0.731820 -0.645578
O45   O     O_R   0.180650 0.768180 0.268180 -0.645578
O46   O     O_R   0.819350 0.231820 0.731820 -0.645578
O47   O     O_R   0.768180 0.819350 0.268180 -0.645578
O48   O     O_R   0.231820 0.180650 0.731820 -0.645578
O49   O     O_R   0.180650 0.231820 0.731820 -0.645578
O50   O     O_R   0.819350 0.768180 0.268180 -0.645578
O51   O     O_R   0.768180 0.180650 0.731820 -0.645578
O52   O     O_R   0.231820 0.819350 0.268180 -0.645578
O53   O     O_R   0.819350 0.768180 0.731820 -0.645578
O54   O     O_R   0.180650 0.231820 0.268180 -0.645578
O55   O     O_R   0.231820 0.819350 0.731820 -0.645578
O56   O     O_R   0.768180 0.180650 0.268180 -0.645578
O57   O     O_R   0.731820 0.268180 0.319350 -0.645578
O58   O     O_R   0.268180 0.731820 0.680650 -0.645578
O59   O     O_R   0.680650 0.268180 0.731820 -0.645578
O60   O     O_R   0.319350 0.731820 0.268180 -0.645578
O61   O     O_R   0.268180 0.268180 0.680650 -0.645578
O62   O     O_R   0.731820 0.731820 0.319350 -0.645577
O63   O     O_R   0.319350 0.268180 0.268180 -0.645578
O64   O     O_R   0.680650 0.731820 0.731820 -0.645578
O65   O     O_R   0.731820 0.731820 0.680650 -0.645578
O66   O     O_R   0.268180 0.268180 0.319350 -0.645578
O67   O     O_R   0.680650 0.731820 0.268180 -0.645578
O68   O     O_R   0.319350 0.268180 0.731820 -0.645578
O69   O     O_R   0.268180 0.731820 0.319350 -0.645578
O70   O     O_R   0.731820 0.268180 0.680650 -0.645578
O71   O     O_R   0.319350 0.731820 0.731820 -0.645578
O72   O     O_R   0.680650 0.268180 0.268180 -0.645578
O73   O     O_R   0.268180 0.319350 0.731820 -0.645578
O74   O     O_R   0.731820 0.680650 0.268180 -0.645578
O75   O     O_R   0.268180 0.680650 0.268180 -0.645578
O76   O     O_R   0.731820 0.319350 0.731820 -0.645578
O77   O     O_R   0.731820 0.680650 0.731820 -0.645578
O78   O     O_R   0.268180 0.319350 0.268180 -0.645578
O79   O     O_R   0.731820 0.319350 0.268180 -0.645578
O80   O     O_R   0.268180 0.680650 0.731820 -0.645578
O81   O     O_R   0.231820 0.768180 0.319350 -0.645578
O82   O     O_R   0.768180 0.231820 0.680650 -0.645578
O83   O     O_R   0.680650 0.768180 0.231820 -0.645578
O84   O     O_R   0.319350 0.231820 0.768180 -0.645578
O85   O     O_R   0.768180 0.768180 0.680650 -0.645578
O86   O     O_R   0.231820 0.231820 0.319350 -0.645577
O87   O     O_R   0.319350 0.768180 0.768180 -0.645578
O88   O     O_R   0.680650 0.231820 0.231820 -0.645578
O89   O     O_R   0.231820 0.231820 0.680650 -0.645578
O90   O     O_R   0.768180 0.768180 0.319350 -0.645578
O91   O     O_R   0.680650 0.231820 0.768180 -0.645578
O92   O     O_R   0.319350 0.768180 0.231820 -0.645578
O93   O     O_R   0.768180 0.231820 0.319350 -0.645578
O94   O     O_R   0.231820 0.768180 0.680650 -0.645578
O95   O     O_R   0.319350 0.231820 0.231820 -0.645578
O96   O     O_R   0.680650 0.768180 0.768180 -0.645578
O97   O     O_R   0.768180 0.319350 0.231820 -0.645578
O98   O     O_R   0.231820 0.680650 0.768180 -0.645578
O99   O     O_R   0.768180 0.680650 0.768180 -0.645578
O100  O     O_R   0.231820 0.319350 0.231820 -0.645578
O101  O     O_R   0.231820 0.680650 0.231820 -0.645578
O102  O     O_R   0.768180 0.319350 0.768180 -0.645578
O103  O     O_R   0.231820 0.319350 0.768180 -0.645578
O104  O     O_R   0.768180 0.680650 0.231820 -0.645578
N1    N     N_R   0.269194 0.484533 0.730806 -0.177159
N2    N     N_R   0.730806 0.515467 0.269193 -0.177159
N3    N     N_R   0.269194 0.484533 0.269193 -0.177159
N4    N     N_R   0.730806 0.515467 0.730806 -0.177159
N5    N     N_R   0.730806 0.484533 0.269193 -0.177159
N6    N     N_R   0.269194 0.515467 0.730806 -0.177159
N7    N     N_R   0.730806 0.484533 0.730806 -0.177159
N8    N     N_R   0.269194 0.515467 0.269193 -0.177159
N9    N     N_R   0.484533 0.730806 0.269194 -0.177159
N10   N     N_R   0.515467 0.269194 0.730806 -0.177159
N11   N     N_R   0.484533 0.269194 0.269194 -0.177159
N12   N     N_R   0.515467 0.730806 0.730806 -0.177159
N13   N     N_R   0.484533 0.269194 0.730806 -0.177159
N14   N     N_R   0.515467 0.730806 0.269194 -0.177159
N15   N     N_R   0.484533 0.730806 0.730806 -0.177159
N16   N     N_R   0.515467 0.269194 0.269194 -0.177159
N17   N     N_R   0.730806 0.269194 0.484533 -0.177159
N18   N     N_R   0.269194 0.730806 0.515467 -0.177159
N19   N     N_R   0.269194 0.269194 0.484533 -0.177159
N20   N     N_R   0.730806 0.730806 0.515467 -0.177159
N21   N     N_R   0.269194 0.730806 0.484533 -0.177159
N22   N     N_R   0.730806 0.269194 0.515467 -0.177159
N23   N     N_R   0.730806 0.730806 0.484533 -0.177159
N24   N     N_R   0.269194 0.269194 0.515467 -0.177159
N25   N     N_R   0.769194 0.984533 0.730806 -0.177159
N26   N     N_R   0.230806 0.015467 0.269193 -0.177159
N27   N     N_R   0.269194 0.984533 0.769193 -0.177159
N28   N     N_R   0.730806 0.015467 0.230806 -0.177159
N29   N     N_R   0.230806 0.984533 0.269193 -0.177159
N30   N     N_R   0.769194 0.015467 0.730806 -0.177159
N31   N     N_R   0.730806 0.984533 0.230806 -0.177159
N32   N     N_R   0.269194 0.015467 0.769193 -0.177159
N33   N     N_R   0.769194 0.015467 0.269193 -0.177159
N34   N     N_R   0.230806 0.984533 0.730806 -0.177159
N35   N     N_R   0.269194 0.015467 0.230806 -0.177159
N36   N     N_R   0.730806 0.984533 0.769193 -0.177159
N37   N     N_R   0.230806 0.015467 0.730806 -0.177159
N38   N     N_R   0.769194 0.984533 0.269193 -0.177159
N39   N     N_R   0.730806 0.015467 0.769193 -0.177159
N40   N     N_R   0.269194 0.984533 0.230806 -0.177159
N41   N     N_R   0.984533 0.730806 0.769194 -0.177159
N42   N     N_R   0.015467 0.269194 0.230806 -0.177159
N43   N     N_R   0.984533 0.769194 0.269194 -0.177159
N44   N     N_R   0.015467 0.230806 0.730806 -0.177159
N45   N     N_R   0.984533 0.269194 0.230806 -0.177159
N46   N     N_R   0.015467 0.730806 0.769194 -0.177159
N47   N     N_R   0.984533 0.230806 0.730806 -0.177159
N48   N     N_R   0.015467 0.769194 0.269194 -0.177159
N49   N     N_R   0.015467 0.269194 0.769194 -0.177159
N50   N     N_R   0.984533 0.730806 0.230806 -0.177159
N51   N     N_R   0.015467 0.230806 0.269194 -0.177159
N52   N     N_R   0.984533 0.769194 0.730806 -0.177159
N53   N     N_R   0.015467 0.730806 0.230806 -0.177159
N54   N     N_R   0.984533 0.269194 0.769194 -0.177159
N55   N     N_R   0.015467 0.769194 0.730806 -0.177159
N56   N     N_R   0.984533 0.230806 0.269194 -0.177159
N57   N     N_R   0.730806 0.769194 0.984533 -0.177159
N58   N     N_R   0.269194 0.230806 0.015467 -0.177159
N59   N     N_R   0.769194 0.269194 0.984533 -0.177159
N60   N     N_R   0.230806 0.730806 0.015467 -0.177159
N61   N     N_R   0.269194 0.230806 0.984533 -0.177159
N62   N     N_R   0.730806 0.769194 0.015467 -0.177159
N63   N     N_R   0.230806 0.730806 0.984533 -0.177159
N64   N     N_R   0.769194 0.269194 0.015467 -0.177159
N65   N     N_R   0.269194 0.769194 0.015467 -0.177159
N66   N     N_R   0.730806 0.230806 0.984533 -0.177159
N67   N     N_R   0.230806 0.269194 0.015467 -0.177159
N68   N     N_R   0.769194 0.730806 0.984533 -0.177159
N69   N     N_R   0.730806 0.230806 0.015467 -0.177159
N70   N     N_R   0.269194 0.769194 0.984533 -0.177159
N71   N     N_R   0.769194 0.730806 0.015467 -0.177159
N72   N     N_R   0.230806 0.269194 0.984533 -0.177159
N73   N     N_R   0.769194 0.484533 0.230806 -0.177159
N74   N     N_R   0.230806 0.515467 0.769193 -0.177159
N75   N     N_R   0.769194 0.484533 0.769193 -0.177159
N76   N     N_R   0.230806 0.515467 0.230806 -0.177159
N77   N     N_R   0.230806 0.484533 0.769193 -0.177159
N78   N     N_R   0.769194 0.515467 0.230806 -0.177159
N79   N     N_R   0.230806 0.484533 0.230806 -0.177159
N80   N     N_R   0.769194 0.515467 0.769193 -0.177159
N81   N     N_R   0.484533 0.230806 0.769194 -0.177159
N82   N     N_R   0.515467 0.769194 0.230806 -0.177159
N83   N     N_R   0.484533 0.769194 0.769194 -0.177159
N84   N     N_R   0.515467 0.230806 0.230806 -0.177159
N85   N     N_R   0.484533 0.769194 0.230806 -0.177159
N86   N     N_R   0.515467 0.230806 0.769194 -0.177159
N87   N     N_R   0.484533 0.230806 0.230806 -0.177159
N88   N     N_R   0.515467 0.769194 0.769194 -0.177159
N89   N     N_R   0.230806 0.769194 0.484533 -0.177159
N90   N     N_R   0.769194 0.230806 0.515467 -0.177159
N91   N     N_R   0.769194 0.769194 0.484533 -0.177159
N92   N     N_R   0.230806 0.230806 0.515467 -0.177159
N93   N     N_R   0.769194 0.230806 0.484533 -0.177159
N94   N     N_R   0.230806 0.769194 0.515467 -0.177159
N95   N     N_R   0.230806 0.230806 0.484533 -0.177159
N96   N     N_R   0.769194 0.769194 0.515467 -0.177159
C97   C     C_R   0.250000 0.250000 0.834310 0.789198
C98   C     C_R   0.750000 0.750000 0.165690 0.789198
C99   C     C_R   0.165690 0.250000 0.250000 0.789197
C100  C     C_R   0.834310 0.750000 0.750000 0.789197
C101  C     C_R   0.750000 0.250000 0.165690 0.789197
C102  C     C_R   0.250000 0.750000 0.834310 0.789197
C103  C     C_R   0.834310 0.250000 0.750000 0.789197
C104  C     C_R   0.165690 0.750000 0.250000 0.789197
C105  C     C_R   0.250000 0.750000 0.165690 0.789197
C106  C     C_R   0.750000 0.250000 0.834310 0.789197
C107  C     C_R   0.165690 0.750000 0.750000 0.789197
C108  C     C_R   0.834310 0.250000 0.250000 0.789197
C109  C     C_R   0.750000 0.750000 0.834310 0.789198
C110  C     C_R   0.250000 0.250000 0.165690 0.789198
C111  C     C_R   0.834310 0.750000 0.250000 0.789197
C112  C     C_R   0.165690 0.250000 0.750000 0.789197
C113  C     C_R   0.250000 0.834310 0.250000 0.789197
C114  C     C_R   0.750000 0.165690 0.750000 0.789197
C115  C     C_R   0.250000 0.165690 0.750000 0.789197
C116  C     C_R   0.750000 0.834310 0.250000 0.789197
C117  C     C_R   0.750000 0.165690 0.250000 0.789197
C118  C     C_R   0.250000 0.834310 0.750000 0.789197
C119  C     C_R   0.750000 0.834310 0.750000 0.789197
C120  C     C_R   0.250000 0.165690 0.250000 0.789197
C121  C     C_R   0.750000 0.250000 0.334310 0.789198
C122  C     C_R   0.250000 0.750000 0.665690 0.789198
C123  C     C_R   0.665690 0.250000 0.750000 0.789197
C124  C     C_R   0.334310 0.750000 0.250000 0.789197
C125  C     C_R   0.250000 0.250000 0.665690 0.789197
C126  C     C_R   0.750000 0.750000 0.334310 0.789197
C127  C     C_R   0.334310 0.250000 0.250000 0.789197
C128  C     C_R   0.665690 0.750000 0.750000 0.789197
C129  C     C_R   0.750000 0.750000 0.665690 0.789197
C130  C     C_R   0.250000 0.250000 0.334310 0.789197
C131  C     C_R   0.665690 0.750000 0.250000 0.789197
C132  C     C_R   0.334310 0.250000 0.750000 0.789197
C133  C     C_R   0.250000 0.750000 0.334310 0.789198
C134  C     C_R   0.750000 0.250000 0.665690 0.789198
C135  C     C_R   0.334310 0.750000 0.750000 0.789197
C136  C     C_R   0.665690 0.250000 0.250000 0.789197
C137  C     C_R   0.250000 0.334310 0.750000 0.789197
C138  C     C_R   0.750000 0.665690 0.250000 0.789197
C139  C     C_R   0.250000 0.665690 0.250000 0.789197
C140  C     C_R   0.750000 0.334310 0.750000 0.789197
C141  C     C_R   0.750000 0.665690 0.750000 0.789197
C142  C     C_R   0.250000 0.334310 0.250000 0.789197
C143  C     C_R   0.750000 0.334310 0.250000 0.789197
C144  C     C_R   0.250000 0.665690 0.750000 0.789197
C145  C     C_R   0.230090 0.385089 0.769909 -0.188915
C146  C     C_R   0.769910 0.614911 0.230091 -0.188915
C147  C     C_R   0.230090 0.385089 0.230091 -0.188915
C148  C     C_R   0.769910 0.614911 0.769909 -0.188915
C149  C     C_R   0.769910 0.385089 0.230091 -0.188915
C150  C     C_R   0.230090 0.614911 0.769909 -0.188915
C151  C     C_R   0.769910 0.385089 0.769909 -0.188915
C152  C     C_R   0.230090 0.614911 0.230091 -0.188915
C153  C     C_R   0.385089 0.769909 0.230090 -0.188916
C154  C     C_R   0.614911 0.230091 0.769910 -0.188915
C155  C     C_R   0.385089 0.230091 0.230090 -0.188915
C156  C     C_R   0.614911 0.769909 0.769910 -0.188916
C157  C     C_R   0.385089 0.230091 0.769910 -0.188917
C158  C     C_R   0.614911 0.769909 0.230090 -0.188915
C159  C     C_R   0.385089 0.769909 0.769910 -0.188915
C160  C     C_R   0.614911 0.230091 0.230090 -0.188917
C161  C     C_R   0.769909 0.230090 0.385089 -0.188916
C162  C     C_R   0.230091 0.769910 0.614911 -0.188915
C163  C     C_R   0.230090 0.230091 0.385089 -0.188915
C164  C     C_R   0.769909 0.769909 0.614911 -0.188915
C165  C     C_R   0.230091 0.769910 0.385089 -0.188916
C166  C     C_R   0.769909 0.230090 0.614911 -0.188915
C167  C     C_R   0.769909 0.769909 0.385089 -0.188916
C168  C     C_R   0.230090 0.230091 0.614911 -0.188915
C169  C     C_R   0.730090 0.885089 0.769909 -0.188915
C170  C     C_R   0.269910 0.114911 0.230091 -0.188915
C171  C     C_R   0.230090 0.885089 0.730091 -0.188915
C172  C     C_R   0.769910 0.114911 0.269909 -0.188915
C173  C     C_R   0.269910 0.885089 0.230091 -0.188915
C174  C     C_R   0.730090 0.114911 0.769909 -0.188915
C175  C     C_R   0.769910 0.885089 0.269909 -0.188915
C176  C     C_R   0.230090 0.114911 0.730091 -0.188915
C177  C     C_R   0.730090 0.114911 0.230091 -0.188915
C178  C     C_R   0.269910 0.885089 0.769909 -0.188915
C179  C     C_R   0.230090 0.114911 0.269909 -0.188915
C180  C     C_R   0.769910 0.885089 0.730091 -0.188915
C181  C     C_R   0.269910 0.114911 0.769909 -0.188915
C182  C     C_R   0.730090 0.885089 0.230091 -0.188915
C183  C     C_R   0.769910 0.114911 0.730091 -0.188915
C184  C     C_R   0.230090 0.885089 0.269909 -0.188915
C185  C     C_R   0.885089 0.769909 0.730090 -0.188916
C186  C     C_R   0.114911 0.230091 0.269910 -0.188915
C187  C     C_R   0.885089 0.730091 0.230090 -0.188915
C188  C     C_R   0.114911 0.269909 0.769910 -0.188916
C189  C     C_R   0.885089 0.230091 0.269910 -0.188917
C190  C     C_R   0.114911 0.769909 0.730090 -0.188915
C191  C     C_R   0.885089 0.269909 0.769910 -0.188915
C192  C     C_R   0.114911 0.730091 0.230090 -0.188917
C193  C     C_R   0.114911 0.230091 0.730090 -0.188917
C194  C     C_R   0.885089 0.769909 0.269910 -0.188915
C195  C     C_R   0.114911 0.269909 0.230090 -0.188915
C196  C     C_R   0.885089 0.730091 0.769910 -0.188917
C197  C     C_R   0.114911 0.769909 0.269910 -0.188916
C198  C     C_R   0.885089 0.230091 0.730090 -0.188915
C199  C     C_R   0.114911 0.730091 0.769910 -0.188915
C200  C     C_R   0.885089 0.269909 0.230090 -0.188916
C201  C     C_R   0.769909 0.730090 0.885089 -0.188916
C202  C     C_R   0.230091 0.269910 0.114911 -0.188915
C203  C     C_R   0.730090 0.230090 0.885089 -0.188915
C204  C     C_R   0.269909 0.769909 0.114911 -0.188915
C205  C     C_R   0.230091 0.269910 0.885089 -0.188916
C206  C     C_R   0.769909 0.730090 0.114911 -0.188915
C207  C     C_R   0.269909 0.769909 0.885089 -0.188916
C208  C     C_R   0.730090 0.230090 0.114911 -0.188915
C209  C     C_R   0.230090 0.730090 0.114911 -0.188915
C210  C     C_R   0.769909 0.269909 0.885089 -0.188916
C211  C     C_R   0.269909 0.230090 0.114911 -0.188915
C212  C     C_R   0.730091 0.769910 0.885089 -0.188916
C213  C     C_R   0.769909 0.269909 0.114911 -0.188915
C214  C     C_R   0.230090 0.730090 0.885089 -0.188915
C215  C     C_R   0.730091 0.769910 0.114911 -0.188915
C216  C     C_R   0.269909 0.230090 0.885089 -0.188916
C217  C     C_R   0.730090 0.385089 0.269909 -0.188915
C218  C     C_R   0.269910 0.614911 0.730091 -0.188915
C219  C     C_R   0.730090 0.385089 0.730091 -0.188915
C220  C     C_R   0.269910 0.614911 0.269909 -0.188915
C221  C     C_R   0.269910 0.385089 0.730091 -0.188915
C222  C     C_R   0.730090 0.614911 0.269909 -0.188915
C223  C     C_R   0.269910 0.385089 0.269909 -0.188915
C224  C     C_R   0.730090 0.614911 0.730091 -0.188915
C225  C     C_R   0.385089 0.269909 0.730090 -0.188916
C226  C     C_R   0.614911 0.730091 0.269910 -0.188915
C227  C     C_R   0.385089 0.730091 0.730090 -0.188915
C228  C     C_R   0.614911 0.269909 0.269910 -0.188916
C229  C     C_R   0.385089 0.730091 0.269910 -0.188917
C230  C     C_R   0.614911 0.269909 0.730090 -0.188915
C231  C     C_R   0.385089 0.269909 0.269910 -0.188915
C232  C     C_R   0.614911 0.730091 0.730090 -0.188917
C233  C     C_R   0.269909 0.730090 0.385089 -0.188916
C234  C     C_R   0.730091 0.269910 0.614911 -0.188915
C235  C     C_R   0.730090 0.730090 0.385089 -0.188915
C236  C     C_R   0.269909 0.269909 0.614911 -0.188915
C237  C     C_R   0.730091 0.269910 0.385089 -0.188916
C238  C     C_R   0.269909 0.730090 0.614911 -0.188915
C239  C     C_R   0.269909 0.269909 0.385089 -0.188916
C240  C     C_R   0.730090 0.730090 0.614911 -0.188915
H1    H     H_    0.214483 0.372971 0.785516 0.160836
H2    H     H_    0.785517 0.627029 0.214484 0.160836
H3    H     H_    0.214483 0.372971 0.214484 0.160836
H4    H     H_    0.785517 0.627029 0.785516 0.160836
H5    H     H_    0.785517 0.372971 0.214484 0.160836
H6    H     H_    0.214483 0.627029 0.785516 0.160836
H7    H     H_    0.785517 0.372971 0.785516 0.160836
H8    H     H_    0.214483 0.627029 0.214484 0.160836
H9    H     H_    0.372971 0.785516 0.214483 0.160836
H10   H     H_    0.627029 0.214484 0.785517 0.160836
H11   H     H_    0.372971 0.214484 0.214483 0.160836
H12   H     H_    0.627029 0.785516 0.785517 0.160836
H13   H     H_    0.372971 0.214484 0.785517 0.160836
H14   H     H_    0.627029 0.785516 0.214483 0.160836
H15   H     H_    0.372971 0.785516 0.785517 0.160836
H16   H     H_    0.627029 0.214484 0.214483 0.160836
H17   H     H_    0.785516 0.214483 0.372971 0.160836
H18   H     H_    0.214484 0.785517 0.627029 0.160836
H19   H     H_    0.214483 0.214483 0.372971 0.160836
H20   H     H_    0.785516 0.785516 0.627029 0.160836
H21   H     H_    0.214484 0.785517 0.372971 0.160836
H22   H     H_    0.785516 0.214483 0.627029 0.160836
H23   H     H_    0.785516 0.785516 0.372971 0.160836
H24   H     H_    0.214483 0.214483 0.627029 0.160836
H25   H     H_    0.714483 0.872971 0.785516 0.160836
H26   H     H_    0.285517 0.127029 0.214484 0.160836
H27   H     H_    0.214483 0.872971 0.714484 0.160836
H28   H     H_    0.785517 0.127029 0.285516 0.160836
H29   H     H_    0.285517 0.872971 0.214484 0.160836
H30   H     H_    0.714483 0.127029 0.785516 0.160836
H31   H     H_    0.785517 0.872971 0.285516 0.160836
H32   H     H_    0.214483 0.127029 0.714484 0.160836
H33   H     H_    0.714483 0.127029 0.214484 0.160836
H34   H     H_    0.285517 0.872971 0.785516 0.160836
H35   H     H_    0.214483 0.127029 0.285516 0.160836
H36   H     H_    0.785517 0.872971 0.714484 0.160836
H37   H     H_    0.285517 0.127029 0.785516 0.160836
H38   H     H_    0.714483 0.872971 0.214484 0.160836
H39   H     H_    0.785517 0.127029 0.714484 0.160836
H40   H     H_    0.214483 0.872971 0.285516 0.160836
H41   H     H_    0.872971 0.785516 0.714483 0.160836
H42   H     H_    0.127029 0.214484 0.285517 0.160836
H43   H     H_    0.872971 0.714484 0.214483 0.160836
H44   H     H_    0.127029 0.285516 0.785517 0.160836
H45   H     H_    0.872971 0.214484 0.285517 0.160836
H46   H     H_    0.127029 0.785516 0.714483 0.160836
H47   H     H_    0.872971 0.285516 0.785517 0.160836
H48   H     H_    0.127029 0.714484 0.214483 0.160836
H49   H     H_    0.127029 0.214484 0.714483 0.160836
H50   H     H_    0.872971 0.785516 0.285517 0.160836
H51   H     H_    0.127029 0.285516 0.214483 0.160836
H52   H     H_    0.872971 0.714484 0.785517 0.160836
H53   H     H_    0.127029 0.785516 0.285517 0.160836
H54   H     H_    0.872971 0.214484 0.714483 0.160836
H55   H     H_    0.127029 0.714484 0.785517 0.160836
H56   H     H_    0.872971 0.285516 0.214483 0.160836
H57   H     H_    0.785516 0.714483 0.872971 0.160836
H58   H     H_    0.214484 0.285517 0.127029 0.160836
H59   H     H_    0.714484 0.214483 0.872971 0.160836
H60   H     H_    0.285516 0.785516 0.127029 0.160836
H61   H     H_    0.214484 0.285517 0.872971 0.160836
H62   H     H_    0.785516 0.714483 0.127029 0.160836
H63   H     H_    0.285516 0.785516 0.872971 0.160836
H64   H     H_    0.714484 0.214483 0.127029 0.160836
H65   H     H_    0.214483 0.714483 0.127029 0.160836
H66   H     H_    0.785516 0.285516 0.872971 0.160836
H67   H     H_    0.285516 0.214483 0.127029 0.160836
H68   H     H_    0.714484 0.785517 0.872971 0.160836
H69   H     H_    0.785516 0.285517 0.127029 0.160836
H70   H     H_    0.214483 0.714484 0.872971 0.160836
H71   H     H_    0.714484 0.785517 0.127029 0.160836
H72   H     H_    0.285516 0.214483 0.872971 0.160836
H73   H     H_    0.714483 0.372971 0.285516 0.160836
H74   H     H_    0.285517 0.627029 0.714484 0.160836
H75   H     H_    0.714483 0.372971 0.714484 0.160836
H76   H     H_    0.285517 0.627029 0.285516 0.160836
H77   H     H_    0.285517 0.372971 0.714484 0.160836
H78   H     H_    0.714483 0.627029 0.285516 0.160836
H79   H     H_    0.285517 0.372971 0.285516 0.160836
H80   H     H_    0.714483 0.627029 0.714484 0.160836
H81   H     H_    0.372971 0.285516 0.714483 0.160836
H82   H     H_    0.627029 0.714484 0.285517 0.160836
H83   H     H_    0.372971 0.714484 0.714483 0.160836
H84   H     H_    0.627029 0.285516 0.285517 0.160836
H85   H     H_    0.372971 0.714484 0.285517 0.160836
H86   H     H_    0.627029 0.285516 0.714483 0.160836
H87   H     H_    0.372971 0.285516 0.285517 0.160836
H88   H     H_    0.627029 0.714484 0.714483 0.160836
H89   H     H_    0.285516 0.714483 0.372971 0.160836
H90   H     H_    0.714484 0.285517 0.627029 0.160836
H91   H     H_    0.714484 0.714484 0.372971 0.160836
H92   H     H_    0.285516 0.285516 0.627029 0.160836
H93   H     H_    0.714484 0.285517 0.372971 0.160836
H94   H     H_    0.285516 0.714483 0.627029 0.160836
H95   H     H_    0.285516 0.285516 0.372971 0.160836
H96   H     H_    0.714484 0.714483 0.627029 0.160836
C241  C     C_R   0.230086 0.417517 0.769912 -0.163736
C242  C     C_R   0.769913 0.582483 0.230087 -0.163735
C243  C     C_R   0.230086 0.417517 0.230087 -0.163735
C244  C     C_R   0.769913 0.582483 0.769912 -0.163735
C245  C     C_R   0.769913 0.417517 0.230087 -0.163736
C246  C     C_R   0.230086 0.582483 0.769912 -0.163735
C247  C     C_R   0.769913 0.417517 0.769912 -0.163735
C248  C     C_R   0.230086 0.582483 0.230087 -0.163735
C249  C     C_R   0.417517 0.769913 0.230087 -0.163734
C250  C     C_R   0.582483 0.230087 0.769913 -0.163735
C251  C     C_R   0.417517 0.230087 0.230087 -0.163735
C252  C     C_R   0.582483 0.769913 0.769913 -0.163734
C253  C     C_R   0.417517 0.230087 0.769913 -0.163734
C254  C     C_R   0.582483 0.769913 0.230087 -0.163735
C255  C     C_R   0.417517 0.769913 0.769913 -0.163735
C256  C     C_R   0.582483 0.230087 0.230087 -0.163734
C257  C     C_R   0.769913 0.230087 0.417517 -0.163734
C258  C     C_R   0.230087 0.769913 0.582483 -0.163735
C259  C     C_R   0.230087 0.230087 0.417517 -0.163735
C260  C     C_R   0.769913 0.769913 0.582483 -0.163736
C261  C     C_R   0.230087 0.769913 0.417517 -0.163734
C262  C     C_R   0.769912 0.230087 0.582483 -0.163735
C263  C     C_R   0.769913 0.769913 0.417517 -0.163735
C264  C     C_R   0.230087 0.230087 0.582483 -0.163736
C265  C     C_R   0.730086 0.917517 0.769912 -0.163736
C266  C     C_R   0.269913 0.082483 0.230087 -0.163735
C267  C     C_R   0.230086 0.917517 0.730088 -0.163735
C268  C     C_R   0.769913 0.082483 0.269912 -0.163735
C269  C     C_R   0.269913 0.917517 0.230087 -0.163736
C270  C     C_R   0.730087 0.082483 0.769912 -0.163735
C271  C     C_R   0.769913 0.917517 0.269912 -0.163735
C272  C     C_R   0.230086 0.082483 0.730088 -0.163735
C273  C     C_R   0.730086 0.082483 0.230087 -0.163735
C274  C     C_R   0.269913 0.917517 0.769912 -0.163735
C275  C     C_R   0.230086 0.082483 0.269912 -0.163735
C276  C     C_R   0.769913 0.917517 0.730088 -0.163736
C277  C     C_R   0.269913 0.082483 0.769912 -0.163735
C278  C     C_R   0.730086 0.917517 0.230087 -0.163735
C279  C     C_R   0.769913 0.082483 0.730088 -0.163735
C280  C     C_R   0.230086 0.917517 0.269912 -0.163736
C281  C     C_R   0.917517 0.769913 0.730087 -0.163734
C282  C     C_R   0.082483 0.230087 0.269913 -0.163735
C283  C     C_R   0.917517 0.730087 0.230087 -0.163735
C284  C     C_R   0.082483 0.269913 0.769913 -0.163734
C285  C     C_R   0.917517 0.230087 0.269913 -0.163734
C286  C     C_R   0.082483 0.769913 0.730087 -0.163735
C287  C     C_R   0.917517 0.269913 0.769913 -0.163735
C288  C     C_R   0.082483 0.730087 0.230087 -0.163734
C289  C     C_R   0.082483 0.230087 0.730087 -0.163734
C290  C     C_R   0.917517 0.769913 0.269913 -0.163735
C291  C     C_R   0.082483 0.269913 0.230087 -0.163735
C292  C     C_R   0.917517 0.730087 0.769913 -0.163734
C293  C     C_R   0.082483 0.769913 0.269913 -0.163734
C294  C     C_R   0.917517 0.230087 0.730087 -0.163735
C295  C     C_R   0.082483 0.730087 0.769913 -0.163735
C296  C     C_R   0.917517 0.269913 0.230087 -0.163734
C297  C     C_R   0.769913 0.730087 0.917517 -0.163734
C298  C     C_R   0.230087 0.269913 0.082483 -0.163735
C299  C     C_R   0.730087 0.230087 0.917517 -0.163735
C300  C     C_R   0.269913 0.769913 0.082483 -0.163736
C301  C     C_R   0.230087 0.269913 0.917517 -0.163734
C302  C     C_R   0.769912 0.730087 0.082483 -0.163735
C303  C     C_R   0.269913 0.769913 0.917517 -0.163735
C304  C     C_R   0.730087 0.230087 0.082483 -0.163736
C305  C     C_R   0.230087 0.730087 0.082483 -0.163736
C306  C     C_R   0.769913 0.269913 0.917517 -0.163735
C307  C     C_R   0.269912 0.230087 0.082483 -0.163735
C308  C     C_R   0.730087 0.769913 0.917517 -0.163734
C309  C     C_R   0.769913 0.269913 0.082483 -0.163736
C310  C     C_R   0.230087 0.730087 0.917517 -0.163735
C311  C     C_R   0.730087 0.769913 0.082483 -0.163735
C312  C     C_R   0.269913 0.230087 0.917517 -0.163734
C313  C     C_R   0.730086 0.417517 0.269912 -0.163736
C314  C     C_R   0.269913 0.582483 0.730088 -0.163735
C315  C     C_R   0.730087 0.417517 0.730088 -0.163735
C316  C     C_R   0.269913 0.582483 0.269912 -0.163735
C317  C     C_R   0.269913 0.417517 0.730088 -0.163736
C318  C     C_R   0.730086 0.582483 0.269912 -0.163735
C319  C     C_R   0.269913 0.417517 0.269912 -0.163735
C320  C     C_R   0.730087 0.582483 0.730088 -0.163735
C321  C     C_R   0.417517 0.269913 0.730087 -0.163734
C322  C     C_R   0.582483 0.730087 0.269913 -0.163735
C323  C     C_R   0.417517 0.730087 0.730087 -0.163735
C324  C     C_R   0.582483 0.269913 0.269913 -0.163734
C325  C     C_R   0.417517 0.730087 0.269913 -0.163734
C326  C     C_R   0.582483 0.269913 0.730087 -0.163735
C327  C     C_R   0.417517 0.269913 0.269913 -0.163735
C328  C     C_R   0.582483 0.730087 0.730087 -0.163734
C329  C     C_R   0.269913 0.730087 0.417517 -0.163734
C330  C     C_R   0.730087 0.269913 0.582483 -0.163735
C331  C     C_R   0.730087 0.730087 0.417517 -0.163735
C332  C     C_R   0.269913 0.269913 0.582483 -0.163736
C333  C     C_R   0.730087 0.269913 0.417517 -0.163734
C334  C     C_R   0.269912 0.730087 0.582483 -0.163735
C335  C     C_R   0.269913 0.269913 0.417517 -0.163735
C336  C     C_R   0.730087 0.730087 0.582483 -0.163736
H97   H     H_    0.214455 0.429558 0.785544 0.151745
H98   H     H_    0.785545 0.570442 0.214456 0.151745
H99   H     H_    0.214454 0.429558 0.214456 0.151745
H100  H     H_    0.785545 0.570442 0.785544 0.151745
H101  H     H_    0.785545 0.429558 0.214456 0.151745
H102  H     H_    0.214454 0.570442 0.785544 0.151745
H103  H     H_    0.785545 0.429558 0.785544 0.151745
H104  H     H_    0.214454 0.570442 0.214456 0.151745
H105  H     H_    0.429558 0.785544 0.214455 0.151745
H106  H     H_    0.570442 0.214456 0.785545 0.151745
H107  H     H_    0.429558 0.214456 0.214455 0.151745
H108  H     H_    0.570442 0.785544 0.785545 0.151744
H109  H     H_    0.429558 0.214456 0.785545 0.151744
H110  H     H_    0.570442 0.785544 0.214455 0.151745
H111  H     H_    0.429558 0.785544 0.785545 0.151745
H112  H     H_    0.570442 0.214456 0.214455 0.151745
H113  H     H_    0.785544 0.214455 0.429558 0.151745
H114  H     H_    0.214456 0.785545 0.570442 0.151745
H115  H     H_    0.214455 0.214455 0.429558 0.151745
H116  H     H_    0.785544 0.785544 0.570442 0.151745
H117  H     H_    0.214456 0.785545 0.429558 0.151745
H118  H     H_    0.785544 0.214455 0.570442 0.151745
H119  H     H_    0.785544 0.785544 0.429558 0.151745
H120  H     H_    0.214455 0.214455 0.570442 0.151745
H121  H     H_    0.714455 0.929558 0.785544 0.151745
H122  H     H_    0.285545 0.070442 0.214456 0.151745
H123  H     H_    0.214454 0.929558 0.714456 0.151745
H124  H     H_    0.785545 0.070442 0.285544 0.151745
H125  H     H_    0.285545 0.929558 0.214456 0.151745
H126  H     H_    0.714454 0.070442 0.785544 0.151745
H127  H     H_    0.785545 0.929558 0.285544 0.151745
H128  H     H_    0.214454 0.070442 0.714456 0.151745
H129  H     H_    0.714454 0.070442 0.214456 0.151745
H130  H     H_    0.285545 0.929558 0.785544 0.151745
H131  H     H_    0.214454 0.070442 0.285544 0.151745
H132  H     H_    0.785545 0.929558 0.714456 0.151745
H133  H     H_    0.285545 0.070442 0.785544 0.151745
H134  H     H_    0.714454 0.929558 0.214456 0.151745
H135  H     H_    0.785545 0.070442 0.714456 0.151745
H136  H     H_    0.214455 0.929558 0.285544 0.151745
H137  H     H_    0.929558 0.785544 0.714455 0.151745
H138  H     H_    0.070442 0.214456 0.285545 0.151745
H139  H     H_    0.929558 0.714456 0.214455 0.151745
H140  H     H_    0.070442 0.285544 0.785545 0.151744
H141  H     H_    0.929558 0.214456 0.285545 0.151744
H142  H     H_    0.070442 0.785544 0.714455 0.151745
H143  H     H_    0.929558 0.285544 0.785545 0.151745
H144  H     H_    0.070442 0.714456 0.214455 0.151745
H145  H     H_    0.070442 0.214456 0.714455 0.151745
H146  H     H_    0.929558 0.785544 0.285545 0.151745
H147  H     H_    0.070442 0.285544 0.214455 0.151745
H148  H     H_    0.929558 0.714456 0.785545 0.151744
H149  H     H_    0.070442 0.785544 0.285545 0.151744
H150  H     H_    0.929558 0.214456 0.714455 0.151745
H151  H     H_    0.070442 0.714456 0.785545 0.151745
H152  H     H_    0.929558 0.285544 0.214455 0.151745
H153  H     H_    0.785544 0.714455 0.929558 0.151745
H154  H     H_    0.214456 0.285545 0.070442 0.151745
H155  H     H_    0.714455 0.214455 0.929558 0.151745
H156  H     H_    0.285544 0.785544 0.070442 0.151745
H157  H     H_    0.214456 0.285545 0.929558 0.151745
H158  H     H_    0.785544 0.714455 0.070442 0.151745
H159  H     H_    0.285544 0.785544 0.929558 0.151745
H160  H     H_    0.714456 0.214455 0.070442 0.151745
H161  H     H_    0.214455 0.714455 0.070442 0.151745
H162  H     H_    0.785544 0.285544 0.929558 0.151745
H163  H     H_    0.285544 0.214455 0.070442 0.151745
H164  H     H_    0.714456 0.785545 0.929558 0.151745
H165  H     H_    0.785544 0.285544 0.070442 0.151745
H166  H     H_    0.214455 0.714455 0.929558 0.151745
H167  H     H_    0.714456 0.785545 0.070442 0.151745
H168  H     H_    0.285544 0.214455 0.929558 0.151745
H169  H     H_    0.714455 0.429558 0.285544 0.151745
H170  H     H_    0.285545 0.570442 0.714456 0.151745
H171  H     H_    0.714454 0.429558 0.714456 0.151745
H172  H     H_    0.285545 0.570442 0.285544 0.151745
H173  H     H_    0.285545 0.429558 0.714456 0.151745
H174  H     H_    0.714454 0.570442 0.285544 0.151745
H175  H     H_    0.285545 0.429558 0.285544 0.151745
H176  H     H_    0.714454 0.570442 0.714456 0.151745
H177  H     H_    0.429558 0.285544 0.714455 0.151745
H178  H     H_    0.570442 0.714456 0.285545 0.151745
H179  H     H_    0.429558 0.714456 0.714455 0.151745
H180  H     H_    0.570442 0.285544 0.285545 0.151744
H181  H     H_    0.429558 0.714456 0.285545 0.151744
H182  H     H_    0.570442 0.285544 0.714455 0.151745
H183  H     H_    0.429558 0.285544 0.285545 0.151745
H184  H     H_    0.570442 0.714456 0.714455 0.151745
H185  H     H_    0.285544 0.714455 0.429558 0.151745
H186  H     H_    0.714456 0.285545 0.570442 0.151745
H187  H     H_    0.714455 0.714455 0.429558 0.151745
H188  H     H_    0.285544 0.285544 0.570442 0.151745
H189  H     H_    0.714456 0.285545 0.429558 0.151745
H190  H     H_    0.285544 0.714455 0.570442 0.151745
H191  H     H_    0.285545 0.285545 0.429558 0.151745
H192  H     H_    0.714456 0.714455 0.570442 0.151745
C337  C     C_R   0.250000 0.434086 0.750000 0.082447
C338  C     C_R   0.750000 0.565914 0.250000 0.082447
C339  C     C_R   0.250000 0.434086 0.250000 0.082447
C340  C     C_R   0.750000 0.565914 0.750000 0.082447
C341  C     C_R   0.750000 0.434086 0.250000 0.082447
C342  C     C_R   0.250000 0.565914 0.750000 0.082447
C343  C     C_R   0.750000 0.434086 0.750000 0.082447
C344  C     C_R   0.250000 0.565914 0.250000 0.082447
C345  C     C_R   0.434086 0.750000 0.250000 0.082446
C346  C     C_R   0.565914 0.250000 0.750000 0.082447
C347  C     C_R   0.434086 0.250000 0.250000 0.082447
C348  C     C_R   0.565914 0.750000 0.750000 0.082446
C349  C     C_R   0.434086 0.250000 0.750000 0.082446
C350  C     C_R   0.565914 0.750000 0.250000 0.082447
C351  C     C_R   0.434086 0.750000 0.750000 0.082447
C352  C     C_R   0.565914 0.250000 0.250000 0.082446
C353  C     C_R   0.750000 0.250000 0.434086 0.082446
C354  C     C_R   0.250000 0.750000 0.565914 0.082447
C355  C     C_R   0.250000 0.250000 0.434086 0.082447
C356  C     C_R   0.750000 0.750000 0.565914 0.082447
C357  C     C_R   0.250000 0.750000 0.434086 0.082446
C358  C     C_R   0.750000 0.250000 0.565914 0.082447
C359  C     C_R   0.750000 0.750000 0.434086 0.082447
C360  C     C_R   0.250000 0.250000 0.565914 0.082447
C361  C     C_R   0.750000 0.934086 0.750000 0.082447
C362  C     C_R   0.250000 0.065914 0.250000 0.082447
C363  C     C_R   0.250000 0.934086 0.750000 0.082447
C364  C     C_R   0.750000 0.065914 0.250000 0.082447
C365  C     C_R   0.250000 0.934086 0.250000 0.082447
C366  C     C_R   0.750000 0.065914 0.750000 0.082447
C367  C     C_R   0.750000 0.934086 0.250000 0.082447
C368  C     C_R   0.250000 0.065914 0.750000 0.082447
C369  C     C_R   0.934086 0.750000 0.750000 0.082446
C370  C     C_R   0.065914 0.250000 0.250000 0.082447
C371  C     C_R   0.934086 0.750000 0.250000 0.082447
C372  C     C_R   0.065914 0.250000 0.750000 0.082446
C373  C     C_R   0.934086 0.250000 0.250000 0.082446
C374  C     C_R   0.065914 0.750000 0.750000 0.082447
C375  C     C_R   0.934086 0.250000 0.750000 0.082447
C376  C     C_R   0.065914 0.750000 0.250000 0.082446
C377  C     C_R   0.750000 0.750000 0.934086 0.082446
C378  C     C_R   0.250000 0.250000 0.065914 0.082447
C379  C     C_R   0.750000 0.250000 0.934086 0.082447
C380  C     C_R   0.250000 0.750000 0.065914 0.082447
C381  C     C_R   0.250000 0.250000 0.934086 0.082446
C382  C     C_R   0.750000 0.750000 0.065914 0.082447
C383  C     C_R   0.250000 0.750000 0.934086 0.082447
C384  C     C_R   0.750000 0.250000 0.065914 0.082447

loop_
_geom_bond_atom_site_label_1
_geom_bond_atom_site_label_2
_geom_bond_distance
_ccdc_geom_bond_type
C308  H164  1.082736 S    
Zn30  O10   1.926425 S    
C213  H69   1.083013 S    
N58   N61   1.330525 A    
Zn19  O27   1.926425 S    
C332  C360  1.405361 A    
C69   N18   1.357569 A    
C5    C143  1.473746 S    
C80   C363  1.477093 S    
C215  H71   1.083013 S    
C234  H90   1.083013 S    
C157  C253  1.394802 A    
Zn11  O31   1.926425 S    
N81   N86   1.330525 A    
C206  H62   1.083013 S    
C204  C300  1.394802 A    
C163  C259  1.394802 A    
C280  H136  1.082733 S    
C247  C343  1.405363 A    
Zn13  O45   1.926425 S    
C38   C107  1.473746 S    
C162  C258  1.394802 A    
O67   C131  1.279437 A    
C89   N71   1.357569 A    
C90   N72   1.357569 A    
C280  C365  1.405363 A    
Zn15  O35   1.926425 S    
C16   C136  1.473746 S    
O83   C131  1.279437 A    
O19   C107  1.279437 A    
O45   C104  1.279437 A    
Zn1   O1    1.931011 S    
C61   N10   1.357569 A    
C236  C332  1.394802 A    
C80   N27   1.357569 A    
C17   C161  1.403999 A    
C15   C135  1.473746 S    
C240  H96   1.083013 S    
N90   N93   1.330525 A    
C27   C171  1.403997 A    
O36   C97   1.279437 A    
C297  C377  1.405361 A    
N73   N78   1.330525 A    
C70   N17   1.357569 A    
C283  H139  1.082736 S    
C49   N6    1.357567 A    
C250  H106  1.082736 S    
C174  H30   1.083013 S    
Zn2   O67   1.926425 S    
C326  C346  1.405363 A    
C19   C239  1.403994 A    
O28   C109  1.279437 A    
C228  H84   1.083010 S    
Zn10  O3    1.931013 S    
C229  H85   1.083010 S    
O68   C132  1.279437 A    
C15   C159  1.403997 A    
Zn12  O33   1.926425 S    
C293  C376  1.405361 A    
C67   N92   1.357572 A    
C16   C160  1.403999 A    
C96   N59   1.357567 A    
C322  C350  1.405363 A    
C44   C204  1.403994 A    
Zn2   O74   1.926425 S    
C163  H19   1.083010 S    
C333  H189  1.082736 S    
N65   N70   1.330525 A    
C246  H102  1.082736 S    
C50   C341  1.477093 S    
C195  H51   1.083013 S    
Zn5   O57   1.926425 S    
C49   C342  1.477093 S    
C52   N75   1.357569 A    
C334  C354  1.405363 A    
C202  C298  1.394802 A    
C230  H86   1.083013 S    
C77   C362  1.477093 S    
N76   N79   1.330525 A    
C33   C185  1.403999 A    
C54   C337  1.477093 S    
Zn21  O49   1.926425 S    
C53   C338  1.477093 S    
C40   C104  1.473746 S    
C279  C366  1.405363 A    
C207  C303  1.394802 A    
Zn22  O2    1.931008 S    
Zn19  O3    1.931013 S    
C73   C366  1.477093 S    
C224  H80   1.083013 S    
C312  H168  1.082736 S    
C193  C289  1.394802 A    
Zn20  O4    1.931011 S    
C235  C331  1.394802 A    
C75   C368  1.477093 S    
C305  H161  1.082733 S    
O78   C142  1.279437 A    
C47   C207  1.403994 A    
C10   C230  1.403997 A    
Zn5   O72   1.926425 S    
C21   C165  1.403999 A    
C48   C208  1.403999 A    
C66   C357  1.477093 S    
C255  C351  1.405363 A    
C63   C348  1.477093 S    
Zn23  O91   1.926425 S    
C146  C242  1.394802 A    
C54   N1    1.357569 A    
C201  H57   1.083010 S    
O74   C138  1.279437 A    
C330  C358  1.405363 A    
Zn25  O12   1.926425 S    
C232  H88   1.083010 S    
C21   C233  1.403999 A    
Zn26  O11   1.926425 S    
C238  H94   1.083013 S    
C211  H67   1.083013 S    
O82   C134  1.279437 A    
C253  C349  1.405358 A    
O70   C134  1.279437 A    
C53   N2    1.357572 A    
Zn9   O85   1.926425 S    
Zn10  O43   1.926425 S    
C177  H33   1.083013 S    
Zn11  O34   1.926425 S    
C263  C359  1.405361 A    
C46   C98   1.473746 S    
C155  H11   1.083013 S    
N2    N5    1.330525 A    
C249  C345  1.405363 A    
N33   N38   1.330525 A    
C278  H134  1.082736 S    
C268  C364  1.405363 A    
C58   N81   1.357569 A    
C167  H23   1.083010 S    
Zn5   O79   1.926425 S    
C94   N57   1.357569 A    
C160  H16   1.083010 S    
N35   N40   1.330525 A    
C284  H140  1.082736 S    
C41   C109  1.473746 S    
C248  H104  1.082736 S    
C180  H36   1.083013 S    
Zn20  O96   1.926425 S    
C285  C373  1.405358 A    
C302  H158  1.082736 S    
C90   N61   1.357569 A    
C271  C367  1.405363 A    
C79   C364  1.477093 S    
C301  H157  1.082736 S    
Zn16  O1    1.931011 S    
C23   C126  1.473746 S    
C264  H120  1.082733 S    
O86   C130  1.279439 A    
C33   C100  1.473746 S    
C257  C353  1.405361 A    
C86   C369  1.477093 S    
Zn23  O39   1.926425 S    
C314  C342  1.405363 A    
C50   N73   1.357569 A    
C25   C169  1.403997 A    
O95   C127  1.279437 A    
C38   C190  1.403997 A    
C323  H179  1.082736 S    
O56   C117  1.279437 A    
Zn10  O54   1.926425 S    
Zn3   O3    1.931008 S    
C162  H18   1.083013 S    
C8    C139  1.473746 S    
Zn12  O88   1.926425 S    
C161  H17   1.083010 S    
C79   N28   1.357569 A    
C12   C232  1.403999 A    
C309  C384  1.405361 A    
C34   C186  1.403997 A    
O30   C116  1.279437 A    
N49   N54   1.330525 A    
C214  C310  1.394802 A    
C26   C120  1.473746 S    
C59   N16   1.357567 A    
Zn28  O19   1.926425 S    
C261  H117  1.082736 S    
C146  H2    1.083013 S    
O76   C140  1.279437 A    
N51   N56   1.330525 A    
C73   N30   1.357567 A    
C305  C380  1.405366 A    
N52   N55   1.330525 A    
C203  C299  1.394802 A    
Zn2   O62   1.926425 S    
Zn31  O8    1.931016 S    
O16   C104  1.279437 A    
O97   C143  1.279437 A    
Zn32  O7    1.931008 S    
O61   C125  1.279434 A    
C282  C370  1.405363 A    
C95   C380  1.477093 S    
C37   C200  1.403999 A    
C38   C199  1.403997 A    
Zn6   O58   1.926425 S    
N41   N46   1.330525 A    
N12   N15   1.330525 A    
O57   C121  1.279437 A    
O14   C102  1.279439 A    
N43   N48   1.330525 A    
C233  H89   1.083010 S    
C188  C284  1.394802 A    
C81   N55   1.357569 A    
C205  H61   1.083010 S    
C176  C272  1.394802 A    
Zn17  O56   1.926425 S    
C82   N56   1.357569 A    
N19   N24   1.330525 A    
Zn15  O2    1.931013 S    
Zn18  O55   1.926425 S    
C83   N53   1.357572 A    
N92   N95   1.330525 A    
C238  C334  1.394802 A    
Zn31  O101  1.926425 S    
Zn27  O13   1.926425 S    
C29   C113  1.473746 S    
O43   C120  1.279437 A    
O20   C108  1.279437 A    
C223  C319  1.394802 A    
O101  C139  1.279437 A    
C157  H13   1.083010 S    
C336  H192  1.082733 S    
O75   C139  1.279437 A    
C86   N52   1.357569 A    
C316  C344  1.405363 A    
Zn31  O17   1.926425 S    
C315  H171  1.082736 S    
Zn4   O65   1.926425 S    
C314  H170  1.082736 S    
C2    C146  1.403997 A    
N11   N16   1.330525 A    
C68   N91   1.357567 A    
C249  H105  1.082736 S    
C158  C254  1.394802 A    
C209  C305  1.394802 A    
C81   N46   1.357569 A    
C231  C327  1.394802 A    
O42   C107  1.279437 A    
O34   C118  1.279437 A    
C83   N48   1.357567 A    
C1    C145  1.403997 A    
C148  H4    1.083013 S    
O98   C144  1.279437 A    
C323  C351  1.405363 A    
C194  H50   1.083013 S    
C194  C290  1.394802 A    
N3    N8    1.330525 A    
C217  C313  1.394802 A    
C247  H103  1.082736 S    
C173  C269  1.394802 A    
Zn22  O47   1.926425 S    
C15   C227  1.403997 A    
C87   N49   1.357567 A    
O11   C99   1.279437 A    
Zn16  O36   1.926425 S    
C181  C277  1.394802 A    
Zn20  O37   1.926425 S    
C320  H176  1.082736 S    
N82   N85   1.330525 A    
C31   C175  1.403997 A    
N83   N88   1.330525 A    
C291  H147  1.082736 S    
N84   N87   1.330525 A    
C183  C279  1.394802 A    
Zn7   O59   1.926425 S    
O18   C106  1.279434 A    
C169  C265  1.394802 A    
C254  H110  1.082736 S    
Zn6   O71   1.926425 S    
C36   C112  1.473746 S    
C285  H141  1.082736 S    
C65   C358  1.477093 S    
C272  H128  1.082736 S    
C62   C345  1.477093 S    
Zn14  O7    1.931013 S    
C145  C241  1.394802 A    
O54   C99   1.279437 A    
C78   C361  1.477093 S    
C58   N13   1.357569 A    
C67   C360  1.477093 S    
C77   N26   1.357572 A    
C289  C372  1.405361 A    
C220  C316  1.394802 A    
C328  H184  1.082736 S    
C84   C375  1.477093 S    
Zn25  O21   1.926425 S    
N75   N80   1.330525 A    
C236  H92   1.083013 S    
C58   C349  1.477093 S    
C219  H75   1.083013 S    
C277  C368  1.405363 A    
C237  H93   1.083010 S    
C210  H66   1.083010 S    
C263  H119  1.082736 S    
C87   N44   1.357572 A    
C96   C379  1.477093 S    
Zn29  O1    1.931011 S    
O62   C126  1.279439 A    
C70   C353  1.477093 S    
C44   C105  1.473746 S    
C273  C364  1.405363 A    
C331  C359  1.405366 A    
C26   C170  1.403997 A    
O35   C98   1.279437 A    
C2    C138  1.473746 S    
C92   C383  1.477093 S    
O47   C116  1.279437 A    
C35   C111  1.473746 S    
O58   C122  1.279437 A    
N68   N71   1.330525 A    
C151  H7    1.083013 S    
Zn24  O8    1.931011 S    
C230  C326  1.394802 A    
Zn21  O89   1.926425 S    
C10   C123  1.473746 S    
C288  H144  1.082736 S    
N20   N23   1.330525 A    
C19   C130  1.473746 S    
C267  C363  1.405363 A    
C34   C99   1.473746 S    
N60   N63   1.330525 A    
C36   C188  1.403999 A    
C317  H173  1.082733 S    
C88   C371  1.477093 S    
O51   C114  1.279437 A    
C221  H77   1.083013 S    
C226  H82   1.083013 S    
O87   C135  1.279437 A    
C26   C179  1.403997 A    
C294  C375  1.405363 A    
C24   C168  1.403999 A    
Zn13  O81   1.926425 S    
C14   C226  1.403997 A    
C269  C365  1.405363 A    
Zn17  O93   1.926425 S    
C296  H152  1.082736 S    
Zn15  O30   1.926425 S    
C13   C225  1.403999 A    
C7    C140  1.473746 S    
Zn11  O6    1.931008 S    
C243  H99   1.082736 S    
O90   C126  1.279434 A    
C227  C323  1.394802 A    
Zn25  O99   1.926425 S    
O15   C103  1.279437 A    
C170  C266  1.394802 A    
O79   C143  1.279437 A    
C67   N24   1.357567 A    
C181  H37   1.083013 S    
Zn4   O4    1.931016 S    
C94   C377  1.477093 S    
C274  H130  1.082736 S    
C330  H186  1.082736 S    
C52   C343  1.477093 S    
O80   C144  1.279437 A    
C329  H185  1.082736 S    
C169  H25   1.083013 S    
C90   C381  1.477093 S    
C191  H47   1.083013 S    
C281  C369  1.405363 A    
C208  C304  1.394802 A    
Zn21  O1    1.931016 S    
C161  C257  1.394802 A    
C288  C376  1.405361 A    
C311  C382  1.405363 A    
C171  C267  1.394802 A    
C22   C234  1.403997 A    
O65   C129  1.279439 A    
C295  H151  1.082736 S    
C4    C148  1.403997 A    
C24   C236  1.403994 A    
C260  C356  1.405361 A    
C259  H115  1.082736 S    
C229  C325  1.394802 A    
C216  H72   1.083010 S    
Zn23  O26   1.926425 S    
C52   N7    1.357569 A    
C153  H9    1.083010 S    
C92   N63   1.357572 A    
C199  H55   1.083013 S    
C218  H74   1.083013 S    
O63   C127  1.279437 A    
C185  H41   1.083010 S    
C222  C318  1.394802 A    
C56   N3    1.357569 A    
C16   C228  1.403999 A    
C28   C177  1.403997 A    
O21   C109  1.279437 A    
C269  H125  1.082733 S    
O41   C108  1.279437 A    
C319  C339  1.405363 A    
Zn9   O44   1.926425 S    
C47   C214  1.403999 A    
C31   C116  1.473746 S    
C45   C205  1.403999 A    
C59   N84   1.357572 A    
C150  H6    1.083013 S    
C207  H63   1.083010 S    
C95   N60   1.357572 A    
Zn24  O40   1.926425 S    
C304  H160  1.082733 S    
Zn13  O52   1.926425 S    
C43   C203  1.403999 A    
C193  H49   1.083010 S    
C13   C132  1.473746 S    
C299  H155  1.082736 S    
C51   C344  1.477093 S    
Zn12  O5    1.931016 S    
C41   C201  1.403999 A    
C28   C117  1.473746 S    
C298  H154  1.082736 S    
C76   N38   1.357569 A    
C265  H121  1.082733 S    
C196  H52   1.083010 S    
C147  C243  1.394802 A    
O50   C111  1.279437 A    
N18   N21   1.330525 A    
C186  H42   1.083013 S    
C88   N50   1.357569 A    
C6    C144  1.473746 S    
C200  C296  1.394802 A    
O81   C133  1.279437 A    
Zn18  O6    1.931013 S    
C165  C261  1.394802 A    
O12   C100  1.279437 A    
C253  H109  1.082736 S    
O53   C100  1.279437 A    
Zn9   O53   1.926425 S    
Zn7   O7    1.931013 S    
C185  C281  1.394802 A    
C61   C346  1.477093 S    
C291  C370  1.405363 A    
O93   C121  1.279437 A    
C204  H60   1.083013 S    
C28   C172  1.403997 A    
N50   N53   1.330525 A    
C175  C271  1.394802 A    
C324  C352  1.405361 A    
O64   C128  1.279437 A    
C325  C345  1.405358 A    
C223  H79   1.083013 S    
C57   C350  1.477093 S    
C174  C270  1.394802 A    
C232  C328  1.394802 A    
C276  C361  1.405363 A    
Zn25  O4    1.931011 S    
C209  H65   1.083013 S    
C66   N21   1.357569 A    
C251  C347  1.405363 A    
Zn26  O3    1.931013 S    
O39   C106  1.279439 A    
Zn11  O87   1.926425 S    
C248  C344  1.405363 A    
C321  C349  1.405363 A    
C54   N77   1.357569 A    
C69   C354  1.477093 S    
C212  H68   1.083010 S    
C317  C337  1.405363 A    
C303  H159  1.082736 S    
Zn8   O8    1.931011 S    
N42   N45   1.330525 A    
O100  C142  1.279437 A    
C36   C193  1.403999 A    
Zn4   O64   1.926425 S    
C154  C250  1.394802 A    
C333  C353  1.405361 A    
C77   N35   1.357567 A    
Zn1   O73   1.926425 S    
C14   C131  1.473746 S    
C152  H8    1.083013 S    
C78   N36   1.357569 A    
Zn17  O5    1.931011 S    
Zn4   O77   1.926425 S    
C190  C286  1.394802 A    
C259  C355  1.405366 A    
C292  C369  1.405358 A    
Zn8   O60   1.926425 S    
C191  C287  1.394802 A    
C4    C141  1.473746 S    
C200  H56   1.083010 S    
C20   C164  1.403994 A    
C164  H20   1.083013 S    
Zn28  O6    1.931013 S    
C266  C362  1.405363 A    
C62   N9    1.357569 A    
C79   N33   1.357569 A    
C316  H172  1.082736 S    
C239  H95   1.083010 S    
C315  C343  1.405363 A    
Zn32  O18   1.926425 S    
C225  H81   1.083010 S    
N89   N94   1.330525 A    
O88   C136  1.279437 A    
C50   N5    1.357569 A    
C187  H43   1.083013 S    
C168  H24   1.083013 S    
C156  C252  1.394802 A    
C8    C220  1.403997 A    
C70   N93   1.357569 A    
C21   C133  1.473746 S    
C85   C370  1.477093 S    
C268  H124  1.082736 S    
C213  C309  1.394802 A    
C242  H98   1.082736 S    
C82   N45   1.357569 A    
O91   C123  1.279437 A    
C69   N94   1.357569 A    
C45   C216  1.403999 A    
O25   C113  1.279437 A    
C42   C110  1.473746 S    
C215  C311  1.394802 A    
C46   C215  1.403997 A    
C66   N89   1.357569 A    
Zn26  O100  1.926425 S    
Zn27  O20   1.926425 S    
C201  C297  1.394802 A    
C165  H21   1.083010 S    
C18   C162  1.403997 A    
C205  C301  1.394802 A    
C75   N32   1.357569 A    
C1    C221  1.403997 A    
C12   C156  1.403999 A    
Zn20  O28   1.926425 S    
C13   C157  1.403999 A    
C93   C378  1.477093 S    
C251  H107  1.082736 S    
C63   N12   1.357572 A    
O94   C122  1.279437 A    
C166  C262  1.394802 A    
Zn18  O42   1.926425 S    
C60   N83   1.357569 A    
N17   N22   1.330525 A    
C319  H175  1.082736 S    
C61   N86   1.357569 A    
C9    C153  1.403999 A    
C89   C382  1.477093 S    
C312  C381  1.405361 A    
C273  H129  1.082736 S    
C63   N88   1.357567 A    
N28   N31   1.330525 A    
C91   C384  1.477093 S    
C30   C114  1.473746 S    
O103  C137  1.279437 A    
C299  C379  1.405366 A    
Zn32  O102  1.926425 S    
C252  H108  1.082736 S    
C9    C229  1.403999 A    
C55   C340  1.477093 S    
C197  C293  1.394802 A    
C256  C352  1.405361 A    
N74   N77   1.330525 A    
O23   C111  1.279437 A    
C23   C235  1.403999 A    
N9    N14   1.330525 A    
N10   N13   1.330525 A    
C327  H183  1.082736 S    
Zn26  O22   1.926425 S    
Zn19  O95   1.926425 S    
Zn29  O103  1.926425 S    
C39   C198  1.403997 A    
C10   C154  1.403997 A    
N27   N32   1.330525 A    
C256  H112  1.082736 S    
C217  H73   1.083013 S    
C150  C246  1.394802 A    
C179  H35   1.083013 S    
C30   C183  1.403997 A    
Zn10  O86   1.926425 S    
C239  C335  1.394802 A    
C178  H34   1.083013 S    
C31   C182  1.403997 A    
O32   C101  1.279439 A    
Zn30  O2    1.931013 S    
C4    C224  1.403997 A    
C29   C173  1.403997 A    
N34   N37   1.330525 A    
C55   N4    1.357569 A    
N25   N30   1.330525 A    
C264  C360  1.405366 A    
N66   N69   1.330525 A    
Zn27  O5    1.931011 S    
C65   N90   1.357569 A    
Zn5   O5    1.931011 S    
N1    N6    1.330525 A    
C244  H100  1.082736 S    
C64   N11   1.357569 A    
Zn7   O76   1.926425 S    
C231  H87   1.083013 S    
C95   N65   1.357567 A    
C240  C336  1.394802 A    
N44   N47   1.330525 A    
C171  H27   1.083013 S    
C310  H166  1.082736 S    
C266  H122  1.082736 S    
C276  H132  1.082733 S    
C48   C101  1.473746 S    
O73   C137  1.279437 A    
Zn12  O32   1.926425 S    
C272  C368  1.405363 A    
O49   C112  1.279437 A    
C32   C176  1.403997 A    
O85   C129  1.279434 A    
C206  C302  1.394802 A    
C335  C355  1.405361 A    
C27   C118  1.473746 S    
C24   C125  1.473746 S    
C308  C377  1.405361 A    
C277  H133  1.082736 S    
C71   N96   1.357567 A    
C188  H44   1.083010 S    
C23   C167  1.403994 A    
C211  C307  1.394802 A    
C182  C278  1.394802 A    
C237  C333  1.394802 A    
C210  C306  1.394802 A    
O99   C141  1.279437 A    
C318  C338  1.405363 A    
C241  C337  1.405363 A    
C8    C152  1.403997 A    
C17   C237  1.403999 A    
Zn24  O25   1.926425 S    
C252  C348  1.405361 A    
C310  C383  1.405366 A    
Zn9   O4    1.931011 S    
C55   N80   1.357569 A    
C326  H182  1.082736 S    
C147  H3    1.083013 S    
C56   N79   1.357569 A    
C245  C341  1.405363 A    
C22   C166  1.403997 A    
Zn16  O29   1.926425 S    
C145  H1    1.083013 S    
Zn8   O75   1.926425 S    
C306  C379  1.405361 A    
C335  H191  1.082736 S    
C85   N42   1.357569 A    
C218  C314  1.394802 A    
C32   C181  1.403997 A    
C221  C317  1.394802 A    
N4    N7    1.330525 A    
C82   C373  1.477093 S    
C267  H123  1.082736 S    
Zn29  O9    1.926425 S    
O17   C105  1.279439 A    
N57   N62   1.330525 A    
Zn23  O7    1.931013 S    
C245  H101  1.082733 S    
Zn7   O70   1.926425 S    
C286  H142  1.082736 S    
N59   N64   1.330525 A    
Zn14  O46   1.926425 S    
C195  C291  1.394802 A    
C175  H31   1.083013 S    
C226  C322  1.394802 A    
C286  C374  1.405363 A    
C258  C354  1.405363 A    
C241  H97   1.082733 S    
C246  C342  1.405363 A    
O104  C138  1.279437 A    
C270  H126  1.082736 S    
O69   C133  1.279437 A    
Zn2   O2    1.931013 S    
C265  C361  1.405363 A    
C158  H14   1.083013 S    
Zn18  O94   1.926425 S    
C72   N95   1.357572 A    
C224  C320  1.394802 A    
C92   N70   1.357567 A    
C297  H153  1.082736 S    
C43   C210  1.403994 A    
C190  H46   1.083013 S    
O102  C140  1.279437 A    
C154  H10   1.083013 S    
O31   C102  1.279434 A    
C292  H148  1.082736 S    
C29   C184  1.403997 A    
C301  C381  1.405361 A    
C80   N34   1.357569 A    
C192  C288  1.394802 A    
C320  C340  1.405363 A    
C198  C294  1.394802 A    
C91   N69   1.357572 A    
C172  C268  1.394802 A    
C7    C219  1.403997 A    
O48   C115  1.279437 A    
C45   C97   1.473746 S    
C46   C206  1.403997 A    
C5    C217  1.403997 A    
C73   N39   1.357572 A    
C53   N78   1.357567 A    
C197  H53   1.083010 S    
C74   N40   1.357569 A    
C178  C274  1.394802 A    
C47   C102  1.473746 S    
O71   C135  1.279437 A    
C2    C222  1.403997 A    
C177  C273  1.394802 A    
C42   C202  1.403997 A    
C72   C355  1.477093 S    
C183  H39   1.083013 S    
Zn22  O50   1.926425 S    
C270  C366  1.405363 A    
O84   C132  1.279437 A    
C9    C124  1.473746 S    
C198  H54   1.083013 S    
O44   C119  1.279437 A    
C40   C197  1.403999 A    
C336  C356  1.405366 A    
O10   C98   1.279437 A    
C199  C295  1.394802 A    
C71   N20   1.357572 A    
C51   N76   1.357569 A    
C329  C357  1.405361 A    
C186  C282  1.394802 A    
C20   C129  1.473746 S    
N91   N96   1.330525 A    
O37   C119  1.279437 A    
O38   C120  1.279437 A    
C228  C324  1.394802 A    
C271  H127  1.082736 S    
C93   N67   1.357569 A    
Zn17  O41   1.926425 S    
O22   C110  1.279437 A    
C94   N68   1.357569 A    
C275  H131  1.082736 S    
C166  H22   1.083013 S    
C41   C212  1.403999 A    
C57   N14   1.357569 A    
C76   N31   1.357569 A    
C260  H116  1.082733 S    
C290  C371  1.405363 A    
C48   C213  1.403994 A    
Zn30  O104  1.926425 S    
Zn31  O16   1.926425 S    
C148  C244  1.394802 A    
C307  C378  1.405363 A    
C300  H156  1.082733 S    
Zn32  O15   1.926425 S    
C149  C245  1.394802 A    
C30   C174  1.403997 A    
C6    C150  1.403997 A    
C278  C367  1.405363 A    
O33   C117  1.279437 A    
C220  H76   1.083013 S    
O26   C114  1.279437 A    
C27   C178  1.403997 A    
C151  C247  1.394802 A    
Zn15  O83   1.926425 S    
O72   C136  1.279437 A    
C43   C106  1.473746 S    
C84   N54   1.357569 A    
C274  C363  1.405363 A    
Zn19  O38   1.926425 S    
C203  H59   1.083010 S    
C311  H167  1.082736 S    
C68   N23   1.357572 A    
O59   C123  1.279437 A    
C57   N82   1.357569 A    
C5    C149  1.403997 A    
C93   N58   1.357569 A    
C11   C127  1.473746 S    
C235  H91   1.083010 S    
C244  C340  1.405363 A    
C202  H58   1.083013 S    
O96   C128  1.279437 A    
Zn22  O90   1.926425 S    
C281  H137  1.082736 S    
C12   C128  1.473746 S    
C72   N19   1.357567 A    
C159  H15   1.083013 S    
C89   N62   1.357569 A    
C284  C372  1.405361 A    
Zn8   O69   1.926425 S    
C189  C285  1.394802 A    
C168  C264  1.394802 A    
C91   N64   1.357567 A    
C42   C211  1.403997 A    
C64   N87   1.357569 A    
C60   N15   1.357569 A    
C49   N74   1.357572 A    
C233  C329  1.394802 A    
C159  C255  1.394802 A    
O46   C103  1.279437 A    
C3    C223  1.403997 A    
C262  C358  1.405363 A    
C37   C189  1.403999 A    
C298  C378  1.405363 A    
Zn3   O66   1.926425 S    
C176  H32   1.083013 S    
Zn14  O82   1.926425 S    
C17   C121  1.473746 S    
C35   C187  1.403997 A    
Zn16  O84   1.926425 S    
Zn1   O68   1.926425 S    
C7    C151  1.403997 A    
C304  C384  1.405366 A    
C78   N25   1.357569 A    
Zn28  O98   1.926425 S    
C212  C308  1.394802 A    
C3    C142  1.473746 S    
C324  H180  1.082736 S    
C32   C115  1.473746 S    
C152  C248  1.394802 A    
C282  H138  1.082736 S    
C300  C380  1.405361 A    
C74   N29   1.357569 A    
C219  C315  1.394802 A    
C44   C209  1.403999 A    
C14   C158  1.403997 A    
C216  C312  1.394802 A    
C19   C163  1.403999 A    
C85   N51   1.357569 A    
C153  C249  1.394802 A    
C182  H38   1.083013 S    
C179  C275  1.394802 A    
C214  H70   1.083010 S    
Zn3   O63   1.926425 S    
C81   C374  1.477093 S    
C290  H146  1.082736 S    
C303  C383  1.405361 A    
C11   C155  1.403997 A    
Zn6   O6    1.931013 S    
C289  H145  1.082736 S    
C170  H26   1.083013 S    
N36   N39   1.330525 A    
C83   C376  1.477093 S    
Zn21  O48   1.926425 S    
C287  C375  1.405363 A    
C156  H12   1.083010 S    
C39   C103  1.473746 S    
C62   N85   1.357569 A    
C294  H150  1.082736 S    
C74   C365  1.477093 S    
C287  H143  1.082736 S    
C71   C356  1.477093 S    
C293  H149  1.082736 S    
C192  H48   1.083010 S    
O52   C113  1.279437 A    
O9    C97   1.279437 A    
O66   C130  1.279434 A    
C56   C339  1.477093 S    
C187  C283  1.394802 A    
C225  C321  1.394802 A    
C75   N37   1.357569 A    
C313  C341  1.405363 A    
O55   C118  1.279437 A    
C196  C292  1.394802 A    
C243  C339  1.405363 A    
Zn13  O8    1.931011 S    
C261  C357  1.405361 A    
C242  C338  1.405363 A    
N26   N29   1.330525 A    
Zn28  O14   1.926425 S    
C296  C373  1.405363 A    
C321  H177  1.082736 S    
C76   C367  1.477093 S    
C160  C256  1.394802 A    
Zn24  O92   1.926425 S    
C20   C240  1.403999 A    
C234  C330  1.394802 A    
C22   C134  1.473746 S    
C88   N43   1.357569 A    
C332  H188  1.082733 S    
N67   N72   1.330525 A    
C334  H190  1.082736 S    
C307  H163  1.082736 S    
C84   N47   1.357569 A    
C325  H181  1.082736 S    
C306  H162  1.082736 S    
C167  C263  1.394802 A    
Zn3   O78   1.926425 S    
Zn6   O80   1.926425 S    
C302  C382  1.405363 A    
C275  C362  1.405363 A    
Zn14  O51   1.926425 S    
C250  C346  1.405363 A    
O27   C110  1.279437 A    
C254  C350  1.405363 A    
O77   C141  1.279437 A    
C96   N66   1.357572 A    
C87   C372  1.477093 S    
C164  C260  1.394802 A    
C149  H5    1.083013 S    
C208  H64   1.083013 S    
C25   C119  1.473746 S    
C51   N8    1.357569 A    
O89   C125  1.279439 A    
C184  H40   1.083013 S    
C222  H78   1.083013 S    
C331  H187  1.082736 S    
C180  C276  1.394802 A    
C39   C191  1.403997 A    
C309  H165  1.082733 S    
Zn29  O24   1.926425 S    
C227  H83   1.083013 S    
C40   C192  1.403999 A    
Zn30  O23   1.926425 S    
C6    C218  1.403997 A    
C64   C347  1.477093 S    
C1    C137  1.473746 S    
O24   C112  1.279437 A    
O13   C101  1.279434 A    
C3    C147  1.403997 A    
C184  C280  1.394802 A    
C295  C374  1.405363 A    
C189  H45   1.083010 S    
C327  C347  1.405363 A    
C318  H174  1.082736 S    
C35   C194  1.403997 A    
C328  C348  1.405361 A    
C25   C180  1.403997 A    
C279  H135  1.082736 S    
C258  H114  1.082736 S    
C60   C351  1.477093 S    
C322  H178  1.082736 S    
C59   C352  1.477093 S    
C33   C196  1.403999 A    
C11   C231  1.403997 A    
C34   C195  1.403997 A    
O29   C115  1.279437 A    
C173  H29   1.083013 S    
O92   C124  1.279437 A    
C262  H118  1.082736 S    
C313  H169  1.082733 S    
C172  H28   1.083013 S    
C18   C238  1.403997 A    
C255  H111  1.082736 S    
C37   C108  1.473746 S    
Zn27  O97   1.926425 S    
C257  H113  1.082736 S    
O40   C105  1.279434 A    
C86   N41   1.357569 A    
C155  C251  1.394802 A    
C18   C122  1.473746 S    
Zn1   O61   1.926425 S    
C65   N22   1.357569 A    
O60   C124  1.279437 A    
C68   C359  1.477093 S    
C283  C371  1.405363 A    
