data_mof_unit_21487.cif
_audit_creation_date              2012-12-10T16:57:04-0500
_audit_creation_method            fapswitch 2.2
_symmetry_space_group_name_H-M    P1
_symmetry_Int_Tables_number       1
_space_group_crystal_system       triclinic
_cell_length_a                    7.756636
_cell_length_b                    8.579072
_cell_length_c                    16.680084
_cell_angle_alpha                 91.544941
_cell_angle_beta                  81.702408
_cell_angle_gamma                 93.63875
_cell_volume                      1095.96012819

loop_
_atom_site_label
_atom_site_type_symbol
_atom_type_description
_atom_site_fract_x
_atom_site_fract_y
_atom_site_fract_z
_atom_type_partial_charge
C1    C     C_R   0.546151 0.794779 0.497868 0.974024
C2    C     C_R   0.453854 0.205217 0.502061 0.970204
C3    C     C_2   0.570514 0.958187 0.496638 -0.383708
C4    C     C_2   0.429500 0.041817 0.503168 -0.380108
C5    C     C_R   0.479468 0.502783 0.654390 0.877637
C6    C     C_R   0.518526 0.486688 0.346098 0.875977
C7    C     C_R   0.471941 0.495952 0.741841 -0.095128
C8    C     C_R   0.513430 0.428309 0.263581 -0.056705
C9    C     C_R   0.623630 0.468583 0.774572 -0.215593
C10   C     C_R   0.351409 0.381239 0.239682 -0.289433
C11   C     C_R   0.617229 0.447135 0.857354 0.259566
C12   C     C_R   0.342526 0.314103 0.163439 0.258159
C13   C     C_R   0.454538 0.455328 0.907583 0.100575
C14   C     C_R   0.498486 0.299907 0.109724 0.153708
C15   C     C_R   0.306069 0.493053 0.875468 -0.199706
C16   C     C_R   0.660483 0.335403 0.135466 -0.230891
C17   C     C_R   0.313812 0.511331 0.792773 -0.198151
C18   C     C_R   0.668036 0.399722 0.212248 -0.201371
C19   C     C_2   0.433612 0.426342 0.993820 -0.217855
C20   C     C_2   0.493906 0.300365 0.023154 -0.219474
H1    H     H_    0.747803 0.463742 0.735746 0.166875
H2    H     H_    0.230966 0.396079 0.280206 0.152610
H3    H     H_    0.794128 0.431229 0.230591 0.151305
H4    H     H_    0.195829 0.535081 0.768751 0.173239
H5    H     H_    0.562292 0.214544 0.983886 0.162857
H6    H     H_    0.366467 0.511578 0.034448 0.164302
H7    H     H_    0.182697 0.503799 0.914393 0.158177
H8    H     H_    0.780394 0.326131 0.093764 0.149714
H9    H     H_    0.703702 0.009152 0.490420 0.179866
H10   H     H_    0.296312 0.990858 0.509372 0.179571
H11   H     H_    0.022657 0.381294 0.439597 0.185712
H12   H     H_    0.977333 0.618675 0.560414 0.188907
N1    N     N_2   0.953500 0.457650 0.478520 -0.175740
N2    N     N_2   0.046500 0.542350 0.521480 -0.175575
O1    O     O_R   0.388470 0.738640 0.505270 -0.609128
O2    O     O_R   0.611530 0.261360 0.494730 -0.611090
O3    O     O_R   0.679650 0.711510 0.491500 -0.627205
O4    O     O_R   0.320350 0.288490 0.508500 -0.630208
O5    O     O_R   0.337210 0.515200 0.623500 -0.619154
O6    O     O_R   0.662790 0.484800 0.376500 -0.619961
O7    O     O_R   0.628380 0.488060 0.609730 -0.629670
O8    O     O_R   0.371620 0.511940 0.390270 -0.626304
Zn1   Zn    Zn3+2 0.305580 0.518120 0.509190 0.937551
Zn2   Zn    Zn3+2 0.694420 0.481880 0.490810 0.936977
N3    N     N_2   0.176802 0.276015 0.138070 -0.314180
H13   H     H_    0.073577 0.326472 0.172945 0.211371
C21   C     C_3   0.139884 0.111646 0.122063 -0.785859
H14   H     H_    0.011838 0.094765 0.099698 0.236096
H15   H     H_    0.134363 0.044601 0.178532 0.237334
H16   H     H_    0.240936 0.065829 0.074915 0.250662
N4    N     N_2   0.775729 0.427711 0.889219 -0.324571
H17   H     H_    0.775413 0.453558 0.949897 0.231253
C22   C     C_3   0.867496 0.290378 0.860705 -0.825380
H18   H     H_    0.979244 0.279351 0.894480 0.245857
H19   H     H_    0.919570 0.299749 0.795351 0.251796
H20   H     H_    0.779413 0.183299 0.870399 0.240265

loop_
_geom_bond_atom_site_label_1
_geom_bond_atom_site_label_2
_ccdc_geom_bond_type
C16   H8    S    
C2    C4    S    
H11   N1    S    
C15   C17   A    
C14   C20   S    
O1    Zn1   S    
C2    O4    A    
C22   H19   S    
C15   H7    S    
C19   C20   D    
C1    O3    A    
O3    Zn2   S    
C13   C15   A    
N1    N2    D    
C4    H10   S    
O4    Zn1   S    
C21   H15   S    
N3    H13   S    
C10   H2    S    
C9    C11   A    
C9    H1    S    
C10   C12   A    
C16   C18   A    
C12   C14   A    
C21   H16   S    
O6    Zn2   S    
N3    C21   S    
C6    O8    A    
O7    Zn2   S    
C14   C16   A    
O2    Zn2   S    
C17   H4    S    
C11   N4    S    
O8    Zn1   S    
C13   C19   S    
C3    C4    D    
C21   H14   S    
C7    C9    A    
C11   C13   A    
C6    O6    A    
N4    H17   S    
C1    O1    A    
C3    H9    S    
C20   H5    S    
C22   H20   S    
C2    O2    A    
C1    C3    S    
C5    C7    S    
C5    O5    A    
C5    O7    A    
C6    C8    S    
N4    C22   S    
O5    Zn1   S    
N1    Zn2   S    
C8    C10   A    
C8    C18   A    
N2    Zn1   S    
C18   H3    S    
C22   H18   S    
H12   N2    S    
C12   N3    S    
C7    C17   A    
C19   H6    S    
