data_mof_unit_9847.cif
_audit_creation_date              2012-12-11T18:09:18-0500
_audit_creation_method            fapswitch 2.2
_symmetry_space_group_name_H-M    P1
_symmetry_Int_Tables_number       1
_space_group_crystal_system       triclinic
_cell_length_a                    8.30874
_cell_length_b                    12.741008
_cell_length_c                    18.995531
_cell_angle_alpha                 99.795369
_cell_angle_beta                  91.438766
_cell_angle_gamma                 98.434334
_cell_volume                      1957.5655938

loop_
_atom_site_label
_atom_site_type_symbol
_atom_type_description
_atom_site_fract_x
_atom_site_fract_y
_atom_site_fract_z
_atom_type_partial_charge
Ba1   Ba    Ba6+2 0.853180 0.547790 0.465300 1.666028
Ba2   Ba    Ba6+2 0.336650 0.452300 0.534710 1.663983
C1    C     C_3   0.759465 0.780002 0.147878 -0.380378
C2    C     C_R   0.019882 0.541558 0.726614 0.054156
C3    C     C_R   0.847926 0.410100 0.810652 -0.167165
C4    C     C_3   0.189438 0.808491 0.277645 0.330935
C5    C     C_R   0.783098 0.419570 0.743970 0.000705
C6    C     C_R   0.332999 0.593899 0.190307 -0.163839
C7    C     C_R   0.397442 0.586195 0.257869 -0.017610
C8    C     C_R   0.125779 0.444745 0.200233 -0.158698
C9    C     C_R   0.162872 0.463505 0.274957 0.076222
C10   C     C_R   0.978405 0.486834 0.845484 0.003999
C11   C     C_R   0.877648 0.474820 0.699436 -0.233504
C12   C     C_3   0.731309 0.756824 0.222899 0.307396
C13   C     C_R   0.200742 0.517007 0.156253 0.013828
C14   C     C_R   0.300937 0.533218 0.302650 -0.197310
C15   C     C_R   0.752981 0.431968 0.962269 -0.103742
C16   C     C_3   0.205624 0.869409 0.215315 -0.353180
C17   C     C_R   0.648160 0.389309 0.009723 0.426483
C18   C     C_R   0.697840 0.412150 0.082163 -0.138520
C19   C     C_R   0.853695 0.465729 0.103342 -0.125316
C20   C     C_R   0.975159 0.480071 0.053390 0.010504
C21   C     C_R   0.921264 0.467161 0.979254 -0.027455
C22   C     C_R   0.143706 0.511087 0.076766 -0.007382
C23   C     C_3   0.452358 0.263974 0.313810 0.270775
C24   C     C_R   0.255364 0.533270 0.022474 0.059365
C25   C     C_R   0.200755 0.518648 0.948422 0.025089
C26   C     C_R   0.032940 0.490588 0.925221 -0.007651
C27   C     C_R   0.424851 0.566743 0.038310 -0.028114
C28   C     C_3   0.318101 0.802946 0.696550 0.724809
C29   C     C_R   0.528114 0.602834 0.988100 -0.087275
C30   C     C_R   0.477073 0.580281 0.916958 -0.054874
C31   C     C_R   0.320525 0.527320 0.897585 -0.030933
C32   C     C_R   0.763291 0.182968 0.528861 -0.261911
C33   C     C_R   0.430366 0.809339 0.474286 -0.278641
C34   C     C_3   0.346742 0.213400 0.245627 -0.242552
C35   C     C_R   0.399274 0.985621 0.452060 -0.127776
C36   C     C_R   0.338119 0.877121 0.447439 -0.024170
C37   C     C_R   0.577972 0.850577 0.512454 0.058627
C38   C     C_R   0.640626 0.962665 0.520746 -0.044255
C39   C     C_R   0.550147 0.030286 0.488469 -0.071043
C40   C     C_3   0.359611 0.803537 0.775585 -0.299768
C41   C     C_R   0.614226 0.140351 0.492126 0.023563
C42   C     C_R   0.854467 0.118016 0.560074 0.002162
C43   C     C_R   0.791679 0.008942 0.557869 -0.077594
C44   C     C_3   0.905042 0.190885 0.336225 0.238226
C45   C     C_3   0.044121 0.222339 0.732386 0.349826
C46   C     C_3   0.817726 0.116591 0.268947 0.237345
C47   C     C_3   0.730453 0.701149 0.678001 0.300386
C48   C     C_3   0.784893 0.737603 0.756634 -0.418794
C49   C     C_1   0.972019 0.127460 0.383524 0.305953
C50   C     C_3   0.645949 0.984563 0.312236 0.184823
C51   C     C_1   0.436220 0.156321 0.189677 0.218404
C52   C     C_3   0.420235 0.264469 0.020813 0.156547
C53   C     C_3   0.253786 0.920411 0.621639 0.279454
C54   C     C_3   0.070799 0.191888 0.805452 -0.348809
C55   C     C_3   0.521379 0.184066 0.718642 0.367442
C56   C     C_3   0.551917 0.115433 0.774316 -0.348993
C57   C     C_R   0.056854 0.558782 0.801590 -0.156179
H1    H     H_    0.820001 0.812851 0.260893 0.142856
H2    H     H_    0.781774 0.868312 0.148909 0.130221
H3    H     H_    0.909918 0.783863 0.761800 0.135734
H4    H     H_    0.783061 0.666812 0.783549 0.066408
H5    H     H_    0.702051 0.789727 0.784241 0.117354
H6    H     H_    0.605956 0.771717 0.235756 -0.055104
H7    H     H_    0.649345 0.745893 0.112945 0.094488
H8    H     H_    0.383079 0.320732 0.347083 0.036584
H9    H     H_    0.567289 0.309021 0.299985 0.079007
H10   H     H_    0.244806 0.154517 0.258626 0.132958
H11   H     H_    0.296471 0.277289 0.223271 0.028062
H12   H     H_    0.389807 0.724408 0.783781 0.055598
H13   H     H_    0.865266 0.744187 0.125380 0.119300
H14   H     H_    0.283809 0.831608 0.175006 0.070071
H15   H     H_    0.103072 0.307024 0.734120 0.061520
H16   H     H_    0.910943 0.214605 0.720724 -0.065701
H17   H     H_    0.202972 0.198926 0.819124 0.158271
H18   H     H_    0.017280 0.246183 0.847295 0.066145
H19   H     H_    0.012157 0.107628 0.805079 0.111779
H20   H     H_    0.636115 0.199442 0.690517 -0.099582
H21   H     H_    0.428379 0.137645 0.678084 0.099397
H22   H     H_    0.641254 0.162149 0.816732 0.093412
H23   H     H_    0.466247 0.865995 0.794979 0.081690
H24   H     H_    0.602118 0.043015 0.748618 0.106330
H25   H     H_    0.130118 0.724366 0.257755 0.053273
H26   H     H_    0.436398 0.089486 0.799007 0.144437
H27   H     H_    0.151003 0.624346 0.824218 0.050045
H28   H     H_    0.791747 0.344018 0.834674 0.065586
H29   H     H_    0.388887 0.658840 0.165245 0.048183
H30   H     H_    0.034745 0.376712 0.177989 0.058510
H31   H     H_    0.833898 0.471919 0.644906 0.059659
H32   H     H_    0.345068 0.535325 0.357068 0.061044
H33   H     H_    0.693759 0.442249 0.913962 0.101099
H34   H     H_    0.255173 0.822757 0.808180 0.084898
H35   H     H_    0.613140 0.396467 0.122716 0.097786
H36   H     H_    0.314826 0.808686 0.299920 -0.095374
H37   H     H_    0.875788 0.495775 0.159568 0.156094
H38   H     H_    0.486263 0.557964 0.086559 0.072207
H39   H     H_    0.655064 0.633772 0.002704 0.064628
H40   H     H_    0.563525 0.595400 0.876879 0.087599
H41   H     H_    0.293920 0.492165 0.842488 0.122285
H42   H     H_    0.326616 0.033789 0.427172 0.137082
H43   H     H_    0.863957 0.961293 0.583585 0.094258
H44   H     H_    0.813546 0.266496 0.529562 0.060633
H45   H     H_    0.819233 0.238457 0.366207 -0.053393
H46   H     H_    0.380953 0.724837 0.469659 0.068552
H47   H     H_    0.084412 0.869032 0.189705 0.121150
H48   H     H_    0.261004 0.954357 0.234775 0.120851
H49   H     H_    0.407988 0.765676 0.662606 -0.006363
H50   H     H_    0.641664 0.906319 0.330458 0.022438
H51   H     H_    0.535899 0.982452 0.277519 0.070780
H52   H     H_    0.648030 0.043394 0.361574 0.026300
H53   H     H_    0.374332 0.300113 0.072525 0.037682
H54   H     H_    0.506864 0.208053 0.028542 0.054877
H55   H     H_    0.313632 0.216588 0.987950 0.069951
H56   H     H_    0.705979 0.147357 0.255310 0.039672
H57   H     H_    0.329387 0.983869 0.598922 0.041280
H58   H     H_    0.131848 0.943867 0.631080 0.098351
H59   H     H_    0.239068 0.845300 0.581127 -0.019545
H60   H     H_    0.894119 0.122177 0.222084 0.081421
H61   H     H_    0.827267 0.662734 0.649734 0.037370
H62   H     H_    0.617736 0.641544 0.673997 0.073276
N1    N     N_1   0.025529 0.075529 0.419442 -0.243148
N2    N     N_1   0.505018 0.110489 0.145075 -0.324460
O1    O     O_2   0.875110 0.423180 0.326290 -0.462172
O2    O     O_2   0.189982 0.124293 0.549602 -0.473927
O3    O     O_3   0.114199 0.152738 0.681107 -0.604310
O4    O     O_3   0.123410 0.433040 0.414950 -0.476321
O5    O     O_3   0.577950 0.634370 0.536140 -0.498506
O6    O     O_2   0.341900 0.231310 0.465740 -0.433426
O7    O     O_3   0.491379 0.182447 0.349245 -0.682658
O8    O     O_2   0.483293 0.486317 0.753607 -0.508221
O9    O     O_3   0.461501 0.277231 0.751992 -0.585556
O10   O     O_3   0.661010 0.625070 0.369680 -0.464138
O11   O     O_2   0.639594 0.471865 0.259770 -0.505872
O12   O     O_3   0.700831 0.790857 0.648942 -0.643355
O13   O     O_3   0.038008 0.253635 0.313368 -0.691027
O14   O     O_3   0.760108 0.652183 0.226369 -0.601254
O15   O     O_2   0.847800 0.768730 0.534310 -0.449713
O16   O     O_3   0.082250 0.684470 0.405440 -0.480292
O17   O     O_2   0.007753 0.876859 0.458877 -0.455247
O18   O     O_3   0.787992 0.006231 0.275092 -0.671387
O19   O     O_3   0.489579 0.346021 0.984170 -0.645730
O20   O     O_3   0.328510 0.911647 0.687534 -0.697778
O21   O     O_3   0.090967 0.858485 0.327843 -0.577358
O22   O     O_2   0.314600 0.576860 0.673750 -0.497784
O23   O     O_3   0.066300 0.567050 0.585060 -0.470330
O24   O     O_3   0.528700 0.375020 0.630330 -0.462558
O25   O     O_3   0.159068 0.748507 0.677359 -0.667289
O26   O     O_3   0.611760 0.365720 0.463870 -0.477303
O27   O     O_3   0.107460 0.315620 0.594570 -0.474443
P1    P     P_3+3 0.042930 0.392230 0.337410 0.971157
P2    P     P_3+3 0.672230 0.754900 0.555730 0.972301
P3    P     P_3+3 0.130802 0.823757 0.410867 0.995206
P4    P     P_3+3 0.146790 0.607860 0.662600 0.947960
P5    P     P_3+3 0.063889 0.177098 0.596028 0.961586
P6    P     P_3+3 0.615249 0.590854 0.277619 0.941108
P7    P     P_3+3 0.520593 0.229293 0.441586 0.930510
P8    P     P_3+3 0.564631 0.389076 0.721592 0.956745

loop_
_geom_bond_atom_site_label_1
_geom_bond_atom_site_label_2
_ccdc_geom_bond_type
Ba2   O27   S    
C2    P4    S    
C54   H17   S    
C11   H31   S    
O10   P6    S    
C48   H5    S    
C55   H20   S    
C55   O9    S    
C17   C18   A    
C23   H8    S    
Ba1   O5    S    
O6    P7    D    
C5    P8    S    
C25   C31   A    
Ba2   O22   S    
C15   H33   S    
C24   C25   A    
C15   C21   A    
C10   C26   S    
O7    P7    S    
C7    C14   A    
C22   C24   A    
C8    C13   A    
C47   H61   S    
C53   H57   S    
O16   P3    S    
O12   P2    S    
C40   H34   S    
C52   H54   S    
C2    C11   A    
Ba2   O6    S    
C54   H19   S    
Ba1   P2    S    
Ba1   Ba2   S    
C29   H39   S    
O21   P3    S    
C16   H48   S    
C34   C51   S    
C4    H25   S    
O4    P1    S    
C10   C57   A    
O5    P2    S    
O11   P6    D    
C8    H30   S    
C6    C7    A    
C40   H23   S    
Ba1   O26   S    
Ba1   O16   S    
O17   P3    D    
Ba2   O4    S    
Ba2   O26   S    
C47   O12   S    
Ba2   P4    S    
C19   C20   A    
C48   H4    S    
C39   C41   A    
C55   H21   S    
Ba1   O23   S    
C23   H9    S    
O25   P4    S    
Ba1   O10   S    
C23   O7    S    
C50   O18   S    
C34   H11   S    
C46   H60   S    
C1    H2    S    
C38   C43   A    
C4    C16   S    
C44   C46   S    
C53   O20   S    
C32   C41   A    
C33   C36   A    
C32   C42   A    
C7    P6    S    
C3    C10   A    
C51   N2    T    
C56   H22   S    
C37   C38   A    
C3    C5    A    
C50   H52   S    
O15   P2    D    
Ba2   O24   S    
C44   H45   S    
C37   P2    S    
O9    P8    S    
C54   H18   S    
O14   P6    S    
C6    H29   S    
O8    P8    D    
C33   C37   A    
C16   H47   S    
C35   C36   A    
C33   H46   S    
C9    C14   A    
C29   C30   A    
O23   P4    S    
C12   O14   S    
C50   H51   S    
C47   H62   S    
C52   H53   S    
C21   C26   A    
C1    C12   S    
C24   C27   A    
C46   H56   S    
O22   P4    D    
C9    P1    S    
C38   C39   A    
C52   O19   S    
O1    P1    D    
C47   C48   S    
C6    C13   A    
O27   P5    S    
C48   H3    S    
C20   C22   A    
C1    H7    S    
Ba2   O23   S    
C4    O21   S    
C56   H26   S    
O13   P1    S    
C34   H10   S    
C45   O3    S    
C53   H58   S    
C18   H35   S    
C13   C22   S    
C28   H49   S    
C42   P5    S    
C43   H43   S    
C42   C43   A    
Ba1   O4    S    
C45   H15   S    
C41   P7    S    
C28   O25   S    
C19   H37   S    
C17   O19   S    
C12   H1    S    
C32   H44   S    
C30   H40   S    
C27   H38   S    
C31   H41   S    
C16   H14   S    
C1    H13   S    
C57   H27   S    
C45   H16   S    
C27   C29   A    
C56   H24   S    
C30   C31   A    
C35   H42   S    
C55   C56   S    
C50   H50   S    
C52   H55   S    
C2    C57   A    
C40   H12   S    
C15   C17   A    
C12   H6    S    
C46   O18   S    
Ba1   P1    S    
C44   C49   S    
C35   C39   A    
Ba1   O1    S    
C8    C9    A    
C28   O20   S    
C23   C34   S    
C44   O13   S    
C3    H28   S    
C5    C11   A    
C18   C19   A    
C14   H32   S    
C4    H36   S    
C25   C26   A    
C49   N1    T    
C20   C21   A    
C28   C40   S    
C36   P3    S    
O24   P8    S    
O26   P7    S    
C53   H59   S    
Ba1   O15   S    
O2    P5    D    
C45   C54   S    
O3    P5    S    
Ba2   O5    S    
