data_mof_unit_11535.cif
_audit_creation_date              2013-03-05T16:06:22-0500
_audit_creation_method            fapswitch 2.2
_symmetry_space_group_name_H-M    P1
_symmetry_Int_Tables_number       1
_space_group_crystal_system       triclinic
_cell_length_a                    10.823602
_cell_length_b                    9.508652
_cell_length_c                    27.822867
_cell_angle_alpha                 90.000702
_cell_angle_beta                  90.005234
_cell_angle_gamma                 90.000017
_cell_volume                      2863.47005222

loop_
_atom_site_label
_atom_site_type_symbol
_atom_site_description
_atom_site_fract_x
_atom_site_fract_y
_atom_site_fract_z
_atom_type_partial_charge
O1    O     O_R   0.319640 0.618740 0.500000 -0.594691
O2    O     O_R   0.680360 0.381260 0.500000 -0.592163
O3    O     O_R   0.680360 0.618740 0.500000 -0.594680
O4    O     O_R   0.319640 0.381260 0.500000 -0.592163
C1    C     C_R   0.262037 0.499992 0.499971 0.785303
C2    C     C_R   0.737962 0.499992 0.500025 0.785298
O5    O     O_R   0.500020 0.618770 0.430260 -0.580627
O6    O     O_R   0.499980 0.381230 0.569740 -0.564415
O7    O     O_R   0.499980 0.618770 0.569740 -0.580620
O8    O     O_R   0.500020 0.381230 0.430260 -0.564424
C3    C     C_R   0.497801 0.500077 0.407454 0.796838
C4    C     C_R   0.502201 0.500078 0.592544 0.796841
Cu1   Cu    Cu3+1 0.500000 0.640660 0.500000 0.938462
Cu2   Cu    Cu3+1 0.500000 0.359340 0.500000 0.957808
C5    C     C_R   0.395090 0.536495 0.178371 0.534692
C6    C     C_R   0.604933 0.536608 0.821628 0.534679
O9    O     O_2   0.288878 0.545876 0.203598 -0.536865
O10   O     O_2   0.711138 0.546103 0.796401 -0.536883
N1    N     N_R   0.505412 0.523458 0.202023 -0.464052
N2    N     N_R   0.494622 0.523465 0.797976 -0.464040
C7    C     C_R   0.614734 0.517440 0.177415 0.535950
C8    C     C_R   0.385304 0.517339 0.822584 0.535944
C9    C     C_R   0.560123 0.620853 0.281004 -0.105483
C10   C     C_R   0.439784 0.620774 0.718995 -0.105467
C11   C     C_R   0.556381 0.614461 0.330970 -0.241803
C12   C     C_R   0.443516 0.614379 0.669029 -0.241742
C13   C     C_R   0.441187 0.394523 0.326714 -0.042184
C14   C     C_R   0.558952 0.394604 0.673281 -0.042177
C15   C     C_R   0.447952 0.401158 0.276462 -0.138469
C16   C     C_R   0.552204 0.401245 0.723533 -0.138471
C17   C     C_R   0.505942 0.514339 0.253552 0.335751
C18   C     C_R   0.494096 0.514346 0.746446 0.335703
C19   C     C_R   0.503001 0.533815 0.101856 -0.044622
C20   C     C_R   0.497025 0.533819 0.898143 -0.044621
C21   C     C_R   0.391774 0.540705 0.127962 -0.020318
C22   C     C_R   0.608246 0.540814 0.872037 -0.020314
C23   C     C_R   0.279792 0.552018 0.103354 -0.144083
C24   C     C_R   0.720221 0.552221 0.896645 -0.144090
C25   C     C_R   0.615605 0.523462 0.126969 -0.020847
C26   C     C_R   0.384428 0.523364 0.873030 -0.020843
C27   C     C_R   0.497615 0.501877 0.354473 -0.084025
C28   C     C_R   0.502397 0.501879 0.645524 -0.084006
H1    H     H_    0.404175 0.320470 0.254829 0.150585
H2    H     H_    0.596081 0.320622 0.745165 0.150603
H3    H     H_    0.193062 0.560029 0.122609 0.187727
H4    H     H_    0.806945 0.560311 0.877391 0.187727
C29   C     C_R   0.385132 0.533961 0.974988 0.043549
C30   C     C_R   0.614893 0.534058 0.025012 0.043551
C31   C     C_R   0.613297 0.541061 0.973978 0.043304
C32   C     C_R   0.386723 0.540961 0.026021 0.043305
C33   C     C_R   0.498469 0.536561 0.949244 0.067822
C34   C     C_R   0.501554 0.536559 0.050755 0.067821
C35   C     C_R   0.273777 0.522205 0.948576 -0.204571
C36   C     C_R   0.726257 0.522396 0.051423 -0.204568
C37   C     C_R   0.273724 0.517023 0.898681 -0.145031
C38   C     C_R   0.726313 0.517217 0.101318 -0.145028
O11   O     O_2   0.277941 0.503781 0.798345 -0.535894
O12   O     O_2   0.722106 0.503995 0.201654 -0.535883
C39   C     C_R   0.277047 0.552313 0.053454 -0.205146
C40   C     C_R   0.722966 0.552510 0.946546 -0.205150
H5    H     H_    0.399759 0.697737 0.648650 0.163816
H6    H     H_    0.600032 0.697886 0.351349 0.163831
H7    H     H_    0.395437 0.709196 0.736439 0.149410
H8    H     H_    0.604369 0.709337 0.263562 0.149377
H9    H     H_    0.185922 0.507393 0.880260 0.186879
H10   H     H_    0.814122 0.507663 0.119739 0.186875
H11   H     H_    0.184500 0.513104 0.965341 0.135893
H12   H     H_    0.815539 0.513369 0.034658 0.135887
H13   H     H_    0.186979 0.564035 0.037530 0.136168
H14   H     H_    0.813026 0.564307 0.962469 0.136176
C41   C     C_R   0.063869 0.372186 0.500070 -0.204118
C42   C     C_R   0.936122 0.627824 0.500088 -0.185945
C43   C     C_R   0.936131 0.372187 0.499825 -0.204152
C44   C     C_R   0.063878 0.627825 0.499985 -0.185956
H15   H     H_    0.111932 0.272253 0.500170 0.143820
H16   H     H_    0.888053 0.727758 0.500194 0.140654
H17   H     H_    0.888068 0.272256 0.499655 0.143862
H18   H     H_    0.111947 0.727757 0.499950 0.140680
C45   C     C_R   0.871780 0.499992 0.499991 -0.009781
C46   C     C_R   0.128220 0.499991 0.499997 -0.009765
C47   C     C_R   0.404336 0.074410 0.480227 -0.014165
C48   C     C_R   0.595291 0.925666 0.520167 -0.025080
C49   C     C_R   0.595661 0.074411 0.519775 -0.014242
C50   C     C_R   0.404706 0.925665 0.479835 -0.025119
H19   H     H_    0.327469 0.130462 0.464751 0.139750
H20   H     H_    0.671498 0.870011 0.536589 0.117580
H21   H     H_    0.672523 0.130464 0.535256 0.139788
H22   H     H_    0.328498 0.870007 0.463414 0.117593
N3    N     N_R   0.500000 0.852070 0.500000 -0.157825
N4    N     N_R   0.500000 0.147930 0.500000 -0.161616
C51   C     C_R   0.364624 0.281750 0.348085 0.128435
C52   C     C_R   0.254487 0.315557 0.372193 -0.095856
C53   C     C_R   0.174975 0.208795 0.387634 -0.150183
C54   C     C_R   0.205497 0.067839 0.379655 -0.151747
C55   C     C_R   0.315805 0.033375 0.356332 -0.130851
C56   C     C_R   0.394787 0.139858 0.340265 -0.134501
H23   H     H_    0.228775 0.424395 0.377892 0.113228
H24   H     H_    0.089364 0.235286 0.405548 0.140715
H25   H     H_    0.144079 0.985355 0.391818 0.129343
H26   H     H_    0.339585 0.924182 0.350331 0.142450
H27   H     H_    0.478710 0.111952 0.321320 0.129424
C57   C     C_R   0.635603 0.281912 0.651903 0.128385
C58   C     C_R   0.745635 0.315844 0.627744 -0.095805
C59   C     C_R   0.825227 0.209176 0.612287 -0.150114
C60   C     C_R   0.794890 0.068187 0.620302 -0.151786
C61   C     C_R   0.684691 0.033596 0.643680 -0.130869
C62   C     C_R   0.605630 0.139986 0.659762 -0.134521
H28   H     H_    0.771206 0.424711 0.622014 0.113138
H29   H     H_    0.910760 0.235764 0.594335 0.140795
H30   H     H_    0.856371 0.985775 0.608128 0.129330
H31   H     H_    0.661060 0.924377 0.649712 0.142465
H32   H     H_    0.521796 0.111983 0.678748 0.129446

loop_
_geom_bond_atom_site_label_1
_geom_bond_atom_site_label_2
_geom_bond_distance
_ccdc_geom_bond_type
C49   H21   1.077781 S    
C60   H30   1.082432 S    
C53   C54   1.398152 A    
C13   C15   1.401488 A    
C62   H32   1.083224 S    
C55   C56   1.398527 A    
C42   H16   1.083345 S    
O3    C2    1.289828 A    
N1    C17   1.436319 S    
C8    O11   1.349682 S    
C19   C34   1.422081 A    
C30   C36   1.415975 A    
C20   C33   1.422077 A    
C19   C25   1.408265 A    
C31   C40   1.415476 A    
C20   C26   1.408261 A    
C32   C39   1.415474 A    
C21   C23   1.396151 A    
C12   H5    1.083521 S    
C10   C12   1.392113 A    
C42   C45   1.400886 A    
C59   H29   1.081906 S    
C36   H12   1.076504 S    
C61   C62   1.398542 A    
O7    Cu1   1.951501 S    
C41   C46   1.400700 A    
C4    C28   1.474148 S    
C51   C56   1.405088 A    
C5    N1    1.368971 A    
Cu2   N4    2.010225 S    
C31   C33   1.421254 A    
C32   C34   1.421251 A    
C13   C51   1.479941 S    
C58   H28   1.083333 S    
O3    Cu1   1.963240 S    
C6    N2    1.368971 A    
C29   C35   1.415978 A    
C44   C46   1.400889 A    
Cu1   Cu2   2.674974 S    
C15   H1    1.084153 S    
C16   H2    1.084177 S    
O2    C2    1.289691 A    
O2    Cu2   1.963240 S    
C5    C21   1.403559 A    
C59   C60   1.398142 A    
C37   H9    1.083556 S    
C52   H23   1.083339 S    
C29   C32   1.421554 A    
C61   H31   1.082650 S    
C35   C37   1.389101 A    
C36   C38   1.389101 A    
C41   H15   1.083310 S    
C56   H27   1.083257 S    
C42   C44   1.382784 A    
O8    Cu2   1.951501 S    
C11   C27   1.406515 A    
C51   C52   1.405149 A    
C41   C43   1.382608 A    
C55   H26   1.082656 S    
C29   C33   1.420794 A    
C48   H20   1.081258 S    
C9    C17   1.397479 A    
O5    C3    1.294968 A    
C10   C18   1.397478 A    
C13   C27   1.418267 A    
C25   C38   1.396017 A    
C7    C25   1.404753 A    
C40   H14   1.076558 S    
O6    C4    1.296228 A    
C26   C37   1.396017 A    
C8    C26   1.404745 A    
C43   C45   1.400703 A    
C57   C62   1.405098 A    
C1    C46   1.448388 S    
C48   N3    1.366830 A    
C23   C39   1.388685 A    
C39   H13   1.076560 S    
C24   C40   1.388685 A    
C47   N4    1.365049 A    
C9    H8    1.082956 S    
N2    C8    1.368312 A    
C10   H7    1.082997 S    
O1    C1    1.289829 A    
O1    Cu1   1.963240 S    
C50   N3    1.366826 A    
C23   H3    1.083567 S    
C22   C24   1.396152 A    
C47   C50   1.414410 A    
C12   C28   1.406494 A    
N2    C18   1.436342 S    
C5    O9    1.349933 S    
C49   N4    1.365054 A    
C30   C31   1.421555 A    
O6    Cu2   1.951496 S    
Cu1   N3    2.010224 S    
C50   H22   1.081254 S    
O4    C1    1.289691 A    
C60   C61   1.397880 A    
C14   C16   1.401496 A    
C7    O12   1.349668 S    
C15   C17   1.399495 A    
C6    C22   1.403553 A    
C16   C18   1.399500 A    
C2    C45   1.448388 S    
C54   H25   1.082408 S    
C38   H10   1.083560 S    
C14   C28   1.418286 A    
C52   C53   1.398510 A    
C19   C21   1.407604 A    
C3    C27   1.474176 S    
C20   C22   1.407602 A    
C11   H6    1.083472 S    
C9    C11   1.392125 A    
O4    Cu2   1.963240 S    
C57   C58   1.405150 A    
C35   H11   1.076507 S    
O7    C4    1.294951 A    
C24   H4    1.083566 S    
O8    C3    1.296254 A    
C14   C57   1.479983 S    
O5    Cu1   1.951496 S    
C6    O10   1.349954 S    
C48   C49   1.414410 A    
C44   H18   1.083340 S    
C58   C59   1.398530 A    
C43   H17   1.083306 S    
C30   C34   1.420788 A    
C53   H24   1.081945 S    
C54   C55   1.397895 A    
C47   H19   1.077786 S    
N1    C7    1.368310 A    
