data_mof_unit_27129.cif
_audit_creation_date              2012-12-10T16:49:28-0500
_audit_creation_method            fapswitch 2.2
_symmetry_space_group_name_H-M    P1
_symmetry_Int_Tables_number       1
_space_group_crystal_system       triclinic
_cell_length_a                    7.817916
_cell_length_b                    8.611488
_cell_length_c                    12.875771
_cell_angle_alpha                 89.434439
_cell_angle_beta                  89.355196
_cell_angle_gamma                 93.348502
_cell_volume                      865.26411949

loop_
_atom_site_label
_atom_site_type_symbol
_atom_type_description
_atom_site_fract_x
_atom_site_fract_y
_atom_site_fract_z
_atom_type_partial_charge
C1    C     C_R   0.455326 0.205858 0.499094 0.859485
C2    C     C_R   0.715890 0.547698 0.142159 0.247649
C3    C     C_R   0.594657 0.466605 0.872305 0.417328
C4    C     C_R   0.405345 0.533413 0.127696 0.417335
C5    C     C_R   0.581672 0.503764 0.976187 -0.148781
C6    C     C_R   0.418330 0.496255 0.023814 -0.148780
C7    C     C_2   0.433491 0.042936 0.513284 0.196588
C8    C     C_2   0.566509 0.957064 0.486716 0.196589
C9    C     C_R   0.544674 0.794142 0.500906 0.859483
C10   C     C_R   0.466139 0.489346 0.699415 0.950217
C11   C     C_R   0.533861 0.510658 0.300586 0.950214
C12   C     C_R   0.553116 0.533753 0.189135 -0.305055
C13   C     C_R   0.446886 0.466259 0.810866 -0.305048
C14   C     C_R   0.271769 0.451549 0.966685 0.447707
C15   C     C_R   0.728232 0.548470 0.033316 0.447705
C16   C     C_R   0.284112 0.452318 0.857842 0.247644
H1    H     H_    0.998527 0.616770 0.421527 0.222037
H2    H     H_    0.787355 0.938058 0.415259 0.351181
H3    H     H_    0.001473 0.383230 0.578473 0.222036
H4    H     H_    0.272248 0.670351 0.208134 0.339497
H5    H     H_    0.727761 0.329667 0.791873 0.339498
H6    H     H_    0.948273 0.503437 0.168537 0.418357
H7    H     H_    0.051731 0.496585 0.831463 0.418355
H8    H     H_    0.049118 0.337496 0.970588 0.371976
H9    H     H_    0.950881 0.662528 0.029414 0.371976
H10   H     H_    0.212645 0.061942 0.584741 0.351181
N1    N     N_2   0.054030 0.541640 0.471970 -0.140757
N2    N     N_2   0.945970 0.458360 0.528030 -0.140757
O1    O     O_R   0.609680 0.261530 0.506880 -0.569185
O2    O     O_3   0.750117 0.424525 0.833893 -0.694774
O3    O     O_3   0.859554 0.562614 0.202837 -0.729940
O4    O     O_3   0.140447 0.437403 0.797165 -0.729938
O5    O     O_3   0.123647 0.399166 0.018583 -0.708520
O6    O     O_3   0.876354 0.600856 0.981419 -0.708519
O7    O     O_3   0.287873 0.978487 0.564092 -0.754322
O8    O     O_3   0.712127 0.021512 0.435908 -0.754322
O9    O     O_R   0.390320 0.738470 0.493120 -0.569186
O10   O     O_R   0.323330 0.288220 0.488910 -0.641167
O11   O     O_R   0.676670 0.711780 0.511090 -0.641166
O12   O     O_R   0.619510 0.488830 0.661140 -0.608081
O13   O     O_R   0.380490 0.511170 0.338860 -0.608082
O14   O     O_R   0.333160 0.515520 0.643180 -0.555006
O15   O     O_R   0.666840 0.484480 0.356820 -0.555007
O16   O     O_3   0.249887 0.575499 0.166107 -0.694775
Zn1   Zn    Zn3+2 0.691200 0.482180 0.511990 1.033563
Zn2   Zn    Zn3+2 0.308800 0.517820 0.488010 1.033562

loop_
_geom_bond_atom_site_label_1
_geom_bond_atom_site_label_2
_ccdc_geom_bond_type
C3    O2    S    
O13   Zn2   S    
C11   O15   A    
H3    N2    S    
C4    C12   A    
H5    O2    S    
C15   O6    S    
H8    O5    S    
C3    C13   A    
H9    O6    S    
O11   Zn1   S    
C5    C15   A    
C2    C12   A    
H7    O4    S    
C14   O5    S    
C1    O1    A    
C7    C8    D    
C2    C15   A    
O15   Zn1   S    
C5    C6    A    
C7    O7    S    
C1    O10   A    
N1    Zn2   S    
C4    C6    A    
H4    O16   S    
C11   O13   A    
O14   Zn2   S    
O12   Zn1   S    
C14   C16   A    
N2    Zn1   S    
O10   Zn2   S    
C6    C14   A    
H6    O3    S    
H1    N1    S    
H10   O7    S    
C9    O11   A    
C10   O12   A    
C9    O9    A    
C8    O8    S    
C13   C16   A    
N1    N2    D    
C16   O4    S    
C2    O3    S    
C10   O14   A    
C4    O16   S    
O9    Zn2   S    
C1    C7    S    
H2    O8    S    
C11   C12   S    
O1    Zn1   S    
C8    C9    S    
C3    C5    A    
C10   C13   S    
