data_mof_unit_52358.cif
_audit_creation_date              2012-12-10T20:02:26-0500
_audit_creation_method            fapswitch 2.2
_symmetry_space_group_name_H-M    P1
_symmetry_Int_Tables_number       1
_space_group_crystal_system       triclinic
_cell_length_a                    10.79886
_cell_length_b                    15.017439
_cell_length_c                    14.12914
_cell_angle_alpha                 89.777125
_cell_angle_beta                  89.703247
_cell_angle_gamma                 90.110231
_cell_volume                      2291.28749191

loop_
_atom_site_label
_atom_site_type_symbol
_atom_type_description
_atom_site_fract_x
_atom_site_fract_y
_atom_site_fract_z
_atom_type_partial_charge
C1    C     C_R   0.499906 0.328472 0.500053 1.035551
C2    C     C_R   0.551789 0.815109 0.419633 0.336675
C3    C     C_R   0.497755 0.233863 0.498915 -0.358952
C4    C     C_R   0.504913 0.769418 0.499693 -0.362922
C5    C     C_R   0.602692 0.189029 0.466384 0.456348
C6    C     C_R   0.463647 0.816939 0.579808 0.455144
C7    C     C_R   0.601881 0.096910 0.467117 -0.237175
C8    C     C_R   0.462335 0.909369 0.576297 -0.312132
C9    C     C_R   0.494227 0.050523 0.492536 -0.108018
C10   C     C_R   0.499762 0.954180 0.494391 -0.086187
C11   C     C_R   0.487332 0.420163 0.105345 -0.303164
C12   C     C_R   0.501160 0.672696 0.499910 0.966591
C13   C     C_R   0.573441 0.560907 0.894011 -0.314909
C14   C     C_R   0.486246 0.421876 0.204732 -0.011953
C15   C     C_R   0.571231 0.559958 0.794675 0.013174
C16   C     C_R   0.259649 0.501595 0.500156 0.954194
C17   C     C_R   0.739887 0.497575 0.499629 0.966124
C18   C     C_R   0.515153 0.577789 0.203741 0.025730
C19   C     C_R   0.430121 0.439472 0.796029 0.021744
C20   C     C_R   0.516399 0.579110 0.104375 -0.293965
C21   C     C_R   0.429037 0.438357 0.895421 -0.308399
C22   C     C_R   0.502071 0.499578 0.053096 0.133316
C23   C     C_R   0.872003 0.495087 0.498387 -0.276050
C24   C     C_R   0.501504 0.499610 0.946469 0.141823
C25   C     C_R   0.178893 0.702177 0.236604 0.598994
C26   C     C_R   0.803094 0.245729 0.684770 0.620000
C27   C     C_R   0.132653 0.665467 0.322622 -0.259661
C28   C     C_R   0.863798 0.304903 0.622962 -0.148062
C29   C     C_R   0.124559 0.572916 0.334830 0.189158
C30   C     C_R   0.873617 0.395872 0.643952 0.127598
C31   C     C_R   0.161602 0.516296 0.261212 -0.125672
C32   C     C_R   0.824381 0.427800 0.729352 -0.086236
C33   C     C_R   0.205543 0.551794 0.176191 -0.252821
C34   C     C_R   0.126804 0.502506 0.500255 -0.302832
C35   C     C_R   0.766417 0.369547 0.792744 -0.211903
C36   C     C_R   0.213670 0.643877 0.164009 -0.186422
C37   C     C_R   0.755858 0.279178 0.771355 -0.260540
C38   C     C_R   0.934731 0.532291 0.420195 0.462606
C39   C     C_R   0.062969 0.467310 0.579635 0.470992
C40   C     C_3   0.187392 0.846963 0.296916 -0.384581
C41   C     C_3   0.698351 0.109819 0.698168 -0.319575
C42   C     C_3   0.860905 0.512832 0.268851 -0.247900
C43   C     C_3   0.126718 0.495756 0.730291 -0.245959
C44   C     C_3   0.219920 0.012828 0.471128 -0.292426
C45   C     C_R   0.935679 0.456722 0.574972 -0.168854
C46   C     C_3   0.486393 0.959418 0.270792 -0.277842
C47   C     C_3   0.210315 0.258429 0.481438 -0.230569
C48   C     C_3   0.730499 0.763383 0.356087 -0.192422
C49   C     C_3   0.733327 0.229103 0.346512 -0.310923
C50   C     C_3   0.487523 0.787096 0.737350 -0.274580
C51   C     C_R   0.062682 0.534940 0.420121 -0.160484
C52   C     C_R   0.385479 0.096429 0.519651 0.451223
C53   C     C_R   0.542981 0.907374 0.415069 0.436607
C54   C     C_R   0.388471 0.188966 0.524050 0.338135
H1    H     H_    0.247046 0.670333 0.097167 0.157457
H2    H     H_    0.374467 0.392035 0.757475 0.174063
H3    H     H_    0.525780 0.642466 0.068293 0.143868
H4    H     H_    0.370384 0.390597 0.931716 0.138870
H5    H     H_    0.099050 0.707289 0.379302 0.126737
H6    H     H_    0.902788 0.279853 0.557509 0.168770
H7    H     H_    0.153256 0.444747 0.269084 0.121561
H8    H     H_    0.828656 0.497973 0.746072 0.118032
H9    H     H_    0.232140 0.507853 0.119109 0.169284
H10   H     H_    0.729311 0.394515 0.858782 0.166868
H11   H     H_    0.259217 0.824096 0.347758 0.159484
H12   H     H_    0.711899 0.236295 0.823187 0.137436
H13   H     H_    0.094403 0.850584 0.330705 0.172418
H14   H     H_    0.211956 0.915630 0.274658 0.186527
H15   H     H_    0.610263 0.147501 0.690059 0.161539
H16   H     H_    0.715794 0.092595 0.773437 0.162264
H17   H     H_    0.687401 0.046122 0.659590 0.196235
H18   H     H_    0.920778 0.536753 0.210050 0.168460
H19   H     H_    0.764544 0.514108 0.242367 0.198346
H20   H     H_    0.883868 0.442073 0.285630 0.123738
H21   H     H_    0.035206 0.527070 0.742885 0.123380
H22   H     H_    0.195215 0.549366 0.715826 0.189911
H23   H     H_    0.686467 0.061516 0.450246 0.209371
H24   H     H_    0.153921 0.461909 0.796902 0.172763
H25   H     H_    0.253633 0.943809 0.462040 0.165223
H26   H     H_    0.231465 0.050779 0.403671 0.106721
H27   H     H_    0.119172 0.008873 0.486271 0.200399
H28   H     H_    0.409284 0.999297 0.301183 0.130408
H29   H     H_    0.452707 0.892822 0.247994 0.204894
H30   H     H_    0.520262 0.995007 0.206761 0.182569
H31   H     H_    0.259213 0.302473 0.429937 0.122449
H32   H     H_    0.129520 0.295664 0.509048 0.192097
H33   H     H_    0.173758 0.198628 0.444980 0.152284
H34   H     H_    0.428842 0.946453 0.636789 0.211133
H35   H     H_    0.752807 0.723234 0.420150 0.153579
H36   H     H_    0.774925 0.830194 0.360369 0.159396
H37   H     H_    0.770795 0.729051 0.293814 0.214409
H38   H     H_    0.811909 0.273785 0.328319 0.171134
H39   H     H_    0.652234 0.251098 0.304062 0.160209
H40   H     H_    0.760656 0.160268 0.326770 0.175172
H41   H     H_    0.586852 0.772528 0.722456 0.139138
H42   H     H_    0.456522 0.741120 0.794386 0.187823
H43   H     H_    0.476879 0.855963 0.764575 0.150727
H44   H     H_    0.477998 0.356750 0.069973 0.135668
H45   H     H_    0.632860 0.608377 0.929145 0.136386
H46   H     H_    0.474369 0.360248 0.243415 0.126004
H47   H     H_    0.627719 0.606660 0.755050 0.117680
H48   H     H_    0.525255 0.639514 0.241580 0.195585
N1    N     N_R   0.500000 0.499980 0.252470 -0.097238
N2    N     N_R   0.500000 0.500020 0.747530 -0.090862
O1    O     O_R   0.500010 0.369070 0.579480 -0.604885
O2    O     O_3   0.800309 0.156240 0.658993 -0.593788
O3    O     O_3   0.870279 0.572014 0.346385 -0.618365
O4    O     O_3   0.125756 0.432182 0.656586 -0.571474
O5    O     O_3   0.278815 0.052793 0.549233 -0.559148
O6    O     O_3   0.585025 0.951807 0.335107 -0.603508
O7    O     O_3   0.286852 0.235106 0.558227 -0.542482
O8    O     O_3   0.601452 0.770017 0.343306 -0.597280
O9    O     O_3   0.709754 0.235788 0.444458 -0.607069
O10   O     O_3   0.412756 0.772830 0.657151 -0.570657
O11   O     O_R   0.499990 0.630930 0.420520 -0.596106
O12   O     O_R   0.500010 0.369060 0.420520 -0.657552
O13   O     O_R   0.499990 0.630940 0.579480 -0.595964
O14   O     O_R   0.316760 0.500010 0.579480 -0.580657
O15   O     O_R   0.683240 0.499990 0.420520 -0.579567
O16   O     O_R   0.316760 0.500000 0.420520 -0.639054
O17   O     O_R   0.683240 0.500000 0.579480 -0.648859
O18   O     O_3   0.184278 0.792909 0.215706 -0.608582
Zn1   Zn    Zn3+2 0.500000 0.500010 0.606140 0.979029
Zn2   Zn    Zn3+2 0.500000 0.499990 0.393860 0.957962

loop_
_geom_bond_atom_site_label_1
_geom_bond_atom_site_label_2
_ccdc_geom_bond_type
C19   H2    S    
C53   O6    S    
C49   O9    S    
C23   C45   A    
C27   C29   A    
C31   H7    S    
C30   C45   S    
C26   O2    S    
N2    Zn1   S    
O15   Zn2   S    
C43   H24   S    
C2    O8    S    
C34   C51   A    
C17   C23   S    
C11   H44   S    
C47   H31   S    
C19   C21   A    
C1    C3    S    
C16   O16   A    
C29   C51   S    
C3    C54   A    
C50   H41   S    
C33   C36   A    
O1    Zn1   S    
C18   H48   S    
C38   O3    S    
C10   C53   A    
C6    O10   S    
C16   C34   S    
C46   H28   S    
C50   H43   S    
C48   H37   S    
C31   C33   A    
C35   H10   S    
C1    O12   A    
C15   N2    A    
C4    C12   S    
C25   O18   S    
C41   H17   S    
C12   O11   A    
C44   O5    S    
C48   H36   S    
C9    C52   A    
N1    Zn2   S    
C9    C10   S    
C52   C54   A    
C28   H6    S    
C43   H21   S    
C39   O4    S    
C42   H20   S    
C41   O2    S    
C34   C39   A    
C47   H32   S    
C44   H26   S    
C4    C6    A    
C44   H27   S    
C5    C7    A    
C6    C8    A    
C38   C51   A    
C40   H13   S    
C46   H29   S    
C13   C24   A    
C50   O10   S    
C47   H33   S    
C13   H45   S    
C2    C4    A    
C32   C35   A    
C16   O14   A    
C19   N2    A    
C33   H9    S    
C37   H12   S    
C42   H18   S    
C15   H47   S    
C46   H30   S    
C17   O17   A    
C48   O8    S    
C20   C22   A    
C40   H11   S    
C46   O6    S    
C7    H23   S    
C49   H40   S    
C22   C24   S    
C49   H38   S    
C35   C37   A    
C41   H15   S    
C42   O3    S    
C43   H22   S    
C7    C9    A    
C42   H19   S    
O11   Zn2   S    
O12   Zn2   S    
C5    O9    S    
C44   H25   S    
C3    C5    A    
C2    C53   A    
C26   C37   A    
C14   H46   S    
C25   C27   A    
C23   C38   A    
C40   O18   S    
C11   C22   A    
C26   C28   A    
C39   C45   A    
C48   H35   S    
C49   H39   S    
C13   C15   A    
O13   Zn1   S    
C32   H8    S    
C21   H4    S    
C29   C31   A    
C36   H1    S    
C27   H5    S    
C30   C32   A    
C18   N1    A    
C50   H42   S    
C14   N1    A    
C52   O5    S    
C47   O7    S    
C28   C30   A    
C11   C14   A    
C54   O7    S    
C18   C20   A    
O14   Zn1   S    
C43   O4    S    
O17   Zn1   S    
C17   O15   A    
C25   C36   A    
C12   O13   A    
C8    C10   A    
C40   H14   S    
C21   C24   A    
C8    H34   S    
C20   H3    S    
O16   Zn2   S    
C1    O1    A    
C41   H16   S    
