data_mof_unit_15134.cif
_audit_creation_date              2012-10-26T19:45:14-0400
_audit_creation_method            fapswitch 2.2
_symmetry_space_group_name_H-M    P1
_symmetry_Int_Tables_number       1
_space_group_crystal_system       triclinic
_cell_length_a                    9.515365
_cell_length_b                    10.835686
_cell_length_c                    13.888973
_cell_angle_alpha                 90.136116
_cell_angle_beta                  84.3311
_cell_angle_gamma                 90.006948
_cell_volume                      1425.02199802

loop_
_atom_site_label
_atom_site_type_symbol
_atom_type_description
_atom_site_fract_x
_atom_site_fract_y
_atom_site_fract_z
_atom_type_partial_charge
C1    C     C_R   0.500032 0.737951 0.500073 0.548234
C2    C     C_R   0.934562 0.426800 0.437215 0.008072
C3    C     C_1   0.539018 0.497639 0.213828 -0.044066
C4    C     C_1   0.461080 0.495969 0.786124 -0.042730
C5    C     C_2   0.560234 0.491296 0.022855 0.014404
C6    C     C_2   0.440645 0.486293 0.976963 0.015167
C7    C     C_1   0.449643 0.491752 0.872898 -0.060123
C8    C     C_1   0.550740 0.494970 0.126998 -0.060749
C9    C     C_R   0.627660 0.936181 0.500440 -0.142091
C10   C     C_R   0.372338 0.063809 0.499585 -0.141861
C11   C     C_R   0.627652 0.063869 0.500333 -0.141810
C12   C     C_R   0.499967 0.262046 0.499933 0.548473
C13   C     C_R   0.372346 0.936121 0.499688 -0.142137
C14   C     C_3   0.294346 0.478006 0.031031 -0.242994
C15   C     C_3   0.236624 0.606460 0.059516 -0.294897
C16   C     C_3   0.096190 0.597614 0.122605 -0.450636
C17   C     C_3   0.706668 0.496790 0.968697 -0.241469
C18   C     C_3   0.748308 0.629971 0.941960 -0.291801
C19   C     C_3   0.888373 0.634473 0.878125 -0.458007
C20   C     C_R   0.499987 0.128203 0.499929 0.019187
C21   C     C_R   0.500011 0.871789 0.500089 0.018833
C22   C     C_R   0.476570 0.499612 0.683061 0.550588
C23   C     C_R   0.523439 0.499817 0.316934 0.550319
C24   C     C_R   0.916598 0.573319 0.562758 0.008859
C25   C     C_R   0.083402 0.426751 0.437202 0.008216
C26   C     C_R   0.065436 0.573238 0.562770 0.008720
Cu1   Cu    Cu3+1 0.359340 0.499980 0.500000 0.931497
Cu2   Cu    Cu3+1 0.640660 0.500020 0.500000 0.931666
H1    H     H_    0.853338 0.632214 0.612929 0.105831
H2    H     H_    0.111269 0.550638 0.191871 0.159308
H3    H     H_    0.054249 0.691751 0.139015 0.146411
H4    H     H_    0.313203 0.657187 0.100408 0.172917
H5    H     H_    0.220961 0.659787 0.993115 0.157977
H6    H     H_    0.221235 0.431878 0.984523 0.135535
H7    H     H_    0.296635 0.419336 0.096430 0.145568
H8    H     H_    0.973665 0.591093 0.915423 0.153508
H9    H     H_    0.878840 0.585335 0.808767 0.152580
H10   H     H_    0.917458 0.731993 0.861901 0.138391
H11   H     H_    0.665526 0.673599 0.902222 0.169615
H12   H     H_    0.146667 0.367926 0.386986 0.105609
H13   H     H_    0.758208 0.684102 0.009066 0.161283
H14   H     H_    0.785079 0.457542 0.014527 0.132299
H15   H     H_    0.711363 0.438400 0.902517 0.150320
H16   H     H_    0.114348 0.631991 0.612984 0.106010
H17   H     H_    0.885628 0.368051 0.387014 0.105918
H18   H     H_    0.727468 0.888184 0.500799 0.127038
H19   H     H_    0.272530 0.111805 0.499231 0.127228
H20   H     H_    0.727460 0.111912 0.500589 0.127343
H21   H     H_    0.272538 0.888077 0.499430 0.127137
H22   H     H_    0.017738 0.545334 0.084626 0.146893
N1    N     N_R   0.147930 0.499970 0.499980 -0.221682
N2    N     N_R   0.852070 0.500030 0.500020 -0.221661
O1    O     O_R   0.381260 0.680340 0.500000 -0.507613
O2    O     O_R   0.618740 0.319660 0.500000 -0.507492
O3    O     O_R   0.618830 0.680370 0.500010 -0.507553
O4    O     O_R   0.381170 0.319630 0.499990 -0.507441
O5    O     O_R   0.364420 0.499960 0.637840 -0.495812
O6    O     O_R   0.635580 0.500040 0.362160 -0.496155
O7    O     O_R   0.601990 0.499990 0.637850 -0.497763
O8    O     O_R   0.398010 0.500010 0.362150 -0.498409

loop_
_geom_bond_atom_site_label_1
_geom_bond_atom_site_label_2
_ccdc_geom_bond_type
C14   H6    S    
C23   O6    A    
C18   H11   S    
Cu1   O1    S    
C1    C21   S    
C6    C7    S    
C19   H10   S    
Cu2   O6    S    
C6    C14   S    
Cu2   N2    S    
C3    C23   S    
C14   C15   S    
C24   N2    A    
C19   H8    S    
C12   C20   S    
C22   O5    A    
C25   N1    A    
C17   C18   S    
C1    O3    A    
C26   H16   S    
C15   H4    S    
C25   H12   S    
C26   N1    A    
C16   H3    S    
C23   O8    A    
C9    C11   A    
C9    C21   A    
C11   H20   S    
C12   O4    A    
C2    N2    A    
C4    C7    T    
C13   H21   S    
C17   H15   S    
Cu1   Cu2   S    
Cu2   O7    S    
Cu2   O3    S    
Cu1   N1    S    
C18   C19   S    
C2    C25   A    
Cu1   O8    S    
C2    H17   S    
C17   H14   S    
C5    C6    D    
C11   C20   A    
C10   H19   S    
C5    C8    S    
C5    C17   S    
C13   C21   A    
C15   C16   S    
C9    H18   S    
C4    C22   S    
C3    C8    T    
Cu1   O5    S    
C18   H13   S    
C10   C20   A    
C22   O7    A    
Cu2   O2    S    
Cu1   O4    S    
C1    O1    A    
C19   H9    S    
C24   H1    S    
C16   H2    S    
C14   H7    S    
C12   O2    A    
C24   C26   A    
C16   H22   S    
C15   H5    S    
C10   C13   A    
