data_mof_unit_44150.cif
_audit_creation_date              2012-12-11T15:41:04-0500
_audit_creation_method            fapswitch 2.2
_symmetry_space_group_name_H-M    P1
_symmetry_Int_Tables_number       1
_space_group_crystal_system       triclinic
_cell_length_a                    19.112174
_cell_length_b                    10.965147
_cell_length_c                    18.80389
_cell_angle_alpha                 89.945593
_cell_angle_beta                  90.440211
_cell_angle_gamma                 90.060243
_cell_volume                      3940.56957514

loop_
_atom_site_label
_atom_site_type_symbol
_atom_type_description
_atom_site_fract_x
_atom_site_fract_y
_atom_site_fract_z
_atom_type_partial_charge
C1    C     C_R   0.723797 0.964250 0.856929 0.562585
C2    C     C_R   0.276219 0.964362 0.143070 0.562015
C3    C     C_R   0.223797 0.464250 0.856929 0.562585
C4    C     C_R   0.776219 0.464362 0.143070 0.562015
C5    C     C_R   0.709661 0.500234 0.030462 -0.043801
C6    C     C_R   0.290416 0.500276 0.969432 -0.043766
C7    C     C_R   0.209661 0.000234 0.030462 -0.043803
C8    C     C_R   0.790416 0.000276 0.969432 -0.043766
C9    C     C_R   0.702836 0.485969 0.957769 0.047971
C10   C     C_R   0.297239 0.486172 0.042143 0.047917
C11   C     C_R   0.202836 0.985969 0.957769 0.047970
C12   C     C_R   0.797239 0.986171 0.042143 0.047917
C13   C     C_R   0.818749 0.402814 0.952534 -0.144939
C14   C     C_R   0.181228 0.403031 0.047538 -0.145010
C15   C     C_R   0.318749 0.902814 0.952534 -0.144939
C16   C     C_R   0.681227 0.903032 0.047538 -0.145010
C17   C     C_R   0.824014 0.410743 0.026109 -0.120158
C18   C     C_R   0.175972 0.410726 0.973951 -0.120466
C19   C     C_R   0.324014 0.910743 0.026109 -0.120158
C20   C     C_R   0.675972 0.910727 0.973951 -0.120466
C21   C     C_3   0.632839 0.486713 0.041609 -0.216072
C22   C     C_3   0.367232 0.486814 0.958309 -0.216099
C23   C     C_3   0.132839 0.986714 0.041609 -0.216069
C24   C     C_3   0.867232 0.986813 0.958309 -0.216099
C25   C     C_3   0.625672 0.468509 0.961269 0.167727
C26   C     C_3   0.374383 0.468774 0.038680 0.167857
C27   C     C_3   0.125673 0.968509 0.961269 0.167728
C28   C     C_3   0.874383 0.968773 0.038680 0.167858
C29   C     C_R   0.754422 0.427030 0.918547 -0.002387
C30   C     C_R   0.245602 0.427283 0.081463 -0.002133
C31   C     C_R   0.254422 0.927030 0.918547 -0.002387
C32   C     C_R   0.745602 0.927283 0.081463 -0.002133
C33   C     C_R   0.509171 0.170565 0.420642 0.021051
C34   C     C_R   0.516551 0.170565 0.568361 0.021477
C35   C     C_R   0.009172 0.670565 0.420642 0.021051
C36   C     C_R   0.016551 0.670565 0.568361 0.021476
C37   C     C_R   0.522686 0.279097 0.457665 0.028812
C38   C     C_R   0.525577 0.277963 0.530070 0.042232
C39   C     C_R   0.022686 0.779097 0.457665 0.028812
C40   C     C_R   0.025576 0.777963 0.530070 0.042232
C41   C     C_R   0.515788 0.059370 0.531460 -0.167810
C42   C     C_R   0.514283 0.059312 0.457201 -0.171789
C43   C     C_R   0.015788 0.559370 0.531460 -0.167810
C44   C     C_R   0.014283 0.559312 0.457201 -0.171789
C45   C     C_R   0.529922 0.177624 0.850745 0.544313
C46   C     C_R   0.470045 0.177754 0.149235 0.543531
C47   C     C_R   0.029922 0.677624 0.850745 0.544314
C48   C     C_R   0.970045 0.677754 0.149235 0.543531
C49   C     C_3   0.485912 0.400710 0.458132 -0.266832
C50   C     C_3   0.489039 0.397001 0.538211 -0.278034
C51   C     C_3   0.985912 0.900710 0.458132 -0.266832
C52   C     C_3   0.989039 0.897001 0.538211 -0.278033
C53   C     C_R   0.750894 0.400989 0.419552 0.017980
C54   C     C_R   0.250314 0.411671 0.578470 0.015092
C55   C     C_R   0.250894 0.900989 0.419552 0.017980
C56   C     C_R   0.750314 0.911671 0.578470 0.015092
C57   C     C_R   0.798803 0.329544 0.457971 0.024215
C58   C     C_R   0.214280 0.317385 0.544233 0.020645
C59   C     C_R   0.298803 0.829544 0.457971 0.024215
C60   C     C_R   0.714280 0.817385 0.544233 0.020645
C61   C     C_R   0.794280 0.319785 0.530516 0.031897
C62   C     C_R   0.216058 0.307731 0.471415 0.042997
C63   C     C_R   0.294280 0.819785 0.530516 0.031897
C64   C     C_R   0.716059 0.807731 0.471415 0.042997
C65   C     C_R   0.686617 0.432206 0.528966 -0.151963
C66   C     C_R   0.299318 0.471509 0.464072 -0.172343
C67   C     C_R   0.186617 0.932206 0.528966 -0.151963
C68   C     C_R   0.799318 0.971509 0.464072 -0.172343
C69   C     C_R   0.690588 0.441258 0.454578 -0.154084
C70   C     C_R   0.297483 0.482512 0.538250 -0.165785
C71   C     C_R   0.190588 0.941258 0.454578 -0.154084
C72   C     C_R   0.797483 0.982513 0.538250 -0.165785
C73   C     C_3   0.877078 0.334803 0.461847 -0.268530
C74   C     C_3   0.138962 0.279819 0.546313 -0.267637
C75   C     C_3   0.377078 0.834803 0.461847 -0.268530
C76   C     C_3   0.638962 0.779819 0.546313 -0.267637
C77   C     C_3   0.871488 0.323657 0.541638 -0.278783
C78   C     C_3   0.140631 0.273918 0.466044 -0.267603
C79   C     C_3   0.371488 0.823657 0.541638 -0.278783
C80   C     C_3   0.640631 0.773918 0.466044 -0.267603
C81   C     C_R   0.742152 0.379844 0.568027 0.018418
C82   C     C_R   0.254664 0.388513 0.429686 0.020923
C83   C     C_R   0.242152 0.879844 0.568027 0.018418
C84   C     C_R   0.754664 0.888513 0.429686 0.020923
C85   C     C_R   0.738919 0.365557 0.851824 0.549468
C86   C     C_R   0.261086 0.365691 0.148188 0.549059
C87   C     C_R   0.238919 0.865557 0.851824 0.549468
C88   C     C_R   0.761086 0.865691 0.148188 0.549059
C89   C     C_R   0.727866 0.955489 0.647566 0.554116
C90   C     C_R   0.272002 0.953456 0.351797 0.549827
C91   C     C_R   0.227866 0.455489 0.647566 0.554116
C92   C     C_R   0.772002 0.453456 0.351797 0.549827
C93   C     C_R   0.532036 0.176427 0.643149 0.540085
C94   C     C_R   0.471810 0.176672 0.354004 0.542632
C95   C     C_R   0.032036 0.676427 0.643149 0.540085
C96   C     C_R   0.971810 0.676672 0.354004 0.542633
C97   C     C_R   0.737419 0.355671 0.643844 0.546586
C98   C     C_R   0.261340 0.359476 0.354782 0.545218
C99   C     C_R   0.237419 0.855671 0.643844 0.546586
C100  C     C_R   0.761340 0.859476 0.354782 0.545218
C101  C     C_2   0.498138 0.169397 0.921131 -0.122682
C102  C     C_2   0.501782 0.169708 0.078827 -0.122616
C103  C     C_2   0.998138 0.669397 0.921131 -0.122682
C104  C     C_2   0.001782 0.669708 0.078827 -0.122616
C105  C     C_2   0.493638 0.069369 0.038632 -0.166960
C106  C     C_2   0.506484 0.069285 0.961539 -0.167121
C107  C     C_2   0.993638 0.569369 0.038632 -0.166960
C108  C     C_2   0.006484 0.569285 0.961539 -0.167121
C109  C     C_R   0.766636 0.448937 0.066779 0.005090
C110  C     C_R   0.233388 0.448830 0.933217 0.005065
C111  C     C_R   0.266636 0.948937 0.066779 0.005090
C112  C     C_R   0.733388 0.948830 0.933217 0.005065
Cr1   Cr    Cr6+3 0.769260 0.163750 0.750730 1.017299
Cr2   Cr    Cr6+3 0.230740 0.163750 0.249270 1.018012
Cr3   Cr    Cr6+3 0.269260 0.663750 0.750730 1.017299
Cr4   Cr    Cr6+3 0.730740 0.663750 0.249270 1.018012
Cr5   Cr    Cr6+3 0.612640 0.009910 0.748780 1.044192
Cr6   Cr    Cr6+3 0.387360 0.009910 0.251220 1.042917
Cr7   Cr    Cr6+3 0.112640 0.509910 0.748780 1.044192
Cr8   Cr    Cr6+3 0.887360 0.509910 0.251220 1.042916
Cr9   Cr    Cr6+3 0.614190 0.322400 0.747710 1.081035
Cr10  Cr    Cr6+3 0.385810 0.322400 0.252290 1.077900
Cr11  Cr    Cr6+3 0.114190 0.822400 0.747710 1.081035
Cr12  Cr    Cr6+3 0.885810 0.822400 0.252290 1.077896
H1    H     H_    0.476689 0.984438 0.062502 0.172904
H2    H     H_    0.523597 0.984454 0.937851 0.172688
H3    H     H_    0.976689 0.484438 0.062502 0.172904
H4    H     H_    0.023597 0.484454 0.937851 0.172688
H5    H     H_    0.931327 0.896881 0.438212 0.174068
H6    H     H_    0.022666 0.969308 0.561597 0.134717
H7    H     H_    0.431327 0.396881 0.438212 0.174068
H8    H     H_    0.522666 0.469308 0.561597 0.134717
H9    H     H_    0.518321 0.474741 0.434933 0.123887
H10   H     H_    0.436901 0.386977 0.563379 0.142942
H11   H     H_    0.018321 0.974741 0.434933 0.123886
H12   H     H_    0.936901 0.886977 0.563379 0.142942
H13   H     H_    0.641761 0.469174 0.555874 0.125860
H14   H     H_    0.333459 0.530413 0.433721 0.124971
H15   H     H_    0.141761 0.969174 0.555874 0.125860
H16   H     H_    0.833459 0.030413 0.433721 0.124971
H17   H     H_    0.649466 0.486725 0.425248 0.118453
H18   H     H_    0.328270 0.553600 0.563082 0.138452
H19   H     H_    0.149466 0.986725 0.425248 0.118453
H20   H     H_    0.828270 0.053600 0.563082 0.138452
H21   H     H_    0.897042 0.425009 0.445236 0.167781
H22   H     H_    0.103682 0.351629 0.565922 0.162253
H23   H     H_    0.397042 0.925009 0.445236 0.167781
H24   H     H_    0.603682 0.851629 0.565922 0.162253
H25   H     H_    0.902169 0.254642 0.436433 0.133158
H26   H     H_    0.131877 0.189330 0.571855 0.132133
H27   H     H_    0.402169 0.754642 0.436433 0.133159
H28   H     H_    0.631877 0.689330 0.571855 0.132133
H29   H     H_    0.892943 0.236606 0.562627 0.134442
H30   H     H_    0.132100 0.181331 0.444763 0.137085
H31   H     H_    0.392943 0.736606 0.562627 0.134442
H32   H     H_    0.632100 0.681331 0.444763 0.137085
H33   H     H_    0.888753 0.406813 0.570683 0.140236
H34   H     H_    0.108939 0.345927 0.439675 0.137221
H35   H     H_    0.388753 0.906813 0.570683 0.140236
H36   H     H_    0.608939 0.845927 0.439675 0.137221
H37   H     H_    0.522427 0.253083 0.055881 0.121980
H38   H     H_    0.477327 0.252635 0.943907 0.122081
H39   H     H_    0.022427 0.753083 0.055881 0.121981
H40   H     H_    0.977327 0.752635 0.943907 0.122081
H41   H     H_    0.862441 0.364211 0.923913 0.168627
H42   H     H_    0.137495 0.364488 0.076238 0.168315
H43   H     H_    0.362441 0.864211 0.923913 0.168627
H44   H     H_    0.637494 0.864489 0.076238 0.168313
H45   H     H_    0.872384 0.383160 0.051149 0.199348
H46   H     H_    0.127583 0.383059 0.948955 0.199122
H47   H     H_    0.372384 0.883160 0.051149 0.199349
H48   H     H_    0.627583 0.883060 0.948955 0.199122
H49   H     H_    0.110188 0.072403 0.062530 0.217760
H50   H     H_    0.889972 0.072477 0.937241 0.217668
H51   H     H_    0.610188 0.572402 0.062530 0.217755
H52   H     H_    0.389972 0.572478 0.937241 0.217668
H53   H     H_    0.619901 0.403763 0.072905 0.114718
H54   H     H_    0.380101 0.403811 0.927164 0.114733
H55   H     H_    0.119901 0.903763 0.072905 0.114719
H56   H     H_    0.880101 0.903810 0.927164 0.114732
H57   H     H_    0.608889 0.374866 0.946344 0.114169
H58   H     H_    0.391085 0.375176 0.053767 0.114416
H59   H     H_    0.108889 0.874866 0.946344 0.114169
H60   H     H_    0.891085 0.875175 0.053766 0.114416
H61   H     H_    0.513199 0.973941 0.559845 0.118810
H62   H     H_    0.509270 0.973680 0.429182 0.117697
H63   H     H_    0.013198 0.473941 0.559845 0.118810
H64   H     H_    0.009270 0.473680 0.429182 0.117697
O1    O     O_R   0.784290 0.290360 0.830540 -0.527553
O2    O     O_R   0.215710 0.290360 0.169460 -0.528029
O3    O     O_R   0.284290 0.790360 0.830540 -0.527552
O4    O     O_R   0.715710 0.790360 0.169460 -0.528029
O5    O     O_R   0.554690 0.080440 0.673480 -0.511944
O6    O     O_R   0.445310 0.080440 0.326520 -0.513680
O7    O     O_R   0.054690 0.580440 0.673480 -0.511944
O8    O     O_R   0.945310 0.580440 0.326520 -0.513680
O9    O     O_R   0.543980 0.282110 0.666770 -0.517401
O10   O     O_R   0.456020 0.282110 0.333230 -0.524224
O11   O     O_R   0.043980 0.782110 0.666770 -0.517401
O12   O     O_R   0.956020 0.782110 0.333230 -0.524225
O13   O     O_R   0.679070 0.374030 0.674430 -0.501363
O14   O     O_R   0.320930 0.374030 0.325570 -0.503832
O15   O     O_R   0.179070 0.874030 0.674430 -0.501363
O16   O     O_R   0.820930 0.874030 0.325570 -0.503832
O17   O     O_3   0.665360 0.165350 0.749070 -0.270149
O18   O     O_3   0.334640 0.165350 0.250930 -0.267823
O19   O     O_3   0.165360 0.665350 0.749070 -0.270149
O20   O     O_3   0.834640 0.665350 0.250930 -0.267822
O21   O     O_R   0.762610 0.041070 0.825230 -0.502284
O22   O     O_R   0.237390 0.041070 0.174770 -0.502641
O23   O     O_R   0.262610 0.541070 0.825230 -0.502284
O24   O     O_R   0.737390 0.541070 0.174770 -0.502641
O25   O     O_R   0.667390 0.924160 0.829970 -0.484744
O26   O     O_R   0.332610 0.924160 0.170030 -0.484889
O27   O     O_R   0.167390 0.424160 0.829970 -0.484745
O28   O     O_R   0.832610 0.424160 0.170030 -0.484890
O29   O     O_R   0.553980 0.081420 0.821780 -0.505239
O30   O     O_R   0.446020 0.081420 0.178220 -0.505725
O31   O     O_R   0.053980 0.581420 0.821780 -0.505239
O32   O     O_R   0.946020 0.581420 0.178220 -0.505724
O33   O     O_R   0.543210 0.283170 0.826740 -0.468232
O34   O     O_R   0.456790 0.283170 0.173260 -0.468697
O35   O     O_R   0.043210 0.783170 0.826740 -0.468232
O36   O     O_R   0.956790 0.783170 0.173260 -0.468699
O37   O     O_R   0.678350 0.375000 0.822720 -0.463881
O38   O     O_R   0.321650 0.375000 0.177280 -0.464016
O39   O     O_R   0.178350 0.875000 0.822720 -0.463881
O40   O     O_R   0.821650 0.875000 0.177280 -0.464016
O41   O     O_R   0.785060 0.289300 0.670580 -0.520402
O42   O     O_R   0.214940 0.289300 0.329420 -0.518959
O43   O     O_R   0.285060 0.789300 0.670580 -0.520402
O44   O     O_R   0.714940 0.789300 0.329420 -0.518959
O45   O     O_R   0.763330 0.040090 0.676940 -0.509765
O46   O     O_R   0.236670 0.040090 0.323060 -0.505584
O47   O     O_R   0.263330 0.540090 0.676940 -0.509765
O48   O     O_R   0.736670 0.540090 0.323060 -0.505584
O49   O     O_R   0.668160 0.923110 0.670000 -0.513988
O50   O     O_R   0.331840 0.923110 0.330000 -0.513875
O51   O     O_R   0.168160 0.423110 0.670000 -0.513988
O52   O     O_R   0.831840 0.423110 0.330000 -0.513876
S1    S     S_3+6 0.580590 0.586891 0.913400 0.019772
O53   O     O_2   0.559994 0.688755 0.962116 -0.286720
O54   O     O_2   0.626983 0.636815 0.856039 -0.283687
O55   O     O_3   0.508482 0.527317 0.875462 -0.526706
H65   H     H_    0.489683 0.593039 0.844623 0.349253
S2    S     S_3+6 0.419543 0.587288 0.086365 0.019742
O56   O     O_2   0.440118 0.689214 0.037514 -0.287058
O57   O     O_2   0.373215 0.637079 0.143715 -0.283792
O58   O     O_3   0.491661 0.527900 0.124308 -0.526597
H66   H     H_    0.510510 0.593673 0.155056 0.349263
S3    S     S_3+6 0.080590 0.086891 0.913400 0.019773
O59   O     O_2   0.059993 0.188755 0.962116 -0.286720
O60   O     O_2   0.126983 0.136815 0.856039 -0.283687
O61   O     O_3   0.008481 0.027317 0.875463 -0.526702
H67   H     H_    0.989682 0.093041 0.844624 0.349249
S4    S     S_3+6 0.919543 0.087286 0.086365 0.019743
O62   O     O_2   0.940117 0.189213 0.037514 -0.287053
O63   O     O_2   0.873217 0.137076 0.143717 -0.283797
O64   O     O_3   0.991663 0.027898 0.124306 -0.526598
H68   H     H_    0.010506 0.093665 0.155062 0.349263

loop_
_geom_bond_atom_site_label_1
_geom_bond_atom_site_label_2
_ccdc_geom_bond_type
C58   C62   A    
C39   C51   S    
C4    C109  S    
C67   C83   A    
Cr2   O2    S    
Cr3   O19   S    
Cr9   O33   S    
C6    C110  A    
C41   C42   A    
C14   C18   A    
C93   O9    A    
C34   C93   S    
Cr9   O17   S    
C22   H54   S    
C53   C69   A    
C33   C94   S    
C104  H39   S    
Cr3   O47   S    
C51   H5    S    
C68   C84   A    
C9    C25   S    
S3    O59   D    
Cr2   O46   S    
C63   C79   S    
C35   C96   S    
C45   O33   A    
Cr7   O27   S    
C49   H7    S    
C103  H40   S    
Cr8   O8    S    
C89   O45   A    
Cr3   O43   S    
C12   C28   S    
C46   O30   A    
C33   C42   A    
C13   C29   A    
C101  H38   S    
Cr6   O18   S    
C19   H47   S    
C55   C90   S    
Cr5   O17   S    
C8    C112  A    
C1    C112  S    
C79   H35   S    
C17   H45   S    
S3    O60   D    
C67   C71   A    
Cr11  O39   S    
C76   H28   S    
C3    C110  S    
C85   O1    A    
C66   H14   S    
C48   C104  S    
S4    O64   S    
C91   O47   A    
C65   C69   A    
Cr9   O37   S    
O55   H65   S    
C90   O46   A    
C102  C105  D    
C72   H20   S    
S1    O53   D    
C96   O8    A    
C57   C73   S    
C49   C50   S    
Cr10  O18   S    
C64   C84   A    
C49   H9    S    
C77   H29   S    
C15   C19   A    
C51   H11   S    
C78   H34   S    
C97   O41   A    
Cr8   O28   S    
Cr12  O36   S    
C75   H27   S    
C21   H51   S    
S4    O63   D    
Cr6   O30   S    
C107  C108  S    
Cr5   O29   S    
C103  C108  D    
C23   C27   S    
C30   C86   S    
C67   H15   S    
C23   H55   S    
C7    C23   S    
Cr2   O22   S    
C68   C72   A    
C8    C24   S    
Cr1   O45   S    
C19   C111  A    
Cr6   O50   S    
C21   H53   S    
C62   C82   A    
C11   C31   A    
C73   H25   S    
C98   O42   A    
Cr12  O20   S    
Cr7   O31   S    
C64   C80   S    
C15   H43   S    
C5    C9    A    
C34   C41   A    
C65   H13   S    
C14   C30   A    
Cr1   O41   S    
C100  O16   A    
C7    C111  A    
C34   C38   A    
Cr12  O40   S    
C25   H57   S    
C7    C11   A    
C3    O27   A    
C18   H46   S    
C3    O23   A    
C62   C78   S    
S2    O57   D    
C2    C111  S    
C2    O22   A    
C47   C103  S    
C90   O50   A    
C1    O21   A    
C51   C52   S    
Cr8   O20   S    
C18   C110  A    
C36   C40   A    
C31   C87   S    
Cr10  O38   S    
C50   H10   S    
C86   O2    A    
C47   O35   A    
C39   C40   A    
C53   C57   A    
C78   H30   S    
S3    O61   S    
C48   O36   A    
C56   C72   A    
C40   C52   S    
C47   O31   A    
C92   O48   A    
Cr7   O51   S    
Cr10  O10   S    
C56   C60   A    
C73   H21   S    
C94   O10   A    
Cr1   O17   S    
C55   C71   A    
C35   C39   A    
C43   C44   A    
Cr2   O42   S    
C37   C38   A    
C89   O49   A    
C86   O38   A    
C66   C82   A    
C46   C102  S    
C10   C30   A    
C87   O3    A    
C65   C81   A    
C54   C70   A    
C11   C27   S    
Cr8   O32   S    
C8    C12   A    
C63   C83   A    
S4    O62   D    
Cr4   O48   S    
C53   C92   S    
C10   C26   S    
O58   H66   S    
C85   O37   A    
C41   H61   S    
Cr6   O26   S    
C16   C20   A    
C13   H41   S    
C108  H4    S    
Cr12  O12   S    
C15   C31   A    
C35   C44   A    
C80   H36   S    
Cr9   O9    S    
C37   C49   S    
Cr4   O20   S    
C50   H8    S    
Cr8   O52   S    
C23   H49   S    
C26   H58   S    
C56   C89   S    
C20   H48   S    
C84   C100  S    
C44   H64   S    
Cr4   O44   S    
C2    O26   A    
C61   C77   S    
C45   C101  S    
Cr10  O34   S    
C52   H12   S    
C82   C98   S    
C68   H16   S    
C32   C88   S    
Cr7   O19   S    
O64   H68   S    
Cr11  O19   S    
C59   C75   S    
C80   H32   S    
C27   S3    S    
C55   C59   A    
C58   C74   S    
C24   C28   S    
C71   H19   S    
C54   C58   A    
Cr11  O11   S    
C101  C106  D    
C96   O12   A    
C21   C25   S    
S2    O56   D    
C92   O52   A    
C95   O7    A    
C26   S2    S    
C99   O15   A    
C24   H50   S    
C94   O6    A    
C29   C85   S    
C74   H22   S    
C93   O5    A    
C76   C80   S    
C97   O13   A    
C36   C43   A    
C17   C109  A    
C43   H63   S    
C6    C10   A    
C70   H18   S    
C99   O43   A    
C57   C61   A    
C38   C50   S    
C25   S1    S    
C88   O4    A    
C16   C32   A    
C79   H31   S    
Cr1   O1    S    
C105  C106  S    
C106  H2    S    
C59   C63   A    
Cr11  O35   S    
C4    O24   A    
Cr3   O23   S    
C60   C64   A    
S1    O55   S    
C75   H23   S    
C105  H1    S    
O61   H67   S    
C28   H60   S    
Cr3   O3    S    
C54   C91   S    
Cr4   O24   S    
C61   C81   A    
C1    O25   A    
C9    C29   A    
Cr9   O13   S    
C36   C95   S    
C42   H62   S    
C88   O40   A    
C5    C109  A    
C87   O39   A    
C16   H44   S    
C102  H37   S    
C98   O14   A    
C24   H56   S    
C69   H17   S    
C52   H6    S    
C81   C97   S    
C60   C76   S    
C33   C37   A    
Cr7   O7    S    
Cr4   O4    S    
C46   O34   A    
Cr6   O6    S    
C27   H59   S    
C22   H52   S    
Cr12  O16   S    
Cr5   O5    S    
Cr5   O49   S    
C13   C17   A    
Cr2   O18   S    
Cr10  O14   S    
Cr5   O25   S    
C5    C21   S    
C66   C70   A    
C76   H24   S    
C95   O11   A    
C14   H42   S    
C22   C26   S    
C20   C112  A    
C91   O51   A    
C4    O28   A    
C73   C77   S    
C74   H26   S    
C100  O44   A    
C74   C78   S    
C28   S4    S    
C107  H3    S    
Cr11  O15   S    
S1    O54   D    
C75   C79   S    
C104  C107  D    
C12   C32   A    
C45   O29   A    
C48   O32   A    
C77   H33   S    
C83   C99   S    
Cr1   O21   S    
S2    O58   S    
C6    C22   S    
