data_mof_unit_56585.cif
_audit_creation_date              2012-12-11T14:17:48-0500
_audit_creation_method            fapswitch 2.2
_symmetry_space_group_name_H-M    P1
_symmetry_Int_Tables_number       1
_space_group_crystal_system       triclinic
_cell_length_a                    11.280524
_cell_length_b                    11.323255
_cell_length_c                    18.678957
_cell_angle_alpha                 89.991276
_cell_angle_beta                  90.447323
_cell_angle_gamma                 120.041627
_cell_volume                      2065.3048661

loop_
_atom_site_label
_atom_site_type_symbol
_atom_type_description
_atom_site_fract_x
_atom_site_fract_y
_atom_site_fract_z
_atom_type_partial_charge
C1    C     C_R   0.521326 0.458661 0.147772 0.526752
C2    C     C_R   0.540510 0.062241 0.147693 0.519118
C3    C     C_R   0.935967 0.477743 0.147515 0.523096
C4    C     C_R   0.452457 0.521454 0.854319 0.676796
C5    C     C_R   0.067927 0.547094 0.853903 0.648885
C6    C     C_R   0.480115 0.932849 0.853924 0.661089
C7    C     C_R   0.405292 0.023285 0.466477 0.371171
C8    C     C_R   0.982913 0.383009 0.465074 0.343630
C9    C     C_R   0.605190 0.612659 0.460270 0.382773
C10   C     C_R   0.005792 0.391499 0.539090 0.314764
C11   C     C_R   0.390494 0.005585 0.540811 0.387533
C12   C     C_R   0.596971 0.618830 0.534947 0.356126
C13   C     C_R   0.746280 0.124273 0.593219 0.363198
C14   C     C_R   0.893131 0.636337 0.581619 0.369356
C15   C     C_R   0.319047 0.265883 0.562955 0.412783
C16   C     C_R   0.026533 0.720178 0.450167 0.420584
C17   C     C_R   0.718752 0.002710 0.459411 0.461906
C18   C     C_R   0.256002 0.327102 0.428175 0.416215
C19   C     C_R   0.829124 0.071792 0.576167 0.519753
C20   C     C_R   0.946100 0.769141 0.559914 0.560712
C21   C     C_R   0.196213 0.179706 0.530313 0.566892
C22   C     C_R   0.015615 0.810240 0.494102 0.586151
C23   C     C_R   0.811623 0.007833 0.509891 0.566313
C24   C     C_R   0.164763 0.208099 0.461834 0.553575
C25   C     C_R   0.518342 0.459159 0.352423 0.585671
C26   C     C_R   0.548611 0.070988 0.356737 0.601382
C27   C     C_R   0.933575 0.478677 0.355099 0.608089
C28   C     C_R   0.456798 0.520120 0.645791 0.638011
C29   C     C_R   0.059086 0.539875 0.647643 0.628038
C30   C     C_R   0.480952 0.942201 0.648235 0.610456
C31   C     C_R   0.497874 0.973502 0.929595 0.031391
C32   C     C_R   0.028189 0.523229 0.929460 0.019651
C33   C     C_R   0.475593 0.505461 0.929952 0.054358
C34   C     C_R   0.000857 0.490780 0.077912 -0.006792
C35   C     C_R   0.486629 0.993887 0.078277 0.010000
C36   C     C_R   0.507202 0.511740 0.078452 0.012396
C37   C     C_R   0.432929 0.041289 0.958298 -0.103333
C38   C     C_R   0.953239 0.390618 0.957550 -0.126718
C39   C     C_R   0.608539 0.565374 0.959155 -0.134872
C40   C     C_R   0.957507 0.374213 0.032379 -0.118645
C41   C     C_R   0.410748 0.034182 0.032800 -0.074055
C42   C     C_R   0.624299 0.585986 0.033858 -0.113005
C43   C     C_R   0.540267 0.916879 0.049999 0.224190
C44   C     C_R   0.082482 0.620724 0.050058 0.270276
C45   C     C_R   0.376395 0.460846 0.049622 0.219027
C46   C     C_R   0.099626 0.635687 0.976936 0.287348
C47   C     C_R   0.545546 0.906270 0.975802 0.249421
C48   C     C_R   0.360574 0.458133 0.975482 0.262313
C49   C     C_R   0.377406 0.103229 0.914010 0.347011
C50   C     C_R   0.891273 0.274240 0.912681 0.344014
C51   C     C_R   0.725940 0.618673 0.915419 0.334842
C52   C     C_R   0.931563 0.245453 0.057873 0.363738
C53   C     C_R   0.308036 0.059961 0.058477 0.403947
C54   C     C_R   0.754072 0.687585 0.060385 0.354582
C55   C     C_R   0.278018 0.131045 0.940566 0.302471
C56   C     C_R   0.864909 0.147380 0.938807 0.287769
C57   C     C_R   0.854381 0.715690 0.942938 0.292245
C58   C     C_R   0.883230 0.132745 0.011472 0.295698
C59   C     C_R   0.245460 0.111834 0.012993 0.316622
C60   C     C_R   0.868580 0.748592 0.015459 0.299678
C61   C     C_R   0.502951 0.025833 0.583242 0.047810
C62   C     C_R   0.983001 0.483049 0.580003 0.054817
C63   C     C_R   0.497045 0.504671 0.572660 0.025007
C64   C     C_R   0.978062 0.489579 0.430106 0.028202
C65   C     C_R   0.522008 0.034705 0.433441 -0.006772
C66   C     C_R   0.496130 0.506014 0.422010 0.012116
C67   C     C_R   0.629598 0.083153 0.550926 -0.208998
C68   C     C_R   0.933445 0.556514 0.544235 -0.213021
C69   C     C_R   0.403774 0.392237 0.532385 -0.214570
C70   C     C_R   0.974378 0.587566 0.472911 -0.228841
C71   C     C_R   0.628606 0.047716 0.478651 -0.223057
C72   C     C_R   0.382790 0.412717 0.460677 -0.210210
Cr1   Cr    Cr6+3 0.768550 0.541320 0.250660 1.206648
Cr2   Cr    Cr6+3 0.458680 0.227230 0.250660 1.206360
Cr3   Cr    Cr6+3 0.772770 0.231450 0.250660 1.225530
Cr4   Cr    Cr6+3 0.541320 0.768550 0.749340 1.229896
Cr5   Cr    Cr6+3 0.227230 0.458680 0.749340 1.234216
Cr6   Cr    Cr6+3 0.231450 0.772770 0.749340 1.213420
O1    O     O_R   0.910960 0.572410 0.171010 -0.487540
O2    O     O_R   0.427590 0.338550 0.171010 -0.483301
O3    O     O_R   0.661450 0.089040 0.171010 -0.480071
O4    O     O_R   0.572410 0.910960 0.828990 -0.431100
O5    O     O_R   0.338550 0.427590 0.828990 -0.443584
O6    O     O_R   0.089040 0.661450 0.828990 -0.462875
O7    O     O_R   0.639750 0.528530 0.175600 -0.433948
O8    O     O_R   0.471470 0.111220 0.175600 -0.439624
O9    O     O_R   0.888780 0.360250 0.175600 -0.429125
O10   O     O_R   0.528530 0.639750 0.824400 -0.435483
O11   O     O_R   0.111220 0.471470 0.824400 -0.431000
O12   O     O_R   0.360250 0.888780 0.824400 -0.460941
O13   O     O_R   0.909330 0.572400 0.331540 -0.432912
O14   O     O_R   0.427600 0.336930 0.331540 -0.445119
O15   O     O_R   0.663070 0.090670 0.331540 -0.415605
O16   O     O_R   0.572400 0.909330 0.668460 -0.464459
O17   O     O_R   0.336930 0.427600 0.668460 -0.431227
O18   O     O_R   0.090670 0.663070 0.668460 -0.465473
O19   O     O_R   0.638240 0.528520 0.324410 -0.444912
O20   O     O_R   0.471480 0.109720 0.324410 -0.434198
O21   O     O_R   0.890280 0.361760 0.324410 -0.426763
O22   O     O_R   0.528520 0.638240 0.675590 -0.424566
O23   O     O_R   0.109720 0.471480 0.675590 -0.420200
O24   O     O_R   0.361760 0.890280 0.675590 -0.430597
O25   O     O_3   0.666667 0.333333 0.250630 -0.386261
O26   O     O_3   0.333333 0.666667 0.749370 -0.407163
O27   O     O_3   0.583008 0.846263 0.093487 -0.638788
H1    H     H_    0.542366 0.835338 0.141594 0.358322
O28   O     O_3   0.155802 0.734381 0.093033 -0.584411
H2    H     H_    0.163219 0.705009 0.142034 0.347302
O29   O     O_3   0.262880 0.418529 0.092483 -0.638525
H3    H     H_    0.292888 0.457664 0.141149 0.360964
O30   O     O_3   0.198604 0.760239 0.953196 -0.599339
H4    H     H_    0.264454 0.740983 0.928618 0.298141
O31   O     O_3   0.588431 0.822186 0.946950 -0.654122
H5    H     H_    0.652761 0.816468 0.980655 0.395073
O32   O     O_3   0.233147 0.415979 0.946165 -0.660621
H6    H     H_    0.163486 0.348403 0.978340 0.393720
F1    F     F_    0.419927 0.137723 0.845360 -0.572769
F2    F     F_    0.859109 0.283755 0.843423 -0.555337
F3    F     F_    0.716589 0.576931 0.846324 -0.564692
F4    F     F_    0.980722 0.234625 0.122690 -0.563452
F5    F     F_    0.250061 0.012515 0.123374 -0.569006
F6    F     F_    0.765245 0.748155 0.124845 -0.569401
O33   O     O_3   0.204453 0.169006 0.896279 -0.581064
H7    H     H_    0.225867 0.161711 0.845704 0.397190
O34   O     O_3   0.831407 0.038212 0.893830 -0.570931
H8    H     H_    0.839501 0.068246 0.843403 0.399989
O35   O     O_3   0.966344 0.787597 0.899474 -0.557879
H9    H     H_    0.936441 0.769167 0.848700 0.396041
O36   O     O_3   0.860929 0.008067 0.035034 -0.585187
H10   H     H_    0.867093 0.008760 0.087962 0.413463
O37   O     O_3   0.147038 0.139399 0.037437 -0.586629
H11   H     H_    0.142247 0.132204 0.090299 0.410020
O38   O     O_3   0.995371 0.846642 0.040334 -0.536704
H12   H     H_    0.992785 0.854043 0.093055 0.409624
F7    F     F_    0.305124 0.023296 0.426544 -0.517451
F8    F     F_    0.966256 0.274238 0.427925 -0.560581
F9    F     F_    0.717967 0.708224 0.425981 -0.512253
F10   F     F_    0.059921 0.320420 0.569097 -0.618017
F11   F     F_    0.266625 0.961932 0.570631 -0.545525
F12   F     F_    0.682122 0.735963 0.569753 -0.553442
F13   F     F_    0.757040 0.179768 0.659189 -0.510127
F14   F     F_    0.831217 0.596478 0.646325 -0.509151
F15   F     F_    0.352407 0.228262 0.625737 -0.505081
F16   F     F_    0.105607 0.767927 0.390751 -0.504497
F17   F     F_    0.698713 0.927416 0.399290 -0.481224
F18   F     F_    0.221940 0.358014 0.363630 -0.523751
F19   F     F_    0.912392 0.069274 0.627845 -0.419061
F20   F     F_    0.938408 0.855853 0.606624 -0.394491
F21   F     F_    0.106055 0.075841 0.569551 -0.398978
F22   F     F_    0.075747 0.936129 0.469849 -0.420473
F23   F     F_    0.871809 0.936477 0.495991 -0.427800
F24   F     F_    0.051796 0.119128 0.424627 -0.405978

loop_
_geom_bond_atom_site_label_1
_geom_bond_atom_site_label_2
_ccdc_geom_bond_type
C2    C35   S    
Cr4   O26   S    
C39   C51   A    
C22   F22   S    
C6    O4    A    
C55   C59   A    
C8    F8    S    
C5    O6    A    
C36   C42   A    
O30   H4    S    
C3    O1    A    
C14   F14   S    
C53   C59   A    
O33   H7    S    
Cr2   O20   S    
C54   C60   A    
Cr6   O12   S    
Cr1   O19   S    
C27   O21   A    
C17   C23   A    
O34   H8    S    
C28   O17   A    
C34   C40   A    
C40   C52   A    
C16   F16   S    
O36   H10   S    
C45   O29   S    
C45   C48   A    
Cr6   O24   S    
Cr5   O5    S    
C58   O36   S    
O32   H6    S    
C43   O27   S    
Cr2   O14   S    
C11   F11   S    
C9    C66   A    
C24   F24   S    
Cr4   O16   S    
C20   F20   S    
C9    F9    S    
C49   F1    S    
C63   C69   A    
C66   C72   A    
C18   C72   A    
C51   F3    S    
O28   H2    S    
C12   F12   S    
C27   O13   A    
C51   C57   A    
C32   C38   A    
C35   C43   A    
Cr4   O10   S    
C5    C32   S    
C28   O22   A    
C26   O15   A    
C6    C31   S    
C54   F6    S    
Cr2   O2    S    
C46   O30   S    
Cr3   O25   S    
C10   C62   A    
C44   C46   A    
C7    C11   A    
C39   C42   A    
C1    O7    A    
C15   C69   A    
C55   O33   S    
C38   C50   A    
C13   C19   A    
Cr6   O26   S    
C14   C20   A    
C36   C45   A    
C16   C70   A    
Cr1   O13   S    
Cr4   O4    S    
C12   C63   A    
Cr3   O3    S    
C57   C60   A    
C4    C33   S    
C3    C34   S    
C11   C61   A    
C65   C71   A    
C3    O9    A    
Cr5   O17   S    
C19   F19   S    
C31   C37   A    
C69   C72   A    
C19   C23   A    
C7    F7    S    
C7    C65   A    
Cr5   O11   S    
C37   C49   A    
C61   C67   A    
C15   C21   A    
C59   O37   S    
C30   O24   A    
Cr3   O21   S    
Cr1   O1    S    
C29   O23   A    
C21   F21   S    
C33   C39   A    
C56   O34   S    
Cr2   O8    S    
Cr1   O7    S    
C52   C58   A    
C8    C64   A    
C48   O32   S    
C15   F15   S    
C52   F4    S    
Cr3   O9    S    
C26   O20   A    
C17   C71   A    
C64   C70   A    
C17   F17   S    
C18   C24   A    
C21   C24   A    
O35   H9    S    
Cr3   O15   S    
O31   H5    S    
C13   C67   A    
C44   O28   S    
C25   O19   A    
C47   O31   S    
C34   C44   A    
C23   F23   S    
C29   C62   S    
C25   O14   A    
C16   C22   A    
C50   F2    S    
C26   C65   S    
C32   C46   A    
C13   F13   S    
C8    C10   A    
C25   C66   S    
C20   C22   A    
C18   F18   S    
C49   C55   A    
C57   O35   S    
C29   O18   A    
C4    O10   A    
Cr4   O22   S    
O27   H1    S    
C62   C68   A    
C30   O16   A    
C53   F5    S    
O29   H3    S    
C42   C54   A    
C38   C40   A    
Cr6   O18   S    
O38   H12   S    
C4    O5    A    
C56   C58   A    
Cr5   O23   S    
C2    O8    A    
C67   C71   A    
C37   C41   A    
C35   C41   A    
C9    C12   A    
C50   C56   A    
C27   C64   S    
C41   C53   A    
C28   C63   S    
Cr6   O6    S    
Cr1   O25   S    
C6    O12   A    
C68   C70   A    
C30   C61   S    
C33   C48   A    
C14   C68   A    
C1    O2    A    
C2    O3    A    
C31   C47   A    
Cr5   O26   S    
C10   F10   S    
C43   C47   A    
C60   O38   S    
C5    O11   A    
O37   H11   S    
C1    C36   S    
Cr2   O25   S    
