data_mof_unit_15128.cif
_audit_creation_date              2012-12-11T17:10:31-0500
_audit_creation_method            fapswitch 2.2
_symmetry_space_group_name_H-M    P1
_symmetry_Int_Tables_number       1
_space_group_crystal_system       triclinic
_cell_length_a                    15.165302
_cell_length_b                    14.957665
_cell_length_c                    14.964475
_cell_angle_alpha                 109.587884
_cell_angle_beta                  110.181029
_cell_angle_gamma                 108.900506
_cell_volume                      2604.56594433

loop_
_atom_site_label
_atom_site_type_symbol
_atom_type_description
_atom_site_fract_x
_atom_site_fract_y
_atom_site_fract_z
_atom_type_partial_charge
C1    C     C_R   0.201675 0.293134 0.196471 -0.150960
C2    C     C_R   0.406206 0.495051 0.194777 -0.143188
C3    C     C_R   0.546765 0.815172 0.588759 -0.136519
C4    C     C_R   0.529079 0.435356 0.749204 -0.119039
C5    C     C_R   0.707716 0.407958 0.407216 -0.153422
C6    C     C_R   0.531850 0.823702 0.495765 0.075232
C7    C     C_R   0.800692 0.440432 0.498465 0.082727
C8    C     C_R   0.437362 0.433555 0.133344 0.080735
C9    C     C_R   0.825431 0.826996 0.791058 0.071366
C10   C     C_R   0.193804 0.753272 0.414194 -0.112665
C11   C     C_R   0.160175 0.694078 0.462442 -0.128951
C12   C     C_R   0.460923 0.456605 0.783659 0.067903
C13   C     C_R   0.058496 0.598344 0.400246 0.135151
C14   C     C_R   0.990117 0.564681 0.289955 -0.173986
C15   C     C_R   0.023811 0.624526 0.242243 -0.104639
C16   C     C_R   0.499616 0.198817 0.406885 -0.141505
C17   C     C_R   0.125747 0.718442 0.304148 -0.101615
C18   C     C_R   0.928154 0.509905 0.448107 -0.244672
C19   C     C_R   0.895430 0.450292 0.496320 0.049114
C20   C     C_R   0.955534 0.408513 0.544756 -0.060224
C21   C     C_R   0.050084 0.426428 0.542148 -0.011214
C22   C     C_R   0.084158 0.490595 0.497633 -0.007623
C23   C     C_R   0.558355 0.194804 0.497414 0.077582
C24   C     C_R   0.023768 0.532197 0.449444 0.003297
C25   C     C_R   0.959917 0.403530 0.711075 -0.158290
C26   C     C_R   0.952455 0.346809 0.768224 -0.135202
C27   C     C_R   0.910858 0.233765 0.713562 -0.092379
C28   C     C_R   0.280986 0.566498 0.591168 -0.151679
C29   C     C_R   0.873441 0.176812 0.600850 -0.076434
C30   C     C_R   0.878034 0.232845 0.542816 -0.148609
C31   C     C_R   0.922931 0.346910 0.597987 0.145998
C32   C     C_R   0.472169 0.363943 0.892934 0.086213
C33   C     C_R   0.422842 0.412899 0.844434 0.036865
C34   C     C_R   0.181091 0.509459 0.497792 0.072310
C35   C     C_R   0.345798 0.430781 0.867834 -0.172747
C36   C     C_R   0.337679 0.422650 0.955330 -0.205834
C37   C     C_R   0.406467 0.396291 0.018657 0.049799
C38   C     C_R   0.460936 0.351917 0.976121 0.134813
C39   C     C_3   0.572551 0.367247 0.031348 -0.581728
C40   C     C_R   0.591742 0.289055 0.590282 -0.139002
C41   C     C_3   0.586007 0.382853 0.941237 -0.166114
C42   C     C_R   0.536533 0.923379 0.393598 0.159312
C43   C     C_R   0.575775 0.923324 0.492923 0.038755
C44   C     C_R   0.646789 0.023820 0.591674 -0.234984
C45   C     C_R   0.466405 0.719995 0.405425 -0.143240
C46   C     C_R   0.652241 0.118677 0.592604 -0.177894
C47   C     C_R   0.589921 0.112880 0.494161 0.039547
C48   C     C_R   0.543796 0.017655 0.394188 0.149346
C49   C     C_3   0.434593 0.956079 0.292063 -0.520806
C50   C     C_3   0.426771 0.853017 0.291623 -0.523645
C51   C     C_R   0.021758 0.125235 0.967802 0.157504
C52   C     C_R   0.187974 0.468095 0.405550 -0.111202
C53   C     C_R   0.116478 0.121297 0.016912 0.034572
C54   C     C_R   0.121000 0.028701 0.958486 -0.202071
C55   C     C_R   0.024936 0.932777 0.872322 -0.199118
C56   C     C_R   0.800564 0.499513 0.590939 -0.130476
C57   C     C_R   0.925251 0.930218 0.845754 0.037609
C58   C     C_R   0.926887 0.030406 0.883745 0.157160
C59   C     C_3   0.860526 0.066777 0.924859 -0.530307
C60   C     C_3   0.963948 0.170633 0.016074 -0.520854
C61   C     C_R   0.443644 0.532637 0.757759 -0.115103
C62   C     C_R   0.289267 0.198877 0.196212 -0.122568
C63   C     C_R   0.197521 0.198949 0.132840 0.077287
C64   C     C_1   0.109676 0.375240 0.580595 0.062151
C65   C     C_1   0.670417 0.495136 0.985030 0.107419
C66   C     C_R   0.497037 0.404235 0.197838 -0.146927
C67   C     C_R   0.723554 0.815016 0.762628 -0.138512
C68   C     C_R   0.814360 0.723461 0.757427 -0.124196
H1    H     H_    0.155700 0.329827 0.168394 0.100740
H2    H     H_    0.272654 0.826152 0.462123 0.114918
H3    H     H_    0.213528 0.722581 0.548037 0.107184
H4    H     H_    0.556943 0.378484 0.753826 0.096242
H5    H     H_    0.911464 0.491288 0.240533 0.114775
H6    H     H_    0.971069 0.597738 0.157056 0.113281
H7    H     H_    0.880705 0.542866 0.412992 0.142511
H8    H     H_    0.999174 0.491919 0.755966 0.099830
H9    H     H_    0.981934 0.390900 0.855584 0.105609
H10   H     H_    0.907040 0.190179 0.758330 0.106651
H11   H     H_    0.841263 0.089236 0.558546 0.115609
H12   H     H_    0.859648 0.532579 0.675753 0.088280
H13   H     H_    0.852342 0.188398 0.456438 0.107996
H14   H     H_    0.301377 0.463209 0.828271 0.131729
H15   H     H_    0.477642 0.150046 0.322778 0.098685
H16   H     H_    0.287910 0.449776 0.980603 0.124023
H17   H     H_    0.627887 0.441190 0.115013 0.204931
H18   H     H_    0.570024 0.290890 0.027605 0.179605
H19   H     H_    0.594940 0.317890 0.888151 0.120711
H20   H     H_    0.687120 0.028248 0.669634 0.124158
H21   H     H_    0.695731 0.192559 0.671565 0.129680
H22   H     H_    0.373464 0.973940 0.306513 0.201673
H23   H     H_    0.517335 0.341115 0.171131 0.101127
H24   H     H_    0.439678 0.960316 0.221098 0.188041
H25   H     H_    0.361453 0.812978 0.306113 0.196973
H26   H     H_    0.302554 0.616970 0.674759 0.092161
H27   H     H_    0.427380 0.797976 0.220441 0.191921
H28   H     H_    0.194827 0.024820 0.987461 0.123459
H29   H     H_    0.028777 0.859063 0.837357 0.126149
H30   H     H_    0.804604 0.080180 0.866659 0.183011
H31   H     H_    0.823916 0.017831 0.957176 0.201640
H32   H     H_    0.968040 0.243756 0.009883 0.186244
H33   H     H_    0.983527 0.179148 0.098308 0.204186
H34   H     H_    0.703551 0.878088 0.783080 0.099168
H35   H     H_    0.652348 0.320677 0.674091 0.087135
H36   H     H_    0.125255 0.424949 0.319918 0.098676
H37   H     H_    0.397845 0.569832 0.777189 0.089771
H38   H     H_    0.319403 0.145467 0.168139 0.082402
H39   H     H_    0.438715 0.695132 0.320022 0.110168
H40   H     H_    0.877166 0.702067 0.768051 0.090714
H41   H     H_    0.346234 0.517722 0.164269 0.084739
H42   H     H_    0.581046 0.881082 0.670331 0.085789
H43   H     H_    0.680931 0.357142 0.321645 0.097063
H44   H     H_    0.151922 0.764349 0.266926 0.105255
N1    N     N_R   0.291070 0.347930 0.293870 -0.038517
N2    N     N_R   0.497240 0.291100 0.443210 -0.038127
N3    N     N_R   0.347890 0.554050 0.556810 -0.038762
N4    N     N_R   0.554050 0.347900 0.556830 -0.039111
N5    N     N_R   0.291070 0.497250 0.443190 -0.041698
N6    N     N_R   0.497240 0.554030 0.706140 -0.043310
N7    N     N_R   0.347890 0.291110 0.293870 -0.039191
N8    N     N_R   0.445950 0.652100 0.443170 -0.039889
N9    N     N_1   0.156465 0.333697 0.610148 -0.085446
N10   N     N_1   0.736672 0.583146 0.019423 -0.099282
N11   N     N_R   0.708930 0.502750 0.556810 -0.039879
N12   N     N_R   0.502760 0.445970 0.293860 -0.038530
N13   N     N_R   0.652110 0.708890 0.706130 -0.041116
N14   N     N_R   0.708930 0.652070 0.706130 -0.041662
N15   N     N_R   0.445950 0.502780 0.293850 -0.038425
N16   N     N_R   0.502760 0.708900 0.556790 -0.039703
N17   N     N_R   0.652110 0.445950 0.443190 -0.038260
N18   N     N_R   0.554050 0.497220 0.706150 -0.043996
Ni1   Ni    Ni4+2 0.369690 0.500010 0.369700 0.210771
Ni2   Ni    Ni4+2 0.630310 0.499990 0.630300 0.214339
Ni3   Ni    Ni4+2 0.500000 0.369720 0.369720 0.203893
Ni4   Ni    Ni4+2 0.500000 0.630280 0.630280 0.211659

loop_
_geom_bond_atom_site_label_1
_geom_bond_atom_site_label_2
_ccdc_geom_bond_type
N13   Ni4   S    
C25   C31   A    
C2    H41   S    
C8    C66   A    
C18   H7    S    
C6    C45   A    
N11   Ni2   S    
C27   C29   A    
N8    Ni1   S    
C59   H31   S    
C35   C36   A    
C49   H22   S    
C27   H10   S    
C39   C41   S    
C46   H21   S    
C40   N4    A    
C53   C54   A    
C26   C27   A    
N7    Ni3   S    
N12   Ni3   S    
C18   C24   A    
C36   C37   A    
C37   C38   A    
C67   N13   A    
C38   C39   S    
C11   H3    S    
C50   H27   S    
C10   C17   A    
C23   C40   A    
C28   H26   S    
C18   C19   A    
C46   C47   A    
C53   C63   S    
C21   C64   S    
C13   C14   A    
N1    N7    A    
C19   C20   A    
N3    N5    A    
N4    Ni2   S    
C32   C41   S    
C32   C38   A    
C4    C12   A    
C29   C30   A    
C61   H37   S    
C54   H28   S    
N6    Ni4   S    
C4    N18   A    
C2    N15   A    
C3    C6    A    
C5    N17   A    
C28   C34   A    
C59   C60   S    
C21   C22   A    
N11   N17   A    
C1    N1    A    
C7    C56   A    
C41   H19   S    
C1    C63   A    
C35   H14   S    
C44   C46   A    
C64   N9    T    
C22   C34   S    
C26   H9    S    
C23   C47   S    
C14   H5    S    
C9    C57   S    
C5    C7    A    
C3    N16   A    
C41   C65   S    
C5    H43   S    
C25   C26   A    
C16   H15   S    
C1    H1    S    
C13   C24   S    
C51   C53   A    
N18   Ni2   S    
C43   C44   A    
C9    C67   A    
C62   C63   A    
N6    N18   A    
C28   N3    A    
N16   Ni4   S    
C47   C48   A    
C29   H11   S    
N14   Ni2   S    
C55   H29   S    
C56   N11   A    
C51   C58   A    
C42   C48   A    
C65   N10   T    
C62   N7    A    
C42   C50   S    
N12   N15   A    
N17   Ni3   S    
C10   H2    S    
C45   N8    A    
C48   C49   S    
C16   C23   A    
C7    C19   S    
C6    C43   S    
C55   C57   A    
N13   N14   A    
C22   C24   A    
C8    C37   S    
C39   H17   S    
C49   H24   S    
C60   H33   S    
C17   H44   S    
C68   N14   A    
C4    H4    S    
C15   C17   A    
C54   C55   A    
C52   H36   S    
N1    Ni1   S    
C61   N6    A    
C3    H42   S    
C2    C8    A    
C60   H32   S    
C16   N2    A    
N2    N4    A    
N8    N16   A    
C50   H25   S    
C66   H23   S    
C62   H38   S    
N3    Ni4   S    
C34   C52   A    
C56   H12   S    
C25   H8    S    
C32   C33   A    
C30   H13   S    
C58   C59   S    
C9    C68   A    
C52   N5    A    
C40   H35   S    
C12   C61   A    
C11   C13   A    
C57   C58   A    
C30   C31   A    
C36   H16   S    
C33   C35   A    
N2    Ni3   S    
C66   N12   A    
N5    Ni1   S    
N15   Ni1   S    
C10   C11   A    
C15   H6    S    
C20   C21   A    
C49   C50   S    
C42   C43   A    
C59   H30   S    
C14   C15   A    
C51   C60   S    
C68   H40   S    
C39   H18   S    
C12   C33   S    
C44   H20   S    
C45   H39   S    
C67   H34   S    
C20   C31   S    
