data_mof_unit_34960.cif
_audit_creation_date              2012-12-10T21:00:41-0500
_audit_creation_method            fapswitch 2.2
_symmetry_space_group_name_H-M    P1
_symmetry_Int_Tables_number       1
_space_group_crystal_system       triclinic
_cell_length_a                    18.121914
_cell_length_b                    18.178083
_cell_length_c                    18.326333
_cell_angle_alpha                 119.952532
_cell_angle_beta                  89.821431
_cell_angle_gamma                 119.876955
_cell_volume                      4286.39927029

loop_
_atom_site_label
_atom_site_type_symbol
_atom_type_description
_atom_site_fract_x
_atom_site_fract_y
_atom_site_fract_z
_atom_type_partial_charge
C1    C     C_R   0.109524 0.220173 0.610010 0.855257
C2    C     C_3   0.450165 0.897611 0.947394 -0.000094
C3    C     C_2   0.389725 0.248037 0.999548 0.902783
C4    C     C_2   0.159659 0.545931 0.454138 0.984319
C5    C     C_2   0.840436 0.454119 0.545845 0.984871
C6    C     C_2   0.197643 0.953189 0.998694 0.899959
C7    C     C_2   0.805153 0.047464 0.001987 0.910524
C8    C     C_2   0.234536 0.759414 0.096644 0.900085
C9    C     C_2   0.765169 0.239930 0.904412 0.901012
C10   C     C_2   0.939515 0.590261 0.870188 0.982319
C11   C     C_2   0.061597 0.411162 0.129974 0.967612
C12   C     C_2   0.951867 0.338464 0.320318 0.970306
C13   C     C_3   0.469940 0.031674 0.068817 -0.118557
C14   C     C_2   0.048253 0.661651 0.679586 0.972033
C15   C     C_2   0.569094 0.673638 0.493724 0.882322
C16   C     C_2   0.430826 0.326276 0.506211 0.880733
C17   C     C_3   0.530152 0.968309 0.931098 -0.117888
C18   C     C_3   0.431159 0.496605 0.466714 -0.185793
C19   C     C_3   0.568816 0.503348 0.533266 -0.187472
C20   C     C_3   0.449964 0.412481 0.416884 -0.201057
C21   C     C_3   0.550014 0.587477 0.583096 -0.204056
C22   C     C_3   0.550596 0.499020 0.448725 -0.048476
C23   C     C_3   0.449385 0.500941 0.551258 -0.047942
C24   C     C_3   0.532190 0.581934 0.497692 0.007853
C25   C     C_R   0.890540 0.779858 0.390024 0.846747
C26   C     C_3   0.467781 0.418018 0.502285 0.009725
C27   C     C_R   0.253990 0.190497 0.782912 -0.093161
C28   C     C_R   0.745072 0.805562 0.216552 -0.090820
C29   C     C_R   0.392810 0.781249 0.888285 0.813073
C30   C     C_R   0.607203 0.218749 0.111688 0.813904
C31   C     C_R   0.201420 0.142172 0.697488 -0.154436
C32   C     C_R   0.798691 0.858087 0.302807 -0.154578
C33   C     C_R   0.110510 0.105770 0.679445 0.075984
C34   C     C_R   0.889740 0.894939 0.320961 0.073769
C35   C     C_R   0.071466 0.118160 0.748531 -0.010389
C36   C     C_3   0.978914 0.425682 0.415043 -0.046182
C37   C     C_R   0.927964 0.879220 0.251212 0.000884
C38   C     C_R   0.126259 0.169174 0.835922 -0.055612
C39   C     C_R   0.873341 0.829084 0.164105 -0.061822
C40   C     C_R   0.216817 0.203792 0.851319 -0.140298
C41   C     C_R   0.782010 0.791348 0.147964 -0.144537
C42   C     C_R   0.008928 0.944831 0.529106 -0.076578
C43   C     C_R   0.990292 0.055250 0.471591 -0.014268
C44   C     C_R   0.949940 0.892456 0.444227 -0.118688
C45   C     C_R   0.050012 0.107631 0.555984 -0.069745
C46   C     C_R   0.943910 0.947827 0.413671 -0.073711
C47   C     C_3   0.021164 0.574359 0.584900 -0.047892
C48   C     C_R   0.056024 0.052349 0.586649 -0.077688
C49   C     C_R   0.642860 0.545736 0.769031 -0.126733
C50   C     C_R   0.355871 0.452856 0.229699 -0.137264
C51   C     C_R   0.597053 0.508019 0.817286 -0.027622
C52   C     C_R   0.401850 0.490662 0.181563 -0.032853
C53   C     C_R   0.111416 0.501299 0.890190 0.822402
C54   C     C_R   0.888553 0.498676 0.109788 0.823185
C55   C     C_R   0.585087 0.573721 0.894248 -0.047976
C56   C     C_R   0.414571 0.425318 0.105082 -0.056966
C57   C     C_R   0.620739 0.676937 0.921313 0.012115
C58   C     C_3   0.414189 0.964621 0.969224 -0.109761
C59   C     C_R   0.379464 0.322341 0.078365 0.017078
C60   C     C_R   0.665596 0.710379 0.870288 -0.126563
C61   C     C_R   0.334439 0.288812 0.129275 -0.104739
C62   C     C_R   0.676427 0.645575 0.795211 -0.121933
C63   C     C_R   0.322857 0.353265 0.203868 -0.139221
C64   C     C_R   0.589042 0.534940 0.004156 -0.194675
C65   C     C_R   0.410640 0.463926 0.995057 -0.196046
C66   C     C_R   0.550322 0.499474 0.055695 0.031671
C67   C     C_R   0.449503 0.499871 0.943840 0.035483
C68   C     C_R   0.459857 0.462748 0.051100 0.106101
C69   C     C_3   0.585916 0.035373 0.030688 -0.109849
C70   C     C_R   0.539878 0.536330 0.948261 0.101905
C71   C     C_R   0.211699 0.848329 0.041134 -0.184314
C72   C     C_R   0.789671 0.151654 0.959631 -0.206908
C73   C     C_R   0.175367 0.759003 0.039831 0.003627
C74   C     C_R   0.825162 0.240862 0.960904 -0.004571
C75   C     C_R   0.084679 0.673478 0.985852 -0.024779
C76   C     C_R   0.915795 0.326786 0.014598 -0.020563
C77   C     C_R   0.392310 0.500593 0.607949 0.820576
C78   C     C_R   0.607687 0.499396 0.392049 0.821534
C79   C     C_R   0.033482 0.678428 0.931825 -0.035608
C80   C     C_3   0.494907 0.036718 0.953670 -0.150251
C81   C     C_R   0.967746 0.322358 0.068445 -0.014110
C82   C     C_R   0.072198 0.769803 0.936033 -0.207270
C83   C     C_R   0.930085 0.230817 0.063821 -0.154681
C84   C     C_R   0.160221 0.855397 0.991376 -0.034914
C85   C     C_R   0.842003 0.144960 0.008934 -0.020434
C86   C     C_R   0.985773 0.578044 0.042395 -0.129370
C87   C     C_R   0.013875 0.421682 0.957274 -0.136526
C88   C     C_R   0.944398 0.496924 0.052752 -0.008547
C89   C     C_R   0.055435 0.502937 0.947107 -0.009825
C90   C     C_R   0.958478 0.417453 0.009475 0.074756
C91   C     C_3   0.505198 0.963273 0.046246 -0.151880
C92   C     C_R   0.041420 0.582450 0.990455 0.074952
C93   C     C_R   0.393866 0.498988 0.887676 0.817434
C94   C     C_R   0.606106 0.500889 0.112228 0.818367
C95   C     C_R   0.109719 0.501019 0.608094 0.892271
C96   C     C_R   0.890306 0.499001 0.391898 0.892381
C97   C     C_3   0.075104 0.519829 0.478451 -0.050321
C98   C     C_3   0.924975 0.480210 0.521501 -0.050500
C99   C     C_3   0.043340 0.592446 0.511310 -0.286170
C100  C     C_3   0.956735 0.407587 0.488630 -0.285704
C101  C     C_3   0.946831 0.497368 0.447930 -0.106196
C102  C     C_3   0.549920 0.102383 0.052529 0.001303
C103  C     C_3   0.053241 0.502672 0.552028 -0.106355
C104  C     C_2   0.973610 0.073427 0.727965 0.972545
C105  C     C_2   0.022134 0.909189 0.268520 0.978658
C106  C     C_2   0.093112 0.191248 0.913552 0.948111
C107  C     C_2   0.910385 0.820784 0.090034 0.926886
C108  C     C_2   0.027938 0.888359 0.554641 0.954828
C109  C     C_2   0.970774 0.111790 0.446554 0.958994
C110  C     C_2   0.563133 0.399923 0.785057 0.907102
C111  C     C_2   0.435168 0.598480 0.213409 0.906684
C112  C     C_2   0.611160 0.751568 0.000579 0.894717
H1    H     H_    0.711222 0.673028 0.756929 0.167623
H2    H     H_    0.920794 0.331728 0.479463 0.173767
H3    H     H_    0.259548 0.243545 0.917416 0.165002
H4    H     H_    0.739631 0.752704 0.082038 0.158566
H5    H     H_    0.324045 0.218358 0.796369 0.205829
H6    H     H_    0.674803 0.776809 0.202921 0.206362
H7    H     H_    0.231354 0.132587 0.644994 0.149077
H8    H     H_    0.769102 0.869105 0.355590 0.152419
H9    H     H_    0.855313 0.985550 0.738292 0.363830
H10   H     H_    0.151922 0.016772 0.347963 0.368835
H11   H     H_    0.104794 0.214958 0.034172 0.379857
H12   H     H_    0.287907 0.325733 0.242043 0.169512
H13   H     H_    0.013956 0.887447 0.051538 0.360761
H14   H     H_    0.064565 0.790798 0.521936 0.340442
H15   H     H_    0.934907 0.210220 0.480604 0.338639
H16   H     H_    0.652326 0.497309 0.709970 0.194606
H17   H     H_    0.345855 0.501036 0.288406 0.197304
H18   H     H_    0.476279 0.272074 0.780993 0.358372
H19   H     H_    0.521910 0.726513 0.217650 0.358863
H20   H     H_    0.628106 0.890000 0.071189 0.344526
H21   H     H_    0.373638 0.110080 0.929541 0.343997
H22   H     H_    0.282557 0.573787 0.477046 0.345524
H23   H     H_    0.693089 0.787603 0.888472 0.215037
H24   H     H_    0.717532 0.426258 0.522976 0.345595
H25   H     H_    0.657845 0.560528 0.006255 0.167318
H26   H     H_    0.341728 0.437975 0.992737 0.154025
H27   H     H_    0.179989 0.029161 0.957147 0.379282
H28   H     H_    0.823705 0.972116 0.043711 0.367028
H29   H     H_    0.280101 0.914337 0.083443 0.194307
H30   H     H_    0.721233 0.085430 0.917685 0.196279
H31   H     H_    0.361493 0.818639 0.159091 0.360876
H32   H     H_    0.637715 0.179762 0.842413 0.360732
H33   H     H_    0.821504 0.543159 0.799113 0.380465
H34   H     H_    0.307332 0.211758 0.111331 0.215104
H35   H     H_    0.180628 0.459429 0.200159 0.380915
H36   H     H_    0.033016 0.774846 0.896494 0.246606
H37   H     H_    0.969977 0.226092 0.102994 0.233377
H38   H     H_    0.850568 0.203500 0.209825 0.349140
H39   H     H_    0.149612 0.796618 0.790034 0.352034
H40   H     H_    0.491255 0.067864 0.915935 0.168543
H41   H     H_    0.508893 0.932112 0.083955 0.169283
H42   H     H_    0.343065 0.934084 0.942389 0.174503
H43   H     H_    0.657051 0.065801 0.057359 0.173894
H44   H     H_    0.445640 0.058762 0.125979 0.175516
H45   H     H_    0.975991 0.639759 0.075942 0.188517
H46   H     H_    0.554479 0.941245 0.873951 0.174474
H47   H     H_    0.374361 0.494290 0.440474 0.176230
H48   H     H_    0.625613 0.505656 0.559498 0.175978
H49   H     H_    0.543102 0.749153 0.458309 0.365519
H50   H     H_    0.456748 0.250584 0.541429 0.363929
H51   H     H_    0.023433 0.359808 0.923452 0.188045
H52   H     H_    0.410000 0.340529 0.348414 0.177351
H53   H     H_    0.589978 0.659438 0.651560 0.175967
H54   H     H_    0.079271 0.668285 0.520436 0.173655
O1    O     O_3   0.251620 0.500000 0.748430 -0.512555
O2    O     O_R   0.570330 0.268390 0.136490 -0.617491
O3    O     O_R   0.134680 0.268390 0.572240 -0.616101
O4    O     O_R   0.865320 0.731610 0.427760 -0.614476
O5    O     O_R   0.306670 0.731630 0.863510 -0.639168
O6    O     O_R   0.693330 0.268370 0.136490 -0.639455
O7    O     O_R   0.135450 0.439270 0.865360 -0.640578
O8    O     O_R   0.864550 0.560730 0.134640 -0.636253
O9    O     O_R   0.429670 0.560710 0.692610 -0.652063
O10   O     O_R   0.570330 0.439290 0.307390 -0.651500
O11   O     O_R   0.308540 0.439240 0.865360 -0.655711
O12   O     O_3   0.748380 0.500000 0.251570 -0.511650
O13   O     O_R   0.691460 0.560760 0.134640 -0.650440
O14   O     O_R   0.133580 0.439310 0.571150 -0.601333
O15   O     O_R   0.866420 0.560690 0.428850 -0.601131
O16   O     O_R   0.430770 0.560690 0.864590 -0.649297
O17   O     O_R   0.569230 0.439310 0.135410 -0.650226
O18   O     O_R   0.133580 0.560760 0.692610 -0.631352
O19   O     O_R   0.866420 0.439240 0.307390 -0.632042
O20   O     O_2   0.939135 0.089942 0.685919 -0.601680
O21   O     O_R   0.920770 0.011444 0.756126 -0.737487
O22   O     O_2   0.039119 0.848487 0.217272 -0.622599
O23   O     O_R   0.134680 0.560740 0.864590 -0.645329
O24   O     O_R   0.091184 0.006094 0.343464 -0.760567
O25   O     O_2   0.033079 0.204533 0.916271 -0.638282
O26   O     O_R   0.132963 0.200109 0.985352 -0.796426
O27   O     O_2   0.862727 0.747466 0.013023 -0.611532
O28   O     O_R   0.998310 0.899226 0.107741 -0.754908
O29   O     O_2   0.020089 0.895900 0.623922 -0.586489
O30   O     O_R   0.053789 0.825375 0.497954 -0.798187
O31   O     O_2   0.977040 0.103437 0.376725 -0.573067
O32   O     O_R   0.946202 0.175710 0.504317 -0.793716
O33   O     O_2   0.596998 0.358696 0.737689 -0.582793
O34   O     O_R   0.865320 0.439260 0.135410 -0.647938
O35   O     O_R   0.491932 0.344011 0.806796 -0.821294
O36   O     O_2   0.400557 0.639129 0.260036 -0.585404
O37   O     O_R   0.506669 0.654799 0.192166 -0.820348
O38   O     O_2   0.580928 0.731899 0.052940 -0.654180
O39   O     O_R   0.636975 0.845596 0.015360 -0.781924
O40   O     O_2   0.419887 0.267603 0.947114 -0.655781
O41   O     O_R   0.364595 0.154421 0.985246 -0.780947
O42   O     O_2   0.167596 0.559840 0.395042 -0.569993
O43   O     O_R   0.229172 0.555467 0.499415 -0.805850
O44   O     O_2   0.832534 0.440238 0.604957 -0.571094
O45   O     O_R   0.306670 0.439270 0.571150 -0.598412
O46   O     O_R   0.770900 0.444563 0.500582 -0.805467
O47   O     O_2   0.271910 0.030308 0.052284 -0.624353
O48   O     O_R   0.147657 0.958020 0.945266 -0.782472
O49   O     O_2   0.730609 0.970290 0.949081 -0.629283
O50   O     O_R   0.855871 0.043025 0.055123 -0.782218
O51   O     O_2   0.202579 0.704635 0.123838 -0.577429
O52   O     O_R   0.328132 0.824772 0.120454 -0.830200
O53   O     O_2   0.796354 0.294861 0.877308 -0.578406
O54   O     O_R   0.671683 0.173926 0.880822 -0.829210
O55   O     O_2   0.911389 0.501460 0.843212 -0.576441
O56   O     O_R   0.693330 0.560730 0.428850 -0.599942
O57   O     O_R   0.883409 0.608781 0.840966 -0.726825
O58   O     O_2   0.088562 0.499840 0.157645 -0.572343
O59   O     O_R   0.118930 0.393402 0.158288 -0.777462
O60   O     O_2   0.009108 0.337606 0.285225 -0.592670
O61   O     O_R   0.860854 0.257815 0.273032 -0.785605
O62   O     O_2   0.991022 0.662693 0.714630 -0.588665
O63   O     O_R   0.139291 0.742194 0.726867 -0.785039
O64   O     O_2   0.650449 0.737930 0.521166 -0.603793
O65   O     O_R   0.510275 0.684794 0.458239 -0.803897
O66   O     O_2   0.349458 0.262082 0.478868 -0.603868
O67   O     O_R   0.135450 0.268370 0.694460 -0.637631
O68   O     O_R   0.489610 0.314959 0.541523 -0.805189
O69   O     O_R   0.864550 0.731630 0.305540 -0.649325
O70   O     O_R   0.429670 0.731610 0.863510 -0.617399
Zn1   Zn    Zn3+2 0.207400 0.586780 0.791530 1.022618
Zn2   Zn    Zn3+2 0.792600 0.413220 0.208470 1.020351
Zn3   Zn    Zn3+2 0.208510 0.413230 0.792630 1.004587
Zn4   Zn    Zn3+2 0.791490 0.586770 0.207370 1.006134
Zn5   Zn    Zn3+2 0.383150 0.586740 0.791530 1.003852
Zn6   Zn    Zn3+2 0.616850 0.413260 0.208470 1.004726
Zn7   Zn    Zn3+2 0.207400 0.413250 0.618010 1.072201
Zn8   Zn    Zn3+2 0.792600 0.586750 0.381990 1.068473

loop_
_geom_bond_atom_site_label_1
_geom_bond_atom_site_label_2
_ccdc_geom_bond_type
C25   O4    A    
C87   H51   S    
O16   Zn5   S    
C17   C69   S    
C34   C37   A    
O69   Zn4   S    
C109  O31   D    
C78   O56   A    
C106  O26   S    
C96   O15   A    
O23   Zn1   S    
O12   Zn4   S    
C63   H12   S    
H35   O59   S    
C21   H53   S    
C29   O70   A    
H39   O63   S    
C69   C102  S    
C11   C81   S    
C39   C107  S    
C5    O44   D    
C43   C46   A    
C69   H43   S    
C47   C98   S    
C74   C76   A    
C2    C29   S    
C18   C24   S    
C19   H48   S    
C105  O22   D    
O4    Zn8   S    
C19   C21   S    
C32   H8    S    
C112  O39   S    
H32   O54   S    
C86   C88   A    
C95   O18   A    
C45   C48   A    
C40   H3    S    
C66   C68   A    
H27   O48   S    
C20   H52   S    
C28   C41   A    
H38   O61   S    
C47   C99   S    
C25   C44   S    
C54   C88   S    
C60   C62   A    
C23   C26   S    
C61   C63   A    
C19   C26   S    
O6    Zn2   S    
C14   O63   S    
C18   H47   S    
C58   H42   S    
C10   O55   D    
C97   C99   S    
H24   O46   S    
C21   C23   S    
O2    Zn6   S    
C1    O67   A    
C65   C67   A    
C50   C52   A    
C31   C33   A    
C4    O42   D    
C36   C97   S    
C34   C46   S    
O17   Zn6   S    
C64   C70   A    
C12   C36   S    
H19   O37   S    
C18   C20   S    
C7    O50   S    
C83   C85   A    
O15   Zn8   S    
C58   C80   S    
C66   C94   S    
C99   H54   S    
C57   C112  S    
C9    O53   D    
O12   Zn2   S    
O1    Zn3   S    
H20   O39   S    
C77   O9    A    
H22   O43   S    
H49   O65   S    
C96   C101  S    
C13   C91   S    
C2    C17   S    
C78   O10   A    
C50   C63   A    
C73   C75   A    
C109  O32   S    
C42   C44   A    
C106  O25   D    
O3    Zn7   S    
C54   O34   A    
C96   O19   A    
C111  O36   D    
C81   C83   A    
C95   C103  S    
H10   O24   S    
O12   Zn8   S    
C64   H25   S    
C27   H5    S    
C72   C85   A    
C16   C26   S    
C19   C22   S    
C4    C97   S    
C97   C103  S    
C59   C61   A    
C47   C103  S    
C27   C31   A    
C18   C23   S    
O11   Zn3   S    
O45   Zn7   S    
C28   C32   A    
C35   C38   A    
C100  H2    S    
C22   C78   S    
C62   H1    S    
C72   C74   A    
C35   C104  S    
C111  O37   S    
C71   C73   A    
O56   Zn8   S    
C12   O61   S    
C13   C58   S    
O5    Zn1   S    
C52   C111  S    
C49   C51   A    
C32   C34   A    
C56   C68   S    
C11   O58   D    
C16   O66   D    
C17   C80   S    
C23   C77   S    
C4    O43   S    
C80   C102  S    
C36   C101  S    
C108  O29   D    
C64   C66   A    
O70   Zn5   S    
C38   C106  S    
H28   O50   S    
C72   H30   S    
C61   H34   S    
C13   H44   S    
C37   C105  S    
O13   Zn4   S    
C50   H17   S    
O8    Zn4   S    
H9    O21   S    
O1    Zn5   S    
C93   O16   A    
C12   O60   D    
O19   Zn2   S    
C6    O48   S    
C16   O68   S    
C27   C40   A    
C11   O59   S    
C65   C68   A    
C31   H7    S    
C30   C102  S    
C2    C58   S    
C36   C100  S    
C42   C48   A    
C29   O5    A    
C89   C92   A    
C17   H46   S    
C43   C45   A    
C60   H23   S    
C30   O6    A    
C53   O7    A    
H18   O35   S    
C75   C92   S    
C104  O21   S    
C65   H26   S    
C10   O57   S    
C9    O54   S    
C15   C24   S    
C99   C101  S    
C20   C22   S    
C51   C110  S    
C82   C84   A    
C55   C57   A    
C15   O64   D    
C53   C89   S    
C22   C24   S    
C21   C24   S    
C25   O69   A    
C108  O30   S    
C9    C74   S    
C112  O38   D    
C41   H4    S    
H15   O32   S    
O18   Zn1   S    
C107  O27   D    
O10   Zn6   S    
C71   C84   A    
O14   Zn7   S    
C80   H40   S    
C49   H16   S    
C55   C70   S    
C93   O11   A    
C49   C62   A    
C15   O65   S    
C110  O33   D    
C3    O40   D    
C105  O24   S    
C88   C90   A    
C57   C60   A    
C76   C81   A    
C8    O51   D    
C79   C82   A    
C82   H36   S    
C10   C79   S    
O7    Zn3   S    
C91   H41   S    
C14   C47   S    
H33   O57   S    
H21   O41   S    
C98   C101  S    
C104  O20   D    
O1    Zn7   S    
C56   C59   A    
C71   H29   S    
C67   C70   A    
C3    O41   S    
C54   O8    A    
C87   C89   A    
O9    Zn5   S    
O67   Zn3   S    
C30   O2    A    
C37   C39   A    
C86   C92   A    
C75   C79   A    
H31   O52   S    
C38   C40   A    
C1    C45   S    
C14   O62   D    
C7    C85   S    
C6    O47   D    
C20   C26   S    
H13   O28   S    
H11   O26   S    
C5    O46   S    
C1    O3    A    
C8    C73   S    
C33   C35   A    
C51   C55   A    
C94   O13   A    
C100  C103  S    
C2    C91   S    
C86   H45   S    
O34   Zn2   S    
C110  O35   S    
C8    O52   S    
C77   O45   A    
H50   O68   S    
H14   O30   S    
C95   O14   A    
O1    Zn1   S    
C5    C98   S    
C39   C41   A    
C53   O23   A    
C6    C84   S    
C94   O17   A    
C87   C90   A    
C76   C90   S    
C67   C93   S    
C33   C48   S    
C44   C46   A    
C28   H6    S    
C43   C109  S    
C83   H37   S    
C13   C102  S    
C69   C91   S    
C42   C108  S    
C107  O28   S    
C7    O49   D    
C52   C56   A    
C98   C100  S    
O12   Zn6   S    
C3    C59   S    
