data_mof_unit_48698.cif
_audit_creation_date              2012-10-26T19:20:35-0400
_audit_creation_method            fapswitch 2.2
_symmetry_space_group_name_H-M    P1
_symmetry_Int_Tables_number       1
_space_group_crystal_system       triclinic
_cell_length_a                    10.761301
_cell_length_b                    11.040526
_cell_length_c                    9.89201
_cell_angle_alpha                 111.262178
_cell_angle_beta                  98.361854
_cell_angle_gamma                 91.481619
_cell_volume                      1079.6866731

loop_
_atom_site_label
_atom_site_type_symbol
_atom_type_description
_atom_site_fract_x
_atom_site_fract_y
_atom_site_fract_z
_atom_type_partial_charge
C1    C     C_R   0.490843 0.254138 0.440537 0.554458
C2    C     C_R   0.736610 0.483986 0.496137 0.541839
C3    C     C_R   0.147588 0.642201 0.773894 -0.095810
C4    C     C_R   0.852406 0.357769 0.226110 -0.095812
C5    C     C_R   0.098030 0.661930 0.901889 -0.145013
C6    C     C_R   0.901961 0.338035 0.098113 -0.145011
C7    C     C_R   0.988640 0.588338 0.895762 -0.114120
C8    C     C_R   0.011351 0.411625 0.104235 -0.114119
C9    C     C_R   0.925624 0.500017 0.760834 0.048366
C10   C     C_R   0.074370 0.499949 0.239159 0.048384
C11   C     C_R   0.957499 0.507030 0.629855 0.029904
C12   C     C_R   0.509157 0.745862 0.559463 0.554459
C13   C     C_R   0.042497 0.492942 0.370142 0.029901
C14   C     C_R   0.079333 0.560663 0.636410 -0.006650
C15   C     C_R   0.920664 0.439310 0.363589 -0.006653
C16   C     C_R   0.872492 0.464948 0.494676 -0.052552
C17   C     C_R   0.127503 0.535032 0.505322 -0.052552
C18   C     C_3   0.842183 0.387061 0.759355 -0.357959
C19   C     C_3   0.157775 0.612926 0.240634 -0.357968
C20   C     C_2   0.485799 0.114488 0.407186 -0.134355
C21   C     C_2   0.514202 0.885512 0.592814 -0.134356
C22   C     C_2   0.502721 0.069661 0.516276 -0.165942
C23   C     C_2   0.497281 0.930339 0.483724 -0.165943
C24   C     C_2   0.511176 0.510395 0.081192 -0.038099
C25   C     C_2   0.488823 0.489606 0.918808 -0.038109
C26   C     C_R   0.263389 0.516009 0.503862 0.541830
Cu1   Cu    Cu3+1 0.521920 0.521810 0.644910 0.915536
Cu2   Cu    Cu3+1 0.478080 0.478190 0.355090 0.915555
H1    H     H_    0.046033 0.402879 0.004403 0.114266
H2    H     H_    0.467995 0.047890 0.292882 0.099641
H3    H     H_    0.414497 0.417282 0.846192 0.153704
H4    H     H_    0.585502 0.582719 0.153808 0.153700
H5    H     H_    0.624996 0.622373 0.934224 0.202023
H6    H     H_    0.375005 0.377626 0.065776 0.202027
H7    H     H_    0.770503 0.422567 0.831505 0.155315
H8    H     H_    0.901192 0.321928 0.798118 0.094379
H9    H     H_    0.794739 0.324617 0.647136 0.141885
H10   H     H_    0.229406 0.577453 0.168416 0.155243
H11   H     H_    0.205272 0.675344 0.352837 0.141914
H12   H     H_    0.953951 0.597087 0.995592 0.114265
H13   H     H_    0.098727 0.678077 0.201952 0.094388
H14   H     H_    0.235313 0.696633 0.782095 0.136398
H15   H     H_    0.764679 0.303342 0.217914 0.136392
H16   H     H_    0.147767 0.729926 0.006012 0.107508
H17   H     H_    0.852219 0.270041 0.993995 0.107508
H18   H     H_    0.479300 0.864027 0.369218 0.153857
H19   H     H_    0.520702 0.135973 0.630782 0.153856
H20   H     H_    0.532005 0.952110 0.707118 0.099640
N1    N     N_2   0.445130 0.445420 0.137360 -0.364278
N2    N     N_2   0.554870 0.554580 0.862640 -0.364301
O1    O     O_R   0.511700 0.332340 0.577400 -0.502207
O2    O     O_R   0.488300 0.667660 0.422600 -0.502201
O3    O     O_R   0.474680 0.295500 0.332650 -0.490423
O4    O     O_R   0.525320 0.704500 0.667350 -0.490419
O5    O     O_R   0.338170 0.518410 0.622370 -0.495031
O6    O     O_R   0.661830 0.481590 0.377630 -0.495031
O7    O     O_R   0.301150 0.481570 0.377630 -0.486608
O8    O     O_R   0.698850 0.518430 0.622370 -0.486620

loop_
_geom_bond_atom_site_label_1
_geom_bond_atom_site_label_2
_ccdc_geom_bond_type
C25   H3    S    
C6    C8    A    
Cu2   O3    S    
C2    O8    A    
C3    H14   S    
C19   H10   S    
C2    C16   S    
Cu2   N1    S    
C1    O1    A    
Cu1   N2    S    
C13   C17   A    
C10   C19   S    
C7    H12   S    
C21   H20   S    
C26   O5    A    
C4    C15   A    
C24   H4    S    
C22   H19   S    
Cu2   O6    S    
Cu1   O4    S    
C23   H18   S    
C2    O6    A    
Cu2   O7    S    
Cu2   O2    S    
C14   C17   A    
C3    C14   A    
C19   H11   S    
Cu1   O8    S    
C17   C26   S    
C12   C21   S    
C1    C20   S    
C4    C6    A    
C12   O2    A    
C18   H9    S    
Cu1   O1    S    
C9    C11   A    
C13   C15   A    
C26   O7    A    
Cu1   O5    S    
C11   C16   A    
C8    H1    S    
C6    H17   S    
C4    H15   S    
C15   C16   A    
C7    C9    A    
C9    C18   S    
C24   N1    D    
C24   C25   S    
C8    C10   A    
C18   H7    S    
C11   C14   A    
C5    C7    A    
C1    O3    A    
C22   C23   S    
H6    N1    S    
C20   H2    S    
C3    C5    A    
H5    N2    S    
C25   N2    D    
C18   H8    S    
C21   C23   D    
C5    H16   S    
C12   O4    A    
C19   H13   S    
C20   C22   D    
Cu1   Cu2   S    
C10   C13   A    
