data_mof_unit_68125.cif
_audit_creation_date              2013-03-05T15:58:27-0500
_audit_creation_method            fapswitch 2.2
_symmetry_space_group_name_H-M    P1
_symmetry_Int_Tables_number       1
_space_group_crystal_system       triclinic
_cell_length_a                    7.246128
_cell_length_b                    14.017933
_cell_length_c                    16.20276
_cell_angle_alpha                 90.000042
_cell_angle_beta                  89.999969
_cell_angle_gamma                 89.999864
_cell_volume                      1645.80728541

loop_
_atom_site_label
_atom_site_type_symbol
_atom_site_description
_atom_site_fract_x
_atom_site_fract_y
_atom_site_fract_z
_atom_type_partial_charge
O1    O     O_R   0.388780 0.834790 0.412340 -0.591342
O2    O     O_R   0.111220 0.165210 0.912340 -0.591357
O3    O     O_R   0.888780 0.665210 0.587660 -0.591338
O4    O     O_R   0.611220 0.334790 0.087660 -0.591356
O5    O     O_R   0.059040 0.845930 0.587040 -0.591185
O6    O     O_R   0.440960 0.154070 0.087040 -0.591194
O7    O     O_R   0.559040 0.654070 0.412960 -0.591187
O8    O     O_R   0.940960 0.345930 0.912960 -0.591193
C1    C     C_R   0.227499 0.868584 0.614517 0.882416
C2    C     C_R   0.272501 0.131421 0.114521 0.882458
C3    C     C_R   0.727500 0.631416 0.385483 0.882413
C4    C     C_R   0.772501 0.368578 0.885478 0.882458
O9    O     O_R   0.059070 0.845930 0.412970 -0.591400
O10   O     O_R   0.440930 0.154070 0.912970 -0.591390
O11   O     O_R   0.559070 0.654070 0.587030 -0.591403
O12   O     O_R   0.940930 0.345930 0.087030 -0.591387
O13   O     O_R   0.888760 0.665210 0.412340 -0.581955
O14   O     O_R   0.611240 0.334790 0.912340 -0.581963
O15   O     O_R   0.388760 0.834790 0.587660 -0.581958
O16   O     O_R   0.111240 0.165210 0.087660 -0.581962
C5    C     C_R   0.227281 0.869168 0.385548 0.913711
C6    C     C_R   0.272720 0.130838 0.885544 0.913707
C7    C     C_R   0.727281 0.630832 0.614451 0.913713
C8    C     C_R   0.772720 0.369162 0.114456 0.913703
O17   O     O_3   0.222280 0.690700 0.500000 -0.283283
O18   O     O_3   0.277720 0.309300 0.000000 -0.283292
O19   O     O_3   0.722280 0.809300 0.500000 -0.283285
O20   O     O_3   0.777720 0.190700 0.000000 -0.283294
V1    V     V_3+5 0.947430 0.761000 0.500000 1.158311
V2    V     V_3+5 0.552570 0.239000 0.000000 1.158291
V3    V     V_3+5 0.447430 0.739000 0.500000 1.158306
V4    V     V_3+5 0.052570 0.261000 0.000000 1.158292
C9    C     C_3   0.930337 0.564101 0.728239 -0.331836
C10   C     C_3   0.569706 0.435836 0.228286 -0.331784
C11   C     C_3   0.430325 0.935885 0.271750 -0.331822
C12   C     C_3   0.069699 0.064163 0.771715 -0.331788
H1    H     H_    0.040315 0.547384 0.682588 0.156613
H2    H     H_    0.459665 0.452539 0.182659 0.156581
H3    H     H_    0.540321 0.952595 0.317396 0.156607
H4    H     H_    0.959655 0.047464 0.817345 0.156579
H5    H     H_    0.958660 0.637486 0.751259 0.193510
H6    H     H_    0.541468 0.362439 0.251302 0.193493
H7    H     H_    0.458623 0.862497 0.248728 0.193507
H8    H     H_    0.041464 0.137559 0.748693 0.193492
C13   C     C_3   0.945465 0.492766 0.800740 -0.371119
C14   C     C_3   0.554590 0.507156 0.300798 -0.371092
C15   C     C_3   0.445451 0.007219 0.199249 -0.371132
C16   C     C_3   0.054577 0.992834 0.699210 -0.371091
H9    H     H_    0.981645 0.531123 0.857940 0.165911
H10   H     H_    0.518582 0.468773 0.358005 0.165857
H11   H     H_    0.481599 0.968859 0.142048 0.165918
H12   H     H_    0.018529 0.031209 0.642001 0.165865
H13   H     H_    0.059461 0.441663 0.788147 0.166255
H14   H     H_    0.440485 0.558212 0.288247 0.166274
H15   H     H_    0.559464 0.058312 0.211836 0.166261
H16   H     H_    0.940492 0.941771 0.711775 0.166273
H17   H     H_    0.827809 0.438373 0.617157 0.125504
H18   H     H_    0.671986 0.561576 0.117186 0.125502
H19   H     H_    0.327861 0.061616 0.382836 0.125507
H20   H     H_    0.171990 0.938423 0.882812 0.125504
H21   H     H_    0.835324 0.330830 0.721050 0.141313
H22   H     H_    0.664426 0.669116 0.221066 0.141360
H23   H     H_    0.335375 0.169159 0.278947 0.141324
H24   H     H_    0.164458 0.830875 0.778936 0.141363
C17   C     C_3   0.707580 0.453066 0.657390 -0.230331
C18   C     C_3   0.792278 0.546928 0.157393 -0.230279
C19   C     C_3   0.207614 0.046935 0.342610 -0.230322
C20   C     C_3   0.292287 0.953071 0.842606 -0.230275
C21   C     C_3   0.593119 0.584968 0.754518 0.673021
C22   C     C_3   0.906972 0.415061 0.254503 0.673033
C23   C     C_3   0.093096 0.915042 0.245488 0.673020
C24   C     C_3   0.406968 0.084942 0.745495 0.673019
C25   C     C_3   0.735747 0.559626 0.686169 -0.110886
C26   C     C_3   0.764253 0.440362 0.186179 -0.110894
C27   C     C_3   0.235746 0.940373 0.313830 -0.110887
C28   C     C_3   0.264253 0.059638 0.813821 -0.110893
H25   H     H_    0.451285 0.584976 0.728773 0.010367
H26   H     H_    0.048781 0.415081 0.228730 0.010350
H27   H     H_    0.951268 0.915042 0.271239 0.010368
H28   H     H_    0.548780 0.084919 0.771266 0.010347
C29   C     C_3   0.761904 0.438146 0.813390 0.046322
C30   C     C_3   0.738098 0.561842 0.313400 0.046363
C31   C     C_3   0.261903 0.061853 0.186609 0.046316
C32   C     C_3   0.238096 0.938158 0.686600 0.046370
C33   C     C_3   0.722656 0.383115 0.732549 -0.389420
C34   C     C_3   0.777189 0.616878 0.232547 -0.389533
C35   C     C_3   0.222690 0.116884 0.267452 -0.389435
C36   C     C_3   0.277208 0.883121 0.767452 -0.389541
C37   C     C_3   0.605131 0.512726 0.827076 -0.488787
C38   C     C_3   0.894972 0.487309 0.327058 -0.488739
C39   C     C_3   0.105107 0.987284 0.172930 -0.488771
C40   C     C_3   0.394961 0.012696 0.672938 -0.488732
H29   H     H_    0.628850 0.551604 0.885764 0.175814
H30   H     H_    0.871368 0.448433 0.385761 0.175808
H31   H     H_    0.128801 0.948406 0.114240 0.175816
H32   H     H_    0.371342 0.051575 0.614237 0.175809
H33   H     H_    0.470013 0.475976 0.833818 0.139138
H34   H     H_    0.030057 0.524103 0.333759 0.139157
H35   H     H_    0.969999 0.024045 0.166196 0.139143
H36   H     H_    0.530053 0.975906 0.666231 0.139157
H37   H     H_    0.596216 0.339293 0.740838 0.209257
H38   H     H_    0.903586 0.660745 0.240801 0.209213
H39   H     H_    0.096259 0.160714 0.259170 0.209252
H40   H     H_    0.403618 0.839263 0.759195 0.209209
C41   C     C_R   0.537161 0.429420 0.605700 0.156448
C42   C     C_R   0.560322 0.397155 0.523935 -0.165822
C43   C     C_R   0.413416 0.355926 0.480675 -0.125018
C44   C     C_R   0.241195 0.346927 0.517897 -0.101405
C45   C     C_R   0.216648 0.377457 0.598939 -0.071906
C46   C     C_R   0.361504 0.420073 0.642065 -0.071064
H41   H     H_    0.694610 0.398986 0.495050 0.096790
H42   H     H_    0.434605 0.327722 0.419215 0.119729
H43   H     H_    0.128464 0.313870 0.484770 0.134661
H44   H     H_    0.088278 0.363747 0.630019 0.097418
H45   H     H_    0.339151 0.437986 0.705929 0.074179
C47   C     C_R   0.962617 0.570625 0.105665 0.156273
C48   C     C_R   0.939311 0.602913 0.023915 -0.165816
C49   C     C_R   0.086140 0.644142 0.980606 -0.125173
C50   C     C_R   0.258440 0.653119 0.017763 -0.101586
C51   C     C_R   0.283128 0.622587 0.098798 -0.071702
C52   C     C_R   0.138334 0.579979 0.141977 -0.070927
H46   H     H_    0.804965 0.601106 0.995086 0.096855
H47   H     H_    0.064829 0.672357 0.919157 0.119846
H48   H     H_    0.371122 0.686165 0.984593 0.134725
H49   H     H_    0.411561 0.636293 0.129831 0.097362
H50   H     H_    0.160797 0.562071 0.205836 0.074178
C53   C     C_R   0.037216 0.070595 0.394312 0.156406
C54   C     C_R   0.060417 0.102867 0.476073 -0.165793
C55   C     C_R   0.913535 0.144105 0.519344 -0.125084
C56   C     C_R   0.741296 0.153106 0.482136 -0.101436
C57   C     C_R   0.716707 0.122568 0.401099 -0.071845
C58   C     C_R   0.861543 0.079945 0.357961 -0.071046
H51   H     H_    0.194719 0.101039 0.504945 0.096804
H52   H     H_    0.934759 0.172315 0.580800 0.119756
H53   H     H_    0.628585 0.186172 0.515271 0.134670
H54   H     H_    0.588322 0.136279 0.370029 0.097405
H55   H     H_    0.839158 0.062030 0.294099 0.074177
C59   C     C_R   0.462621 0.929371 0.894339 0.156279
C60   C     C_R   0.439301 0.897069 0.976085 -0.165836
C61   C     C_R   0.586125 0.855831 0.019395 -0.125176
C62   C     C_R   0.758433 0.846859 0.982240 -0.101566
C63   C     C_R   0.783133 0.877402 0.901208 -0.071681
C64   C     C_R   0.638346 0.920021 0.858030 -0.070931
H56   H     H_    0.304949 0.898871 0.004912 0.096870
H57   H     H_    0.564802 0.827605 0.080841 0.119846
H58   H     H_    0.871108 0.813804 0.015409 0.134730
H59   H     H_    0.911568 0.863694 0.870175 0.097365
H60   H     H_    0.660817 0.937937 0.794172 0.074172
F1    F     F_    0.625034 0.676477 0.783901 -0.739968
F2    F     F_    0.875165 0.323549 0.283901 -0.739954
F3    F     F_    0.124981 0.823531 0.216102 -0.739969
F4    F     F_    0.375160 0.176457 0.716099 -0.739953

loop_
_geom_bond_atom_site_label_1
_geom_bond_atom_site_label_2
_geom_bond_distance
_ccdc_geom_bond_type
O17   V3    1.766382 S    
C31   C35   1.546489 S    
C41   C46   1.408704 A    
O1    C5    1.337962 A    
O19   V1    1.766378 S    
C9    C13   1.546569 S    
C43   H42   1.082377 S    
C20   C59   1.528518 S    
C56   H53   1.081715 S    
C10   H6    1.113335 S    
C6    C28   1.533103 S    
C24   C28   1.555910 S    
C11   C15   1.546573 S    
C54   C55   1.399464 A    
C23   H27   1.109175 S    
C17   C25   1.578092 S    
C50   H48   1.081721 S    
C44   C45   1.392483 A    
O7    C3    1.337579 A    
H22   C34   1.112862 S    
C11   C27   1.567403 S    
C18   C47   1.528498 S    
O9    V1    2.015011 S    
O10   V2    2.015011 S    
C18   C34   1.567237 S    
C59   C64   1.408763 A    
C22   C26   1.555898 S    
O4    C8    1.337962 A    
C22   H26   1.109176 S    
C42   C43   1.399462 A    
C18   C26   1.578072 S    
C2    C31   1.523544 S    
O1    V3    2.000255 S    
O13   V1    2.000286 S    
C47   C48   1.409918 A    
O2    V4    2.000254 S    
O3    V1    2.000255 S    
C49   C50   1.391794 A    
C12   C28   1.567444 S    
H19   C19   1.107415 S    
C14   C30   1.548388 S    
O3    C7    1.337962 A    
C1    O15   1.333866 A    
C23   F3    1.387667 S    
C2    O16   1.333865 A    
C24   F4    1.387691 S    
C22   F2    1.387669 S    
O2    C6    1.337961 A    
C43   C44   1.391759 A    
C21   C25   1.555876 S    
C10   C14   1.546577 S    
C15   C31   1.548358 S    
C11   H7    1.113336 S    
C29   C37   1.559696 S    
O11   C7    1.337602 A    
O15   V3    2.000282 S    
O12   C8    1.337603 A    
C22   C38   1.554122 S    
C7    C25   1.533098 S    
C21   C37   1.554107 S    
C17   C41   1.528481 S    
C36   H40   1.111257 S    
H18   C18   1.107411 S    
C38   H30   1.109464 S    
C12   C16   1.546577 S    
O5    V1    2.015035 S    
C42   H41   1.080068 S    
C3    C30   1.523537 S    
C64   H60   1.077099 S    
O7    V3    2.015034 S    
C47   C52   1.408745 A    
O8    V4    2.015035 S    
C12   H4    1.112309 S    
C61   C62   1.391817 A    
C57   H54   1.075088 S    
C45   C46   1.395316 A    
C51   H49   1.075104 S    
C15   H11   1.103058 S    
C58   H55   1.077068 S    
C30   C34   1.546498 S    
C39   H31   1.109399 S    
C9    H1    1.112254 S    
C16   C32   1.548410 S    
C37   H33   1.111720 S    
C44   H43   1.081710 S    
C11   H3    1.112267 S    
C48   H46   1.080054 S    
O5    C1    1.337578 A    
C19   C53   1.528495 S    
C60   H56   1.080073 S    
C13   H9    1.103079 S    
O8    C4    1.337579 A    
C14   H14   1.112288 S    
O9    C5    1.337601 A    
C20   C28   1.578096 S    
C50   C51   1.392518 A    
C17   C33   1.567295 S    
C53   C58   1.408722 A    
H21   C33   1.112842 S    
C62   H58   1.081727 S    
C10   C26   1.567412 S    
C35   H39   1.111219 S    
C45   H44   1.075072 S    
C9    C25   1.567404 S    
O6    V2    2.015037 S    
C62   C63   1.392539 A    
O14   V2    2.000286 S    
C20   C36   1.567235 S    
C12   H8    1.113359 S    
C19   C27   1.578087 S    
C57   C58   1.395329 A    
C34   H38   1.111246 S    
C33   H37   1.111228 S    
C51   C52   1.395357 A    
C40   H36   1.111759 S    
C15   H15   1.112247 S    
C55   C56   1.391774 A    
O16   V4    2.000285 S    
C16   H16   1.112302 S    
C5    C27   1.533098 S    
C3    O13   1.333866 A    
H23   C35   1.112835 S    
C10   H2    1.112280 S    
C63   H59   1.075122 S    
C13   C29   1.548370 S    
C32   C36   1.546517 S    
H17   C17   1.107413 S    
C61   H57   1.082417 S    
O6    C2    1.337581 A    
C60   C61   1.399457 A    
C8    C26   1.533103 S    
O11   V3    2.015009 S    
O18   V4    1.766381 S    
O12   V4    2.015006 S    
C31   C39   1.559693 S    
C41   C42   1.409913 A    
C14   H10   1.103068 S    
C19   C35   1.567284 S    
C30   C38   1.559715 S    
C21   F1    1.387668 S    
O10   C6    1.337604 A    
O20   V2    1.766379 S    
C56   C57   1.392497 A    
C9    H5    1.113329 S    
C52   H50   1.077081 S    
C24   H28   1.109185 S    
C48   C49   1.399444 A    
C23   C27   1.555874 S    
C21   H25   1.109178 S    
C24   C40   1.554121 S    
C38   H34   1.111736 S    
C4    C29   1.523545 S    
C40   H32   1.109482 S    
C49   H47   1.082400 S    
C37   H29   1.109399 S    
O4    V2    2.000253 S    
C59   C60   1.409943 A    
C1    C32   1.523537 S    
C13   H13   1.112263 S    
C55   H52   1.082389 S    
C16   H12   1.103086 S    
C23   C39   1.554109 S    
H20   C20   1.107417 S    
C4    O14   1.333867 A    
C63   C64   1.395372 A    
C32   C40   1.559737 S    
C39   H35   1.111719 S    
C54   H51   1.080072 S    
C46   H45   1.077063 S    
H24   C36   1.112876 S    
C29   C33   1.546501 S    
C53   C54   1.409924 A    
