data_mof_unit_27642.cif
_audit_creation_date              2012-12-10T18:11:42-0500
_audit_creation_method            fapswitch 2.2
_symmetry_space_group_name_H-M    P1
_symmetry_Int_Tables_number       1
_space_group_crystal_system       triclinic
_cell_length_a                    10.529396
_cell_length_b                    12.606268
_cell_length_c                    13.132394
_cell_angle_alpha                 82.437846
_cell_angle_beta                  90.39822
_cell_angle_gamma                 101.763918
_cell_volume                      1691.33619399

loop_
_atom_site_label
_atom_site_type_symbol
_atom_type_description
_atom_site_fract_x
_atom_site_fract_y
_atom_site_fract_z
_atom_type_partial_charge
C1    C     C_R   0.479864 0.439010 0.691035 0.844649
C2    C     C_3   0.059826 0.589328 0.538066 0.232986
C3    C     C_3   0.955527 0.500198 0.598349 -0.243837
C4    C     C_3   0.876310 0.497999 0.499956 -0.067568
C5    C     C_R   0.412454 0.704412 0.063858 -0.200342
C6    C     C_R   0.502818 0.596357 0.200100 -0.049098
C7    C     C_R   0.495359 0.299268 0.837895 -0.193630
C8    C     C_R   0.505435 0.269948 0.942740 -0.150480
C9    C     C_R   0.492985 0.343661 0.010212 -0.194633
C10   C     C_R   0.463682 0.446748 0.973466 0.084427
C11   C     C_R   0.432939 0.468204 0.869346 0.085226
C12   C     C_R   0.741853 0.499896 0.499503 0.888261
C13   C     C_R   0.464344 0.529493 0.036382 0.076612
C14   C     C_R   0.414345 0.623680 0.000053 0.175249
C15   C     C_R   0.365593 0.634967 0.901269 -0.255200
C16   C     C_R   0.374639 0.558132 0.836518 -0.203407
C17   C     C_R   0.516337 0.522044 0.133971 -0.258179
C18   C     C_R   0.455052 0.689980 0.164503 -0.214285
C19   C     C_R   0.463495 0.399844 0.800508 -0.113276
C20   C     C_R   0.318104 0.090413 0.346882 -0.301739
C21   C     C_R   0.653278 0.799082 0.629794 0.033896
C22   C     C_R   0.685607 0.903685 0.657151 -0.254368
C23   C     C_R   0.513326 0.560903 0.308840 0.855860
C24   C     C_R   0.627743 0.985436 0.607242 -0.183682
C25   C     C_R   0.536730 0.962578 0.529081 0.016180
C26   C     C_R   0.508353 0.854992 0.503656 0.188804
C27   C     C_R   0.472944 0.041554 0.475824 -0.058740
C28   C     C_R   0.381205 0.011539 0.398643 0.171172
C29   C     C_R   0.354460 0.903674 0.375065 0.131763
C30   C     C_R   0.420074 0.828210 0.426600 -0.247540
C31   C     C_R   0.496089 0.150064 0.496699 -0.039004
C32   C     C_R   0.345761 0.195845 0.371411 -0.001461
C33   C     C_R   0.258018 0.499559 0.501915 0.870699
C34   C     C_3   0.938763 0.408353 0.465988 0.251315
C35   C     C_3   0.019989 0.411171 0.563184 0.185017
C36   C     C_3   0.123119 0.500220 0.503938 -0.037879
C37   C     C_3   0.043093 0.497758 0.405847 -0.278118
C38   C     C_3   0.978714 0.588047 0.440125 -0.207384
H1    H     H_    0.564167 0.456321 0.162225 0.149121
H2    H     H_    0.516426 0.244775 0.785956 0.152577
H3    H     H_    0.503616 0.316821 0.090693 0.134371
H4    H     H_    0.528568 0.191766 0.971543 0.141800
H5    H     H_    0.334339 0.569294 0.760814 0.167969
H6    H     H_    0.298155 0.257419 0.332016 0.138262
H7    H     H_    0.248230 0.072092 0.287656 0.160294
H8    H     H_    0.563238 0.180390 0.553340 0.120317
H9    H     H_    0.697540 0.734905 0.668286 0.138172
H10   H     H_    0.656244 0.064950 0.631773 0.128953
H11   H     H_    0.755047 0.921367 0.716921 0.148251
H12   H     H_    0.398485 0.747573 0.406384 0.223447
H13   H     H_    0.082075 0.496440 0.327767 0.151978
H14   H     H_    0.958686 0.660744 0.390188 0.155519
H15   H     H_    0.916485 0.501224 0.676477 0.145570
H16   H     H_    0.445224 0.748807 0.215349 0.164414
H17   H     H_    0.322850 0.704293 0.873286 0.148973
H18   H     H_    0.373897 0.776348 0.037172 0.137631
N1    N     N_R   0.432930 0.222190 0.444670 -0.101405
N2    N     N_R   0.566370 0.776980 0.554790 -0.125022
O1    O     O_R   0.467970 0.366730 0.627150 -0.615347
O2    O     O_R   0.510820 0.544830 0.662520 -0.618563
O3    O     O_R   0.664630 0.410960 0.482340 -0.617911
O4    O     O_R   0.707470 0.589060 0.517710 -0.618074
O5    O     O_R   0.489180 0.455170 0.337480 -0.616467
O6    O     O_R   0.532030 0.633270 0.372850 -0.636527
O7    O     O_R   0.292530 0.410940 0.482290 -0.614371
O8    O     O_R   0.335370 0.589040 0.517660 -0.642410
Zn1   Zn    Zn3+2 0.471390 0.381080 0.476380 0.930529
Zn2   Zn    Zn3+2 0.528610 0.618920 0.523620 0.921254
C39   C     C_3   0.045488 0.311989 0.633421 -0.907785
H19   H     H_    0.952496 0.263404 0.668298 0.238181
H20   H     H_    0.090639 0.260221 0.588511 0.260770
H21   H     H_    0.111810 0.339274 0.695221 0.234963
C40   C     C_3   0.254673 0.866121 0.297053 -0.962083
H22   H     H_    0.242649 0.777399 0.291794 0.239739
H23   H     H_    0.158634 0.880274 0.319512 0.249579
H24   H     H_    0.284511 0.911548 0.219854 0.245193
C41   C     C_3   0.871764 0.304492 0.424213 -0.865483
H25   H     H_    0.945653 0.259057 0.403651 0.233019
H26   H     H_    0.804324 0.251766 0.483505 0.242423
H27   H     H_    0.816868 0.325805 0.354675 0.242533
C42   C     C_3   0.124199 0.692601 0.581571 -0.874062
H28   H     H_    0.048561 0.733813 0.606789 0.233503
H29   H     H_    0.183807 0.671652 0.648311 0.236081
H30   H     H_    0.186102 0.749008 0.521647 0.261860

loop_
_geom_bond_atom_site_label_1
_geom_bond_atom_site_label_2
_ccdc_geom_bond_type
O8    Zn2   S    
C34   C37   S    
C40   H22   S    
C5    H18   S    
C35   C36   S    
C42   H28   S    
C33   O7    A    
C7    C8    A    
C41   H25   S    
C11   C19   A    
C29   C30   A    
O6    Zn2   S    
C36   C37   S    
C8    H4    S    
C1    O1    A    
C34   C41   S    
C37   H13   S    
C29   C40   S    
C15   C16   A    
C33   C36   S    
C34   C35   S    
C17   H1    S    
C39   H20   S    
C2    C38   S    
O1    Zn1   S    
C8    C9    A    
O7    Zn1   S    
C31   H8    S    
C7    H2    S    
C4    C12   S    
C9    C10   A    
C20   H7    S    
C23   O5    A    
C30   H12   S    
C21   C22   A    
C40   H23   S    
C32   N1    A    
N1    Zn1   S    
C42   H29   S    
C33   O8    A    
O5    Zn1   S    
C41   H26   S    
C6    C18   A    
C4    C34   S    
C1    C19   S    
C27   C31   A    
C24   H10   S    
C24   C25   A    
C1    O2    A    
C5    C18   A    
C20   C28   A    
C25   C26   A    
C15   H17   S    
C39   H21   S    
C37   C38   S    
C12   O4    A    
C11   C16   A    
O3    Zn1   S    
C3    C35   S    
C32   H6    S    
C26   N2    A    
C16   H5    S    
C35   C39   S    
C5    C14   A    
C22   H11   S    
N2    Zn2   S    
C23   O6    A    
C4    C38   S    
C26   C30   A    
C7    C19   A    
C40   H24   S    
C22   C24   A    
C3    C4    S    
C42   H30   S    
C20   C32   A    
C41   H27   S    
C2    C36   S    
C6    C17   A    
C28   C29   A    
C10   C13   A    
O4    Zn2   S    
C25   C27   A    
C9    H3    S    
C13   C17   A    
C31   N1    A    
C2    C3    S    
C21   N2    A    
C12   O3    A    
C3    H15   S    
C6    C23   S    
C39   H19   S    
C10   C11   A    
C18   H16   S    
C38   H14   S    
O2    Zn2   S    
C27   C28   A    
C14   C15   A    
C2    C42   S    
C13   C14   A    
C21   H9    S    
