data_mof_unit_66507.cif
_audit_creation_date              2012-12-10T17:04:22-0500
_audit_creation_method            fapswitch 2.2
_symmetry_space_group_name_H-M    P1
_symmetry_Int_Tables_number       1
_space_group_crystal_system       triclinic
_cell_length_a                    11.689649
_cell_length_b                    11.088535
_cell_length_c                    9.865631
_cell_angle_alpha                 110.306315
_cell_angle_beta                  97.744222
_cell_angle_gamma                 91.149205
_cell_volume                      1185.30320097

loop_
_atom_site_label
_atom_site_type_symbol
_atom_type_description
_atom_site_fract_x
_atom_site_fract_y
_atom_site_fract_z
_atom_type_partial_charge
C1    C     C_R   0.486922 0.254707 0.443506 0.789095
C2    C     C_R   0.504558 0.744185 0.557355 0.787154
C3    C     C_R   0.284324 0.500244 0.501379 0.846657
C4    C     C_R   0.715680 0.500034 0.498651 0.830967
C5    C     C_1   0.162846 0.500863 0.503426 -0.068627
C6    C     C_1   0.837171 0.499944 0.496585 -0.090944
C7    C     C_1   0.060121 0.500793 0.501743 0.061628
C8    C     C_1   0.939905 0.500310 0.498256 0.058373
C9    C     C_2   0.483547 0.116937 0.422776 0.100580
C10   C     C_2   0.470270 0.873134 0.581063 0.097692
C11   C     C_2   0.483326 0.077972 0.539972 -0.178717
C12   C     C_2   0.529239 0.954547 0.536283 -0.255605
C13   C     C_2   0.518838 0.486420 0.065830 0.055585
C14   C     C_2   0.475299 0.520130 0.931871 0.084152
Cu1   Cu    Cu3+1 0.519790 0.521810 0.644910 1.102345
Cu2   Cu    Cu3+1 0.480210 0.478190 0.355090 1.106921
N1    N     N_2   0.450460 0.445430 0.137370 -0.090221
N2    N     N_2   0.549540 0.554570 0.862630 -0.116816
O1    O     O_R   0.510560 0.332330 0.577400 -0.608469
O2    O     O_R   0.489440 0.667670 0.422600 -0.596863
O3    O     O_R   0.477140 0.295500 0.332650 -0.505395
O4    O     O_R   0.522860 0.704500 0.667350 -0.518160
O5    O     O_R   0.353910 0.518430 0.622380 -0.563938
O6    O     O_R   0.646090 0.481570 0.377620 -0.576328
O7    O     O_R   0.320490 0.481600 0.377630 -0.545439
O8    O     O_R   0.679510 0.518400 0.622370 -0.546373
C15   C     C_2   0.650421 0.934318 0.507028 0.900360
O9    O     O_2   0.728961 0.008622 0.589792 -0.502081
O10   O     O_R   0.676385 0.834722 0.385224 -0.647469
H1    H     H_    0.604787 0.788636 0.314885 0.357472
C16   C     C_2   0.444543 0.159830 0.679890 0.996943
O11   O     O_2   0.355400 0.214945 0.675681 -0.476103
O12   O     O_R   0.506113 0.171242 0.816049 -0.666785
H2    H     H_    0.580912 0.126530 0.808948 0.338493
Br1   Br    Br    0.315818 0.896887 0.629585 -0.335403
Br2   Br    Br    0.497233 0.998579 0.230679 -0.294756
C17   C     C_2   0.358433 0.568518 0.922004 0.933875
O13   O     O_2   0.345833 0.682053 0.987856 -0.521995
O14   O     O_R   0.263109 0.485590 0.838182 -0.684652
H3    H     H_    0.188458 0.530795 0.840968 0.343620
C18   C     C_2   0.644654 0.479155 0.102321 0.916904
O15   O     O_2   0.685265 0.373939 0.064010 -0.536242
O16   O     O_R   0.716533 0.590123 0.182108 -0.702656
H4    H     H_    0.800564 0.571200 0.200258 0.353009
Br3   Br    Br    0.630938 0.716233 0.967579 -0.234915
Br4   Br    Br    0.313888 0.341082 0.038599 -0.196876

loop_
_geom_bond_atom_site_label_1
_geom_bond_atom_site_label_2
_ccdc_geom_bond_type
C2    O4    A    
Cu1   N2    S    
C4    O8    A    
C11   C12   S    
C16   O12   S    
C1    O3    A    
Cu2   O3    S    
Cu2   O7    S    
C15   O10   S    
C9    C11   D    
C18   O15   D    
C14   N2    D    
C3    O5    A    
C16   O11   D    
C13   N1    D    
O16   H4    S    
Cu1   O5    S    
O12   H2    S    
C11   C16   S    
C7    C8    S    
C17   O14   S    
C13   C14   S    
C14   C17   S    
Cu1   O1    S    
C18   O16   S    
O10   H1    S    
C10   C12   D    
C13   C18   S    
Cu2   O2    S    
C17   O13   D    
C4    O6    A    
C10   Br1   S    
C1    O1    A    
C4    C6    S    
C12   C15   S    
C2    O2    A    
Cu1   Cu2   S    
C2    C10   S    
C9    Br2   S    
O14   H3    S    
C3    O7    A    
C1    C9    S    
N1    Br4   S    
Cu2   O6    S    
N2    Br3   S    
C15   O9    D    
C5    C7    T    
Cu1   O8    S    
C6    C8    T    
Cu1   O4    S    
Cu2   N1    S    
C3    C5    S    
