data_mof_unit_64085.cif
_audit_creation_date              2012-12-10T19:35:14-0500
_audit_creation_method            fapswitch 2.2
_symmetry_space_group_name_H-M    P1
_symmetry_Int_Tables_number       1
_space_group_crystal_system       triclinic
_cell_length_a                    30.549868
_cell_length_b                    31.816613
_cell_length_c                    21.639583
_cell_angle_alpha                 89.990752
_cell_angle_beta                  134.883325
_cell_angle_gamma                 89.593588
_cell_volume                      14902.4365904

loop_
_atom_site_label
_atom_site_type_symbol
_atom_type_description
_atom_site_fract_x
_atom_site_fract_y
_atom_site_fract_z
_atom_type_partial_charge
C1    C     C_R   0.500113 0.999956 0.380292 0.947709
C2    C     C_R   0.000112 0.500201 0.380320 0.974949
C3    C     C_3   0.465109 0.736525 0.511235 -0.163689
C4    C     C_3   0.480576 0.264117 0.536007 -0.163922
C5    C     C_3   0.943686 0.236718 0.457658 -0.164424
C6    C     C_3   0.966876 0.764244 0.515860 -0.168083
C7    C     C_3   0.500062 0.708958 0.499305 0.196171
C8    C     C_3   0.499634 0.291076 0.499549 0.187504
C9    C     C_3   0.000015 0.208980 0.498538 0.199070
C10   C     C_3   0.999372 0.791084 0.499408 0.187316
C11   C     C_3   0.523462 0.763858 0.576239 -0.159234
C12   C     C_3   0.537889 0.235662 0.581721 -0.162383
C13   C     C_3   0.985515 0.264326 0.540353 -0.163973
C14   C     C_3   0.025224 0.735802 0.577592 -0.167177
C15   C     C_3   0.558414 0.735510 0.564298 -0.146530
C16   C     C_3   0.556949 0.263419 0.545265 -0.128525
C17   C     C_3   0.041834 0.235820 0.581209 -0.145507
C18   C     C_3   0.057718 0.763441 0.561139 -0.130352
C19   C     C_1   0.500885 0.836616 0.499843 -0.075172
C20   C     C_1   0.499043 0.163413 0.498912 -0.058818
C21   C     C_1   0.000835 0.336629 0.499022 -0.076386
C22   C     C_1   0.998962 0.663417 0.498931 -0.059097
C23   C     C_1   0.499858 0.663439 0.499477 -0.062980
C24   C     C_1   0.499877 0.336583 0.499836 -0.045168
C25   C     C_1   0.999835 0.163457 0.499041 -0.066135
C26   C     C_1   0.999623 0.836590 0.499667 -0.045867
C27   C     C_R   0.471630 0.969856 0.253234 -0.044126
C28   C     C_R   0.973409 0.469479 0.255246 -0.043158
C29   C     C_R   0.500391 0.001035 0.315333 -0.243005
C30   C     C_R   0.000255 0.501430 0.315282 -0.254640
C31   C     C_R   0.530872 0.033249 0.313650 0.630183
C32   C     C_R   0.028035 0.534676 0.310834 0.620640
C33   C     C_R   0.530813 0.033229 0.248871 -0.296273
C34   C     C_R   0.027876 0.534523 0.245947 -0.299582
C35   C     C_R   0.500293 0.918725 0.500065 0.892562
C36   C     C_R   0.499746 0.081282 0.499695 0.929655
C37   C     C_R   0.000288 0.418727 0.499936 0.913620
C38   C     C_R   0.999743 0.581283 0.499699 0.925409
C39   C     C_R   0.502044 0.000313 0.187916 -0.164584
C40   C     C_R   0.001826 0.500457 0.187788 -0.160745
C41   C     C_R   0.474112 0.968793 0.193697 0.032266
C42   C     C_R   0.976058 0.468133 0.195927 0.036990
C43   C     C_3   0.439009 0.928851 0.153070 -0.391459
C44   C     C_3   0.946339 0.426016 0.161710 -0.496686
C45   C     C_3   0.436700 0.929499 0.222440 0.390711
C46   C     C_3   0.943160 0.427505 0.230143 0.417536
C47   C     C_R   0.470858 0.968356 0.688855 0.027525
C48   C     C_R   0.970587 0.468446 0.688646 0.027056
C49   C     C_R   0.500924 0.999969 0.686684 -0.042468
C50   C     C_R   0.001104 0.499837 0.686894 -0.043312
C51   C     C_R   0.537846 0.028683 0.755356 -0.219585
C52   C     C_R   0.038942 0.528020 0.756472 -0.213517
C53   C     C_R   0.537274 0.028952 0.819059 -0.194362
C54   C     C_R   0.038536 0.528231 0.820354 -0.191013
C55   C     C_R   0.501461 0.999562 0.815232 -0.090731
C56   C     C_R   0.001731 0.499422 0.815530 -0.101329
C57   C     C_R   0.471152 0.968020 0.752515 -0.004460
C58   C     C_R   0.970943 0.468104 0.752341 -0.011021
C59   C     C_R   0.499974 0.000356 0.620008 0.871336
C60   C     C_R   0.999998 0.500328 0.620045 0.866226
C61   C     C_3   0.405622 0.952498 0.690582 0.392253
C62   C     C_3   0.905366 0.452730 0.690473 0.397188
C63   C     C_3   0.406094 0.953075 0.619945 -0.501388
C64   C     C_3   0.905721 0.453364 0.619695 -0.501085
C65   C     C_R   0.379844 0.500996 0.380061 0.889916
C66   C     C_R   0.880190 0.999460 0.380421 0.909242
C67   C     C_R   0.499914 0.581307 0.499894 0.915301
C68   C     C_R   0.500049 0.418698 0.500043 0.930748
C69   C     C_R   0.999846 0.081312 0.499808 0.920420
C70   C     C_R   0.999983 0.918699 0.499985 0.940197
C71   C     C_R   0.619858 0.499806 0.619580 1.014656
C72   C     C_R   0.119858 0.999800 0.619579 1.014379
C73   C     C_R   0.620225 0.999763 0.120372 0.901711
C74   C     C_R   0.120216 0.499679 0.118594 0.931633
C75   C     C_R   0.500636 0.000017 0.120860 0.921256
C76   C     C_R   0.000711 0.500023 0.120964 0.927661
C77   C     C_R   0.379540 0.000237 0.880097 0.933986
C78   C     C_R   0.879541 0.500237 0.880112 0.936474
C79   C     C_R   0.499700 0.999975 0.879344 0.858405
C80   C     C_R   0.999717 0.499958 0.879368 0.860071
C81   C     C_R   0.283060 0.473783 0.245058 -0.040219
C82   C     C_R   0.781486 0.029328 0.253263 -0.010473
C83   C     C_3   0.477234 0.736205 0.422543 -0.162716
C84   C     C_3   0.460902 0.264346 0.416844 -0.169091
C85   C     C_3   0.015074 0.235776 0.456652 -0.162995
C86   C     C_3   0.973143 0.764220 0.420807 -0.162825
C87   C     C_R   0.313838 0.500931 0.315268 -0.098071
C88   C     C_R   0.814930 0.998146 0.316091 -0.102569
C89   C     C_R   0.280294 0.524597 0.326016 0.203939
C90   C     C_R   0.782893 0.965809 0.315032 0.183815
C91   C     C_R   0.717942 0.966008 0.248989 -0.273115
C92   C     C_R   0.215882 0.523021 0.261165 -0.302874
C93   C     C_R   0.685791 0.998946 0.187202 -0.178585
C94   C     C_R   0.185757 0.498483 0.186993 -0.122449
C95   C     C_R   0.719453 0.030101 0.192247 0.134763
C96   C     C_R   0.219583 0.471917 0.181772 0.067188
C97   C     C_3   0.716230 0.069393 0.150498 0.415986
C98   C     C_3   0.218527 0.465905 0.111343 0.399599
C99   C     C_3   0.289148 0.468434 0.182800 -0.502897
C100  C     C_3   0.787864 0.068312 0.221834 -0.576936
C101  C     C_R   0.718016 0.468736 0.687424 -0.253975
C102  C     C_R   0.218014 0.968719 0.687433 -0.254451
C103  C     C_R   0.685367 0.501145 0.683572 -0.166764
C104  C     C_R   0.185366 0.001137 0.683566 -0.166361
C105  C     C_R   0.716345 0.536530 0.736497 0.612149
C106  C     C_R   0.216343 0.036535 0.736443 0.613815
C107  C     C_3   0.535590 0.763560 0.487546 -0.162572
C108  C     C_3   0.518217 0.235888 0.462562 -0.150058
C109  C     C_3   0.056903 0.263409 0.539355 -0.160727
C110  C     C_3   0.031490 0.735780 0.482540 -0.145939
C111  C     C_R   0.280621 0.036786 0.799936 -0.256521
C112  C     C_R   0.780623 0.536777 0.800003 -0.259721
C113  C     C_R   0.313413 0.001238 0.811506 -0.138691
C114  C     C_R   0.813414 0.501238 0.811540 -0.139926
C115  C     C_R   0.281583 0.968332 0.752190 -0.198565
C116  C     C_R   0.781584 0.468344 0.752196 -0.197857
C117  C     C_3   0.284634 0.921994 0.766674 1.057726
C118  C     C_3   0.784627 0.422003 0.766640 1.057137
C119  C     C_3   0.714540 0.422380 0.694322 1.000932
C120  C     C_3   0.214545 0.922368 0.694375 1.001088
C121  C     C_1   0.500823 0.874178 0.500118 -0.187535
C122  C     C_1   0.499202 0.125842 0.499103 -0.158054
C123  C     C_1   0.000795 0.374187 0.499595 -0.160442
C124  C     C_1   0.999178 0.625845 0.499134 -0.155130
C125  C     C_1   0.499834 0.625868 0.499722 -0.152141
C126  C     C_1   0.500002 0.374148 0.499993 -0.125118
C127  C     C_1   0.999803 0.125881 0.499545 -0.151292
C128  C     C_1   0.999817 0.874153 0.499849 -0.122287
C129  C     C_3   0.442289 0.764569 0.434493 -0.164413
C130  C     C_3   0.441841 0.236586 0.453301 -0.164692
C131  C     C_3   0.958752 0.264326 0.415799 -0.166463
C132  C     C_3   0.940644 0.736576 0.437255 -0.163621
C133  C     C_3   0.500646 0.791110 0.499507 0.199648
C134  C     C_3   0.499155 0.208927 0.499018 0.190052
C135  C     C_3   0.000586 0.291131 0.498521 0.197504
C136  C     C_3   0.998994 0.708933 0.498990 0.189827
H1    H     H_    0.564450 0.775464 0.477795 0.137557
H2    H     H_    0.533636 0.223530 0.432434 0.154561
H3    H     H_    0.103303 0.275146 0.572797 0.141068
H4    H     H_    0.057972 0.723330 0.468864 0.155747
H5    H     H_    0.564460 0.051980 0.757223 0.149872
H6    H     H_    0.066137 0.551000 0.758916 0.151083
H7    H     H_    0.563514 0.052424 0.869844 0.176794
H8    H     H_    0.065513 0.551286 0.871859 0.160498
H9    H     H_    0.374888 0.977062 0.567798 0.210147
H10   H     H_    0.404730 0.921857 0.595820 0.187787
H11   H     H_    0.874651 0.477472 0.567778 0.209977
H12   H     H_    0.904118 0.422175 0.595272 0.186507
H13   H     H_    0.693034 0.941010 0.246945 0.170142
H14   H     H_    0.189411 0.542259 0.266805 0.161378
H15   H     H_    0.309346 0.496336 0.180121 0.215409
H16   H     H_    0.313576 0.438578 0.195421 0.181132
H17   H     H_    0.810141 0.094048 0.270240 0.190004
H18   H     H_    0.809292 0.061879 0.197465 0.207347
H19   H     H_    0.458251 0.724089 0.359510 0.140338
H20   H     H_    0.429349 0.276896 0.349254 0.141504
H21   H     H_    0.027170 0.223303 0.422299 0.140040
H22   H     H_    0.951801 0.776659 0.356536 0.144356
H23   H     H_    0.304498 0.063650 0.842603 0.186629
H24   H     H_    0.804502 0.563631 0.842702 0.186177
H25   H     H_    0.606022 0.722815 0.617535 0.150274
H26   H     H_    0.604138 0.275212 0.582972 0.169285
H27   H     H_    0.075885 0.223367 0.649033 0.148953
H28   H     H_    0.105713 0.775248 0.611921 0.168807
H29   H     H_    0.542434 0.775976 0.639267 0.139952
H30   H     H_    0.569443 0.223120 0.649316 0.144168
H31   H     H_    0.973404 0.276816 0.574681 0.136768
H32   H     H_    0.046567 0.723370 0.641866 0.142803
H33   H     H_    0.436195 0.724660 0.520915 0.139053
H34   H     H_    0.465158 0.276475 0.566136 0.142415
H35   H     H_    0.897268 0.224997 0.424174 0.135512
H36   H     H_    0.940393 0.776707 0.529527 0.139816
H37   H     H_    0.394690 0.777278 0.381253 0.137856
H38   H     H_    0.394647 0.224806 0.415592 0.140998
H39   H     H_    0.924755 0.276833 0.348013 0.137248
H40   H     H_    0.892646 0.724782 0.386464 0.141226
H41   H     H_    0.553610 0.058373 0.247022 0.187592
H42   H     H_    0.048758 0.560406 0.242135 0.188666
H43   H     H_    0.466914 0.902979 0.160260 0.191267
H44   H     H_    0.393707 0.934385 0.084968 0.210018
H45   H     H_    0.978784 0.401847 0.175424 0.197654
H46   H     H_    0.900907 0.427570 0.092657 0.218102
O1    O     O_R   0.448310 0.000000 0.356640 -0.643372
O2    O     O_R   0.948310 0.500000 0.356640 -0.622323
O3    O     O_R   0.500000 0.561620 0.551710 -0.601206
O4    O     O_R   0.500000 0.438380 0.551710 -0.614670
O5    O     O_R   0.000000 0.061620 0.551710 -0.608526
O6    O     O_R   0.000000 0.938380 0.551710 -0.609605
O7    O     O_R   0.591480 0.500000 0.539730 -0.620205
O8    O     O_R   0.091480 0.000000 0.539730 -0.621152
O9    O     O_R   0.591580 0.500000 0.643270 -0.579740
O10   O     O_R   0.091580 0.000000 0.643270 -0.578762
O11   O     O_R   0.591630 0.965220 0.091680 -0.632730
O12   O     O_R   0.591630 0.034780 0.091680 -0.605061
O13   O     O_R   0.091630 0.465220 0.091680 -0.641948
O14   O     O_R   0.091630 0.534780 0.091680 -0.623696
O15   O     O_R   0.500040 0.965230 0.091630 -0.620735
O16   O     O_R   0.500040 0.034770 0.091630 -0.628548
O17   O     O_R   0.000040 0.465230 0.091630 -0.613117
O18   O     O_R   0.000040 0.534770 0.091630 -0.631738
O19   O     O_R   0.408450 0.965250 0.908360 -0.560200
O20   O     O_R   0.408450 0.034750 0.908360 -0.641011
O21   O     O_R   0.908450 0.465250 0.908360 -0.558493
O22   O     O_R   0.908450 0.534750 0.908360 -0.640135
O23   O     O_R   0.500040 0.965230 0.908410 -0.628212
O24   O     O_R   0.500040 0.034770 0.908410 -0.615306
O25   O     O_R   0.000040 0.465230 0.908410 -0.636454
O26   O     O_R   0.000040 0.534770 0.908410 -0.617232
O27   O     O_R   0.551720 0.000000 0.460130 -0.588146
O28   O     O_R   0.051720 0.500000 0.460130 -0.594410
O29   O     O_R   0.448310 0.938390 0.448250 -0.628414
O30   O     O_R   0.448310 0.061610 0.448250 -0.618460
O31   O     O_R   0.948310 0.438390 0.448250 -0.612654
O32   O     O_R   0.948310 0.561610 0.448250 -0.623075
O33   O     O_R   0.551720 0.938410 0.551740 -0.616707
O34   O     O_R   0.551720 0.061590 0.551740 -0.602196
O35   O     O_R   0.051720 0.438410 0.551740 -0.623417
O36   O     O_R   0.051720 0.561590 0.551740 -0.603760
O37   O     O_R   0.448310 0.000000 0.539870 -0.624784
O38   O     O_R   0.948310 0.500000 0.539870 -0.627255
O39   O     O_R   0.551720 0.000000 0.643360 -0.626428
O40   O     O_R   0.051720 0.500000 0.643360 -0.627653
O41   O     O_R   0.408300 0.500000 0.356580 -0.638871
O42   O     O_R   0.908300 0.000000 0.356580 -0.633310
O43   O     O_R   0.408400 0.500000 0.460120 -0.604549
O44   O     O_R   0.908400 0.000000 0.460120 -0.624733
O45   O     O_R   0.499900 0.561630 0.448170 -0.628167
O46   O     O_R   0.499900 0.438370 0.448170 -0.612212
O47   O     O_R   0.999900 0.061630 0.448170 -0.627040
O48   O     O_R   0.999900 0.938370 0.448170 -0.613698
Zn1   Zn    Zn3+2 0.430960 0.000000 0.430900 0.954541
Zn2   Zn    Zn3+2 0.930960 0.500000 0.430900 0.973322
Zn3   Zn    Zn3+2 0.569060 0.000000 0.569100 0.994924
Zn4   Zn    Zn3+2 0.069060 0.500000 0.569100 0.995439
Zn5   Zn    Zn3+2 0.499870 0.500000 0.430790 0.984721
Zn6   Zn    Zn3+2 0.999870 0.000000 0.430790 0.990431
Zn7   Zn    Zn3+2 0.500010 0.500000 0.569060 1.029649
Zn8   Zn    Zn3+2 0.000010 0.000000 0.569060 1.017807
Zn9   Zn    Zn3+2 0.500030 0.953570 0.000010 1.012091
Zn10  Zn    Zn3+2 0.500030 0.046430 0.000010 0.979028
Zn11  Zn    Zn3+2 0.000030 0.453570 0.000010 1.000874
Zn12  Zn    Zn3+2 0.000030 0.546430 0.000010 0.962810
N1    N     N_2   0.470101 0.895261 0.286830 -0.297255
H47   H     H_    0.458714 0.892400 0.321580 0.222636
C137  C     C_3   0.536099 0.890357 0.342698 -0.796849
H48   H     H_    0.552023 0.860265 0.379451 0.240520
H49   H     H_    0.561370 0.916387 0.390462 0.238862
H50   H     H_    0.547521 0.889496 0.304174 0.247656
N2    N     N_2   0.374502 0.935694 0.184600 -0.308795
H51   H     H_    0.373311 0.948742 0.226998 0.239916
C138  C     C_3   0.333229 0.900395 0.137357 -0.747568
H52   H     H_    0.285865 0.910251 0.103994 0.243686
H53   H     H_    0.348459 0.874157 0.182983 0.232218
H54   H     H_    0.331541 0.889282 0.087087 0.264102
N3    N     N_2   0.983324 0.396933 0.301024 -0.302918
H55   H     H_    0.029334 0.398944 0.334706 0.220352
C139  C     C_3   0.962132 0.353952 0.282632 -0.813477
H56   H     H_    0.998863 0.333592 0.339533 0.242553
H57   H     H_    0.951137 0.342225 0.224640 0.243048
H58   H     H_    0.920948 0.351657 0.271897 0.248839
N4    N     N_2   0.880416 0.428653 0.193041 -0.273805
H59   H     H_    0.856848 0.401069 0.162568 0.233991
C140  C     C_3   0.841300 0.465185 0.142651 -0.735669
H60   H     H_    0.796193 0.460978 0.121237 0.233853
H61   H     H_    0.832693 0.469185 0.083850 0.237965
H62   H     H_    0.862472 0.494031 0.182697 0.260647
N5    N     N_2   0.364012 0.983317 0.677289 -0.292193
H63   H     H_    0.375342 0.990660 0.733540 0.221089
C141  C     C_3   0.298346 0.976871 0.604326 -0.698443
H64   H     H_    0.272875 0.005314 0.594936 0.235382
H65   H     H_    0.283145 0.949801 0.617505 0.288821
H66   H     H_    0.286451 0.971463 0.543263 0.227201
N6    N     N_2   0.402157 0.911171 0.716415 -0.259489
H67   H     H_    0.442574 0.899133 0.775146 0.232432
C142  C     C_3   0.361635 0.879797 0.650108 -0.668436
H68   H     H_    0.347940 0.857490 0.673308 0.283120
H69   H     H_    0.386241 0.861844 0.637975 0.197642
H70   H     H_    0.319198 0.894293 0.588123 0.244431
N7    N     N_2   0.863946 0.483611 0.677489 -0.291696
H71   H     H_    0.875377 0.490882 0.733838 0.222034
C143  C     C_3   0.798244 0.477286 0.604573 -0.699604
H72   H     H_    0.772896 0.505734 0.595478 0.235676
H73   H     H_    0.782997 0.450177 0.617600 0.288724
H74   H     H_    0.786250 0.472000 0.543406 0.227328
N8    N     N_2   0.901805 0.411395 0.716172 -0.259631
H75   H     H_    0.942187 0.399317 0.774900 0.231175
C144  C     C_3   0.861235 0.380070 0.649771 -0.670380
H76   H     H_    0.847550 0.357724 0.672934 0.283360
H77   H     H_    0.885794 0.362149 0.637527 0.196396
H78   H     H_    0.818793 0.394615 0.587863 0.244846
N9    N     N_2   0.310525 0.551877 0.398369 -0.283501
H79   H     H_    0.287210 0.555818 0.416357 0.229490
C145  C     C_3   0.328878 0.591623 0.390202 -0.761862
H80   H     H_    0.287413 0.610184 0.334869 0.231808
H81   H     H_    0.359103 0.586611 0.379461 0.226052
H82   H     H_    0.355123 0.609825 0.451174 0.240954
N10   N     N_2   0.815427 0.932378 0.377008 -0.310762
H83   H     H_    0.799238 0.903187 0.348475 0.220101
C146  C     C_3   0.819743 0.936757 0.447687 -0.739391
H84   H     H_    0.773183 0.934526 0.422662 0.225259
H85   H     H_    0.840498 0.967391 0.480823 0.262883
H86   H     H_    0.849590 0.911236 0.496295 0.233877
N11   N     N_2   0.689481 0.105978 0.155218 -0.290798
H87   H     H_    0.694845 0.133532 0.136110 0.212420
C147  C     C_3   0.698678 0.111289 0.230378 -0.759673
H88   H     H_    0.673496 0.139910 0.221057 0.235584
H89   H     H_    0.748397 0.115044 0.290801 0.225977
H90   H     H_    0.679931 0.084187 0.237659 0.255185
N12   N     N_2   0.689032 0.063912 0.062106 -0.308867
H91   H     H_    0.696430 0.089148 0.040573 0.215406
C148  C     C_3   0.695108 0.023655 0.037033 -0.804206
H92   H     H_    0.674822 0.025938 0.969813 0.240574
H93   H     H_    0.669596 0.999106 0.037250 0.245602
H94   H     H_    0.744409 0.014301 0.081471 0.244486
N13   N     N_2   0.187529 0.499499 0.045417 -0.301320
H95   H     H_    0.178997 0.491740 0.991445 0.245062
C149  C     C_3   0.206952 0.542846 0.071217 -0.816652
H96   H     H_    0.168348 0.564052 0.019060 0.240362
H97   H     H_    0.246667 0.549147 0.079792 0.233709
H98   H     H_    0.219905 0.550567 0.132252 0.262118
N14   N     N_2   0.198124 0.424098 0.072486 -0.324919
H99   H     H_    0.223718 0.399428 0.115994 0.218815
C150  C     C_3   0.132545 0.415776 0.007543 -0.747094
H100  H     H_    0.123619 0.386919 0.971392 0.228989
H101  H     H_    0.105921 0.441882 0.959583 0.252780
H102  H     H_    0.116519 0.410228 0.039456 0.257610
F1    F     F_    0.684634 0.569931 0.728384 -0.670021
F2    F     F_    0.184633 0.069946 0.728300 -0.668693
F3    F     F_    0.308383 0.911635 0.847870 -0.641827
F4    F     F_    0.312367 0.900153 0.746303 -0.659738
F5    F     F_    0.808362 0.411624 0.847819 -0.642182
F6    F     F_    0.812371 0.400177 0.746271 -0.659842
F7    F     F_    0.686545 0.411805 0.721790 -0.652173
F8    F     F_    0.690471 0.401368 0.619926 -0.650650
F9    F     F_    0.186566 0.911809 0.721874 -0.652205
F10   F     F_    0.190466 0.901337 0.619989 -0.650167
F11   F     F_    0.559333 0.064722 0.372954 -0.660134
F12   F     F_    0.054199 0.567105 0.367760 -0.662741

loop_
_geom_bond_atom_site_label_1
_geom_bond_atom_site_label_2
_ccdc_geom_bond_type
C100  H17   S    
O9    Zn7   S    
N3    C139  S    
O43   Zn7   S    
C38   O36   A    
N9    H79   S    
O33   Zn3   S    
C73   C93   S    
C77   O20   A    
N11   C147  S    
C130  H38   S    
C143  H74   S    
C86   C110  S    
C67   C125  S    
C105  F1    S    
C61   C63   S    
C61   N5    S    
C62   C64   S    
C11   C15   S    
C12   C16   S    
C49   C51   A    
C50   C52   A    
C144  H77   S    
O48   Zn6   S    
C97   N11   S    
C4    C12   S    
C32   F12   S    
C45   N1    S    
C63   H10   S    
C5    C13   S    
C49   C59   S    
C7    C15   S    
C8    C16   S    
C137  H48   S    
O34   Zn3   S    
C41   C43   S    
C129  H37   S    
C130  C134  S    
C42   C44   S    
C38   O32   A    
C77   C113  S    
C44   C46   S    
C65   C87   S    
C54   C56   A    
C43   H44   S    
N2    C138  S    
C150  H100  S    
C140  H60   S    
C6    C132  S    
C91   H13   S    
C3    H33   S    
C4    C130  S    
C81   C99   S    
C16   H26   S    
C1    O27   A    
C40   C76   S    
C32   C34   A    
C21   C123  T    
C149  H98   S    
O10   Zn8   S    
N11   H87   S    
C92   C94   A    
C65   O43   A    
C111  C113  A    
C94   C96   A    
O2    Zn2   S    
C36   O30   A    
C129  C133  S    
C105  C112  A    
C141  H65   S    
C76   O18   A    
C14   H32   S    
O18   Zn12  S    
C46   N3    S    
C75   O16   A    
C140  H61   S    
O40   Zn4   S    
C112  H24   S    
C3    C129  S    
C15   H25   S    
C17   C109  S    
C95   C97   S    
C57   C61   S    
C3    C7    S    
O47   Zn6   S    
O25   Zn11  S    
N8    C144  S    
C85   C131  S    
O15   Zn9   S    
C86   C132  S    
C10   C18   S    
C84   C130  S    
C116  C118  S    
N7    C143  S    
O42   Zn6   S    
C3    C11   S    
C106  F2    S    
N14   H99   S    
C137  H50   S    
C139  H57   S    
C11   H29   S    
C20   C134  S    
C44   H45   S    
C21   C135  S    
C67   O3    A    
C113  C115  A    
C7    C83   S    
C119  F7    S    
C109  C135  S    
C84   H20   S    
C110  C136  S    
C112  C114  A    
C1    O1    A    
C110  H4    S    
C6    H36   S    
C28   C46   S    
N2    H51   S    
C4    H34   S    
N9    C145  S    
C83   C129  S    
O20   Zn10  S    
N4    H59   S    
C83   H19   S    
C120  F10   S    
C139  H56   S    
C9    C85   S    
C37   C123  S    
O11   Zn9   S    
C147  H89   S    
C96   C98   S    
C39   C75   S    
C69   O5    A    
C20   C122  T    
C118  F5    S    
C70   O6    A    
C40   C42   A    
C68   O4    A    
C93   C95   A    
C12   C134  S    
C64   H12   S    
C24   C126  T    
N10   C146  S    
C72   O8    A    
C106  C111  A    
C51   H5    S    
C33   H41   S    
C142  H70   S    
C78   O21   A    
C138  H54   S    
C79   O23   A    
C150  H101  S    
C5    C9    S    
C145  H80   S    
C69   O47   A    
C6    C14   S    
O4    Zn7   S    
C86   H22   S    
C67   O45   A    
C132  C136  S    
C103  C105  A    
C43   C45   S    
O16   Zn10  S    
C117  F3    S    
C80   O26   A    
C98   C99   S    
C148  H93   S    
C62   N7    S    
O1    Zn1   S    
O5    Zn8   S    
C100  H18   S    
C71   C103  S    
C74   O13   A    
C19   C121  T    
C82   C95   A    
O39   Zn3   S    
O37   Zn1   S    
C76   O17   A    
C77   O19   A    
C114  C116  A    
N5    H63   S    
C143  H73   S    
C99   H16   S    
C56   C80   S    
C13   C17   S    
C2    C30   S    
C139  H58   S    
O12   Zn10  S    
C36   O34   A    
C82   C88   A    
C48   C50   A    
N6    C142  S    
C56   C58   A    
O7    Zn5   S    
C146  H86   S    
C39   C41   A    
C101  C103  A    
C47   C57   A    
C71   O9    A    
C73   O12   A    
C35   O33   A    
C72   O10   A    
C38   C124  S    
C58   C62   S    
N13   C149  S    
C54   H8    S    
C73   O11   A    
C74   C94   S    
C142  H68   S    
C37   O35   A    
O32   Zn2   S    
C97   C100  S    
C104  C106  A    
C9    C25   S    
C138  H52   S    
C46   N4    S    
C43   H43   S    
O29   Zn1   S    
O26   Zn12  S    
C145  H82   S    
C85   C109  S    
C60   O38   A    
C47   C63   S    
C48   C64   S    
C27   C29   A    
N1    H47   S    
C132  H40   S    
C15   C107  S    
C149  H97   S    
C111  H23   S    
O46   Zn5   S    
C102  C115  A    
C17   H27   S    
C18   H28   S    
C89   N9    S    
C10   C86   S    
C98   N14   S    
C115  C117  S    
N7    H71   S    
O19   Zn9   S    
C98   N13   S    
C31   F11   S    
C27   C45   S    
O13   Zn11  S    
N13   H95   S    
C141  H64   S    
C78   C114  S    
C85   H21   S    
C37   O31   A    
C75   O15   A    
C35   C121  S    
C117  C120  S    
O30   Zn1   S    
C72   C104  S    
C22   C136  S    
C107  H1    S    
C146  H84   S    
C108  C134  S    
N8    H75   S    
C91   C93   A    
C55   C79   S    
O22   Zn12  S    
C144  H76   S    
C66   O44   A    
C144  H78   S    
C2    O2    A    
C71   O7    A    
C81   C87   A    
C88   C90   A    
C137  H49   S    
C92   H14   S    
C34   H42   S    
O8    Zn6   S    
C44   H46   S    
C65   O41   A    
C102  C120  S    
O17   Zn11  S    
C81   C96   A    
C8    C84   S    
C18   C110  S    
C60   O40   A    
O35   Zn4   S    
C6    C10   S    
C48   C58   A    
C19   C133  S    
C25   C127  T    
C50   C60   S    
C28   C30   A    
C107  C133  S    
C66   C88   S    
N5    C141  S    
C90   C91   A    
C14   C136  S    
C131  H39   S    
C84   C108  S    
O28   Zn4   S    
O3    Zn7   S    
C138  H53   S    
C51   C53   A    
C5    C131  S    
C69   C127  S    
C145  H81   S    
C147  H88   S    
C141  H66   S    
O14   Zn12  S    
C101  C116  A    
C61   N6    S    
C118  F6    S    
C140  H62   S    
C148  H92   S    
C97   N12   S    
O44   Zn8   S    
N10   H83   S    
C14   C18   S    
C4    C8    S    
C47   C49   A    
N12   H91   S    
C33   C39   A    
C34   C40   A    
C142  H69   S    
C78   O22   A    
C131  C135  S    
C11   C133  S    
C12   H30   S    
C7    C23   S    
C13   H31   S    
O23   Zn9   S    
C35   O29   A    
C118  C119  S    
C59   O39   A    
C8    C24   S    
C83   C107  S    
N14   C150  S    
C31   C33   A    
C23   C125  T    
C45   N2    S    
C10   C26   S    
C119  F8    S    
C1    C29   S    
C52   C54   A    
C53   C55   A    
C74   O14   A    
C2    O28   A    
O38   Zn2   S    
C101  C119  S    
O36   Zn4   S    
C66   O42   A    
C13   C135  S    
N4    C140  S    
C68   O46   A    
N1    C137  S    
C143  H72   S    
C120  F9    S    
C99   H15   S    
C52   H6    S    
C53   H7    S    
C36   C122  S    
C70   O48   A    
C27   C41   A    
C147  H90   S    
N6    H67   S    
C5    H35   S    
C55   C57   A    
C26   C128  T    
C89   C92   A    
C102  C104  A    
C146  H85   S    
O31   Zn2   S    
O41   Zn5   S    
C90   N10   S    
C9    C17   S    
C64   H11   S    
N3    H55   S    
C68   C126  S    
C70   C128  S    
C82   C100  S    
C22   C124  T    
O21   Zn11  S    
C79   O24   A    
O45   Zn5   S    
C109  H3    S    
C150  H102  S    
C87   C89   A    
C62   N8    S    
C29   C31   A    
C59   O37   A    
C30   C32   A    
N12   C148  S    
C28   C42   A    
C63   H9    S    
C149  H96   S    
O27   Zn3   S    
O6    Zn8   S    
C16   C108  S    
C117  F4    S    
C80   O25   A    
C148  H94   S    
O24   Zn10  S    
C108  H2    S    
