data_mof_unit_30019.cif
_audit_creation_date              2012-12-10T17:44:30-0500
_audit_creation_method            fapswitch 2.2
_symmetry_space_group_name_H-M    P1
_symmetry_Int_Tables_number       1
_space_group_crystal_system       triclinic
_cell_length_a                    9.970376
_cell_length_b                    10.723905
_cell_length_c                    15.345556
_cell_angle_alpha                 92.710465
_cell_angle_beta                  68.176549
_cell_angle_gamma                 88.332553
_cell_volume                      1519.54722544

loop_
_atom_site_label
_atom_site_type_symbol
_atom_type_description
_atom_site_fract_x
_atom_site_fract_y
_atom_site_fract_z
_atom_type_partial_charge
C1    C     C_R   0.496173 0.740559 0.501126 0.873944
C2    C     C_R   0.438449 0.404807 0.899732 0.094719
C3    C     C_R   0.299199 0.362776 0.949444 0.186060
C4    C     C_R   0.547099 0.398163 0.938246 0.002312
C5    C     C_R   0.503016 0.386100 0.036063 0.057582
C6    C     C_R   0.363225 0.343125 0.085406 -0.222195
C7    C     C_R   0.265005 0.326758 0.041070 -0.245559
C8    C     C_R   0.697145 0.405220 0.883718 -0.016725
C9    C     C_R   0.793036 0.432233 0.927877 -0.289929
C10   C     C_R   0.744225 0.446430 0.025539 0.153574
C11   C     C_R   0.599641 0.420155 0.080557 0.092892
C12   C     C_R   0.409897 0.495350 0.675932 0.835506
C13   C     C_R   0.838611 0.485851 0.068970 -0.209635
C14   C     C_R   0.790362 0.501693 0.166540 -0.200500
C15   C     C_R   0.553195 0.438602 0.178264 -0.252716
C16   C     C_R   0.215595 0.902128 0.581622 -0.202643
C17   C     C_R   0.095000 0.974701 0.641140 -0.156319
C18   C     C_R   0.111058 0.096027 0.669841 -0.128576
C19   C     C_R   0.245336 0.147775 0.632554 -0.148948
C20   C     C_R   0.366500 0.076603 0.568097 0.097697
C21   C     C_R   0.356283 0.948491 0.551164 0.100452
C22   C     C_R   0.487653 0.875064 0.503511 -0.121414
C23   C     C_R   0.499171 0.261483 0.505284 0.867115
C24   C     C_R   0.619504 0.931583 0.463966 -0.224158
C25   C     C_R   0.623441 0.059023 0.468241 -0.208600
C26   C     C_R   0.497099 0.130928 0.517629 -0.111573
C27   C     C_R   0.780896 0.643282 0.649949 0.147339
C28   C     C_R   0.811650 0.682703 0.728647 -0.245870
C29   C     C_R   0.950713 0.675835 0.725644 -0.235074
C30   C     C_R   0.059537 0.627086 0.644909 -0.173484
C31   C     C_R   0.031020 0.563829 0.572045 0.116774
C32   C     C_R   0.886250 0.567786 0.572625 0.139577
C33   C     C_R   0.969343 0.435735 0.431872 0.147634
C34   C     C_R   0.590564 0.496943 0.323801 0.870098
C35   C     C_R   0.112388 0.436808 0.431812 -0.152143
C36   C     C_R   0.360331 0.462759 0.774185 -0.064214
C37   C     C_R   0.646678 0.479970 0.221286 -0.058758
C38   C     C_R   0.195662 0.361628 0.907427 -0.225516
C39   C     C_R   0.227027 0.409967 0.819240 -0.221643
C40   C     C_R   0.461446 0.464129 0.817045 -0.243136
H1    H     H_    0.159187 0.293361 0.080450 0.146261
H2    H     H_    0.948671 0.507291 0.027510 0.147874
H3    H     H_    0.719578 0.877043 0.426529 0.167648
H4    H     H_    0.192893 0.814909 0.555179 0.176273
H5    H     H_    0.988711 0.936927 0.664371 0.152240
H6    H     H_    0.018546 0.151652 0.717908 0.148931
H7    H     H_    0.253710 0.243556 0.654329 0.151281
H8    H     H_    0.724563 0.101517 0.430700 0.166955
H9    H     H_    0.730078 0.734546 0.787968 0.149536
H10   H     H_    0.442346 0.425415 0.222202 0.150593
H11   H     H_    0.976198 0.719777 0.782227 0.163820
H12   H     H_    0.165577 0.648463 0.638834 0.205458
H13   H     H_    0.199508 0.384760 0.376129 0.140142
H14   H     H_    0.864186 0.533166 0.198923 0.156382
H15   H     H_    0.905883 0.443222 0.885809 0.151555
H16   H     H_    0.091350 0.323039 0.942503 0.141968
H17   H     H_    0.149035 0.404282 0.785710 0.154284
H18   H     H_    0.559072 0.513137 0.785465 0.165156
H19   H     H_    0.328421 0.318522 0.157594 0.136437
N1    N     N_R   0.856800 0.501200 0.500850 -0.103991
N2    N     N_R   0.142390 0.501280 0.500880 -0.119447
O1    O     O_R   0.385310 0.683220 0.500000 -0.646430
O2    O     O_R   0.614640 0.683250 0.500010 -0.594622
O3    O     O_R   0.319840 0.499980 0.632240 -0.644501
O4    O     O_R   0.549160 0.500000 0.632250 -0.587574
O5    O     O_R   0.385360 0.316750 0.499990 -0.612754
O6    O     O_R   0.614690 0.316780 0.500000 -0.594586
O7    O     O_R   0.450840 0.500000 0.367750 -0.614947
O8    O     O_R   0.680160 0.500020 0.367760 -0.593158
Zn1   Zn    Zn3+2 0.346880 0.499980 0.499990 0.927743
Zn2   Zn    Zn3+2 0.653120 0.500020 0.500010 0.978078
N3    N     N_3   0.942267 0.365415 0.359208 -0.405031
H20   H     H_    0.974476 0.272071 0.360408 0.161195
H21   H     H_    0.007616 0.397835 0.294621 0.154844
N4    N     N_3   0.657974 0.706614 0.643819 -0.376031
H22   H     H_    0.681538 0.800513 0.633440 0.173871
H23   H     H_    0.570157 0.705248 0.707870 0.152976
C41   C     C_1   0.759046 0.367774 0.784412 0.153460
N5    N     N_1   0.808607 0.336871 0.705139 -0.205832

loop_
_geom_bond_atom_site_label_1
_geom_bond_atom_site_label_2
_ccdc_geom_bond_type
N2    Zn1   S    
C16   C21   A    
C35   H13   S    
C34   C37   S    
C31   N2    A    
C19   C20   A    
C4    C8    A    
C1    O1    A    
C23   O5    A    
C28   C29   A    
C17   H5    S    
C5    C11   A    
C3    C7    A    
C5    C6    A    
C12   O3    A    
C19   H7    S    
C23   C26   S    
C16   C17   A    
C39   H17   S    
C1    O2    A    
O1    Zn1   S    
C18   C19   A    
C15   H10   S    
C23   O6    A    
O8    Zn2   S    
C15   C37   A    
C33   N3    S    
C11   C15   A    
C3    C38   A    
C8    C9    A    
C9    H15   S    
O3    Zn1   S    
C12   C36   S    
C9    C10   A    
C16   H4    S    
C1    C22   S    
C21   C22   A    
C8    C41   S    
C27   N4    S    
C18   H6    S    
C13   H2    S    
C38   C39   A    
C40   H18   S    
C36   C40   A    
C24   C25   A    
N3    H21   S    
C34   O7    A    
C41   N5    T    
N3    H20   S    
N1    Zn2   S    
C25   C26   A    
O4    Zn2   S    
C2    C4    A    
N4    H22   S    
C29   C30   A    
C28   H9    S    
C31   C32   A    
C34   O8    A    
C30   C31   A    
C17   C18   A    
C35   N2    A    
N4    H23   S    
C25   H8    S    
C14   H14   S    
O2    Zn2   S    
C33   N1    A    
C22   C24   A    
C32   N1    A    
C29   H11   S    
C30   H12   S    
C27   C32   A    
C6    H19   S    
C36   C39   A    
C4    C5    A    
C10   C13   A    
C6    C7    A    
C12   O4    A    
C2    C3    A    
C14   C37   A    
O5    Zn1   S    
C20   C26   A    
C33   C35   A    
O6    Zn2   S    
C7    H1    S    
C10   C11   A    
C2    C40   A    
C38   H16   S    
C20   C21   A    
O7    Zn1   S    
C27   C28   A    
C24   H3    S    
C13   C14   A    
