data_mof_unit_14285.cif
_audit_creation_date              2013-03-05T16:34:33-0500
_audit_creation_method            fapswitch 2.2
_symmetry_space_group_name_H-M    P1
_symmetry_Int_Tables_number       1
_space_group_crystal_system       triclinic
_cell_length_a                    13.004854
_cell_length_b                    9.093909
_cell_length_c                    7.792149
_cell_angle_alpha                 90.017743
_cell_angle_beta                  96.310573
_cell_angle_gamma                 89.961368
_cell_volume                      915.95406022

loop_
_atom_site_label
_atom_site_type_symbol
_atom_site_description
_atom_site_fract_x
_atom_site_fract_y
_atom_site_fract_z
_atom_type_partial_charge
O1    O     O_R   0.500000 0.288400 0.642760 -0.569014
O2    O     O_R   0.500000 0.711600 0.357240 -0.569014
O3    O     O_R   0.500000 0.288400 0.357240 -0.577923
O4    O     O_R   0.500000 0.711600 0.642760 -0.577924
N1    N     N_1   0.499980 0.500000 0.076820 -0.015820
N2    N     N_1   0.500020 0.500000 0.923180 -0.015820
C1    C     C_R   0.499980 0.220056 0.499983 0.853920
C2    C     C_R   0.500019 0.779944 0.500016 0.853919
O5    O     O_R   0.349000 0.500000 0.619590 -0.548897
O6    O     O_R   0.651000 0.500000 0.380410 -0.548896
O7    O     O_R   0.348990 0.500000 0.334020 -0.581318
O8    O     O_R   0.651010 0.500000 0.665980 -0.581319
C3    C     C_R   0.300281 0.498381 0.467881 0.872657
C4    C     C_R   0.699719 0.501620 0.532118 0.872656
Cu1   Cu    Cu3+1 0.500010 0.500000 0.669080 1.089058
Cu2   Cu    Cu3+1 0.499990 0.500000 0.330920 1.089059
C5    C     C_R   0.812037 0.496682 0.551015 -0.177863
C6    C     C_R   0.187963 0.503321 0.448985 -0.177861
C7    C     C_R   0.030207 0.605046 0.303732 0.412639
C8    C     C_R   0.969794 0.394964 0.696272 0.412638
C9    C     C_R   0.137143 0.590396 0.319577 -0.247694
C10   C     C_R   0.862858 0.409612 0.680426 -0.247693
C11   C     C_R   0.132251 0.423974 0.561717 0.382407
C12   C     C_R   0.867748 0.576029 0.438281 0.382402
C13   C     C_R   0.026056 0.454099 0.565920 -0.121016
C14   C     C_R   0.973944 0.545908 0.434081 -0.121015
H1    H     H_    0.819219 0.357093 0.774170 0.209081
H2    H     H_    0.180783 0.642916 0.225836 0.209079
C15   C     C_1   0.499990 0.065379 0.499980 -0.106636
C16   C     C_1   0.500010 0.934621 0.500019 -0.106636
Cl1   Cl    Cl    0.805951 0.729555 0.329716 -0.491439
Cl2   Cl    Cl    0.194045 0.270444 0.670275 -0.491439
N3    N     N_R   0.980588 0.668505 0.147349 0.184350
O9    O     O_R   0.019754 0.784654 0.081860 -0.273422
O10   O     O_R   0.909814 0.594174 0.053223 -0.293064
N4    N     N_R   0.019415 0.331513 0.852658 0.184351
O11   O     O_R   0.090196 0.405844 0.946770 -0.293067
O12   O     O_R   0.980245 0.215374 0.918166 -0.273426

loop_
_geom_bond_atom_site_label_1
_geom_bond_atom_site_label_2
_geom_bond_distance
_ccdc_geom_bond_type
C15   C16   1.189102 T    
O1    Cu1   1.935106 S    
C6    C9    1.390648 A    
O2    Cu2   1.935105 S    
O7    Cu2   1.966535 S    
C5    C10   1.390650 A    
O8    Cu1   1.966535 S    
O4    C2    1.274338 A    
C2    C16   1.406615 S    
C11   Cl2   1.777776 S    
O4    Cu1   1.935231 S    
N4    O12   1.301433 A    
N3    O9    1.301429 A    
O5    Cu1   1.959332 S    
C12   Cl1   1.777778 S    
C13   C14   1.434723 A    
O6    Cu2   1.959332 S    
O7    C3    1.278573 A    
C4    C5    1.452557 S    
C3    C6    1.452555 S    
C1    C15   1.406615 S    
N4    O11   1.301591 A    
C7    C9    1.388884 A    
C9    H2    1.084197 S    
O8    C4    1.278575 A    
O3    C1    1.274337 A    
C10   H1    1.084197 S    
C11   C13   1.411686 A    
C7    N3    1.435754 S    
N1    N2    1.197244 T    
C12   C14   1.411688 A    
C5    C12   1.399376 A    
C8    C13   1.421435 A    
C6    C11   1.399374 A    
C8    N4    1.435758 S    
O6    C4    1.278452 A    
C7    C14   1.421436 A    
O5    C3    1.278452 A    
N1    Cu2   1.979970 S    
N3    O10   1.301587 A    
N2    Cu1   1.979970 S    
O1    C1    1.274178 A    
O2    C2    1.274178 A    
O3    Cu2   1.935232 S    
Cu1   Cu2   2.634965 S    
C8    C10   1.388884 A    
