data_mof_unit_37544.cif
_audit_creation_date              2013-03-05T16:43:42-0500
_audit_creation_method            fapswitch 2.2
_symmetry_space_group_name_H-M    P1
_symmetry_Int_Tables_number       1
_space_group_crystal_system       triclinic
_cell_length_a                    15.739484
_cell_length_b                    10.660958
_cell_length_c                    9.860656
_cell_angle_alpha                 89.89546
_cell_angle_beta                  90.09123
_cell_angle_gamma                 90.152643
_cell_volume                      1654.58742665

loop_
_atom_site_label
_atom_site_type_symbol
_atom_site_description
_atom_site_fract_x
_atom_site_fract_y
_atom_site_fract_z
_atom_type_partial_charge
O1    O     O_R   0.500010 0.316790 0.614690 -0.618526
O2    O     O_R   0.500000 0.316760 0.385350 -0.585520
C1    C     C_R   0.505604 0.260274 0.500179 0.917906
O3    O     O_R   0.376780 0.500010 0.614650 -0.603025
O4    O     O_R   0.376770 0.499970 0.385310 -0.624035
C2    C     C_R   0.337972 0.499956 0.499910 0.930962
Zn1   Zn    Zn3+2 0.500010 0.500020 0.653130 0.989605
Zn2   Zn    Zn3+2 0.499990 0.499980 0.346870 1.011079
O5    O     O_R   0.500000 0.683240 0.614650 -0.623281
O6    O     O_R   0.499990 0.683210 0.385310 -0.627767
O7    O     O_R   0.623230 0.500030 0.614690 -0.620141
O8    O     O_R   0.623220 0.499990 0.385350 -0.591211
C3    C     C_R   0.502066 0.740015 0.499958 0.938687
C4    C     C_R   0.662052 0.500102 0.500105 0.910078
C5    C     C_3   0.973267 0.383593 0.509341 0.378053
C6    C     C_3   0.028629 0.433373 0.392706 -0.257726
H1    H     H_    0.053025 0.377272 0.306435 0.191529
H2    H     H_    0.946556 0.596268 0.289326 0.190728
C7    C     C_1   0.249225 0.500149 0.499825 -0.109540
C8    C     C_1   0.750834 0.499862 0.500276 -0.102610
C9    C     C_3   0.028944 0.447996 0.616982 -0.258469
C10   C     C_3   0.083315 0.500704 0.500110 0.028249
C11   C     C_3   0.971480 0.566611 0.607740 -0.254941
C12   C     C_3   0.916786 0.499275 0.500329 0.028598
C13   C     C_3   0.026849 0.616388 0.491107 0.371149
C14   C     C_3   0.971174 0.551991 0.383463 -0.259951
C15   C     C_1   0.174047 0.500438 0.499935 0.067975
C16   C     C_1   0.826030 0.499547 0.500340 0.067773
H3    H     H_    0.947109 0.622726 0.694016 0.191955
H4    H     H_    0.053597 0.403732 0.711107 0.189400
C17   C     C_R   0.504445 0.063907 0.621960 0.075680
C18   C     C_R   0.522249 0.129128 0.502820 -0.186353
C19   C     C_R   0.554689 0.063947 0.389079 0.311097
C20   C     C_R   0.548828 0.933509 0.388697 -0.253303
H5    H     H_    0.568908 0.881437 0.300112 0.192813
C21   C     C_R   0.514881 0.871406 0.501685 -0.120647
C22   C     C_R   0.500870 0.936473 0.621264 0.015520
C23   C     C_3   0.428366 0.932977 0.719631 0.142529
C24   C     C_3   0.432535 0.075576 0.720552 -0.506127
H6    H     H_    0.445550 0.888749 0.818221 0.129324
H7    H     H_    0.454226 0.114003 0.819483 0.202651
C25   C     C_R   0.457793 0.408441 0.071342 0.277627
N1    N     N_R   0.499430 0.499140 0.142800 -0.112865
C26   C     C_R   0.547686 0.583632 0.071951 -0.090771
H8    H     H_    0.584851 0.652744 0.126296 0.151966
C27   C     C_R   0.547676 0.583663 0.927934 -0.101400
H9    H     H_    0.584820 0.652811 0.873525 0.153762
N2    N     N_R   0.499430 0.499180 0.857150 -0.111393
C28   C     C_R   0.457659 0.408593 0.928731 0.225232
C29   C     C_3   0.364593 0.382442 0.923218 -0.504569
C30   C     C_3   0.364880 0.381655 0.077154 -0.500598
H10   H     H_    0.327740 0.461579 0.879251 0.242475
H11   H     H_    0.350215 0.289165 0.878617 0.209741
H12   H     H_    0.351328 0.287692 0.121261 0.222914
H13   H     H_    0.376115 0.123275 0.676338 0.224189
H14   H     H_    0.327903 0.460020 0.121933 0.230515
N3    N     N_R   0.944476 0.253856 0.519439 0.223434
O9    O     O_R   0.999955 0.163914 0.526766 -0.303106
O10   O     O_R   0.863855 0.226947 0.521058 -0.343644
N4    N     N_R   0.055683 0.746109 0.481046 0.223804
O11   O     O_R   0.000239 0.836097 0.473777 -0.306603
O12   O     O_R   0.136312 0.772963 0.479485 -0.304048
N5    N     N_R   0.591543 0.127352 0.274545 0.222261
O13   O     O_R   0.646546 0.217012 0.293497 -0.346760
O14   O     O_R   0.581066 0.082809 0.152846 -0.400109
N6    N     N_R   0.349618 0.883621 0.660519 0.238951
O15   O     O_R   0.321035 0.925376 0.544972 -0.339415
O16   O     O_R   0.308406 0.794794 0.722871 -0.351757

loop_
_geom_bond_atom_site_label_1
_geom_bond_atom_site_label_2
_geom_bond_distance
_ccdc_geom_bond_type
O4    Zn2   1.976704 S    
N6    O16   1.300543 A    
C11   C12   1.541037 S    
N5    O14   1.301458 A    
Zn1   O5    1.989135 S    
C22   C23   1.499224 S    
C13   N4    1.457619 S    
C7    C15   1.183276 T    
C9    H4    1.110360 S    
C29   H10   1.112050 S    
C17   C18   1.392535 A    
H2    C14   1.110339 S    
Zn2   N1    2.012305 S    
Zn2   O8    1.975751 S    
C25   C30   1.490441 S    
C19   N5    1.437403 S    
C30   H12   1.111629 S    
C6    C10   1.540889 S    
Zn1   N2    2.011810 S    
C11   C13   1.536959 S    
C19   C20   1.393411 A    
C1    C18   1.423344 S    
C24   H7    1.111615 S    
C9    C10   1.540921 S    
C18   C19   1.417055 A    
N4    O12   1.300322 A    
C23   H6    1.112988 S    
C2    C7    1.396846 S    
C5    N3    1.457596 S    
N3    O9    1.300446 A    
O4    C2    1.285324 A    
N4    O11   1.300411 A    
O3    Zn1   1.975749 S    
N2    C28   1.363352 A    
C5    C6    1.536935 S    
C11   H3    1.110362 S    
O3    C2    1.284908 A    
C21   C22   1.387368 A    
O8    C4    1.285224 A    
C29   C30   1.517913 S    
C20   C21   1.400871 A    
C10   C15   1.428083 S    
C9    C11   1.559113 S    
N1    C26   1.368238 A    
C6    C14   1.559055 S    
C23   C24   1.521526 S    
O7    C4    1.285375 A    
C27   N2    1.368206 A    
N3    O10   1.300327 A    
C29   H11   1.110669 S    
C25   N1    1.363303 A    
C25   C28   1.406227 A    
N5    O13   1.301448 A    
C8    C16   1.183558 T    
C4    C8    1.397384 S    
C5    C9    1.537024 S    
C12   C16   1.428467 S    
N6    O15   1.302416 A    
C26   H8    1.081831 S    
C3    C21   1.414800 S    
Zn2   O6    1.990521 S    
C20   H5    1.083825 S    
C17   C24   1.498783 S    
O2    Zn2   1.989133 S    
C28   C29   1.491296 S    
O5    C3    1.282169 A    
C27   H9    1.081818 S    
C5    C12   1.524585 S    
Zn1   O7    1.976703 S    
O2    C1    1.284517 A    
C17   C22   1.359613 A    
C13   C14   1.536995 S    
O1    Zn1   1.990522 S    
O6    C3    1.283796 A    
C26   C27   1.420094 A    
C24   H13   1.112484 S    
C23   N6    1.465670 S    
C12   C14   1.541045 S    
C6    H1    1.110381 S    
O1    C1    1.284073 A    
C10   C13   1.524463 S    
C30   H14   1.111944 S    
