data_mof_unit_28084.cif
_audit_creation_date              2012-12-10T20:27:57-0500
_audit_creation_method            fapswitch 2.2
_symmetry_space_group_name_H-M    P1
_symmetry_Int_Tables_number       1
_space_group_crystal_system       triclinic
_cell_length_a                    12.801056
_cell_length_b                    10.717417
_cell_length_c                    9.877549
_cell_angle_alpha                 89.344528
_cell_angle_beta                  97.468069
_cell_angle_gamma                 90.561441
_cell_volume                      1343.51276771

loop_
_atom_site_label
_atom_site_type_symbol
_atom_type_description
_atom_site_fract_x
_atom_site_fract_y
_atom_site_fract_z
_atom_type_partial_charge
C1    C     C_R   0.502833 0.260623 0.500939 0.965382
C2    C     C_R   0.558913 0.937283 0.407514 0.386774
C3    C     C_R   0.499191 0.871335 0.496119 -0.279917
C4    C     C_R   0.298294 0.499239 0.472697 0.844286
C5    C     C_R   0.434643 0.935660 0.574579 -0.188070
C6    C     C_3   0.410873 0.924802 0.720656 0.931208
C7    C     C_3   0.426822 0.066326 0.728899 0.366492
C8    C     C_R   0.437973 0.417851 0.062086 0.004205
C9    C     C_R   0.565860 0.576046 0.082532 0.554980
C10   C     C_R   0.568033 0.574569 0.938119 0.403148
C11   C     C_R   0.438259 0.417118 0.919534 -0.026921
C12   C     C_R   0.027355 0.453689 0.548474 -0.064903
C13   C     C_3   0.320783 0.408353 0.895192 0.345898
C14   C     C_3   0.320875 0.410750 0.048939 0.842629
C15   C     C_R   0.500382 0.739594 0.499412 0.907600
C16   C     C_R   0.701750 0.497783 0.527085 0.939834
C17   C     C_R   0.813870 0.489224 0.543305 -0.272493
C18   C     C_R   0.186171 0.501405 0.454573 -0.072786
C19   C     C_R   0.024222 0.588246 0.345879 -0.163671
C20   C     C_R   0.131949 0.574835 0.351160 -0.190852
C21   C     C_R   0.134127 0.437775 0.549660 -0.203446
C22   C     C_3   0.614299 0.081363 0.798082 0.166847
C23   C     C_R   0.972249 0.529886 0.445631 0.122325
C24   C     C_3   0.688427 0.071366 0.931133 -0.641282
C25   C     C_3   0.737022 0.629936 0.910392 0.152013
C26   C     C_3   0.802418 0.715490 0.829802 -0.808202
C27   C     C_3   0.176682 0.297631 0.104115 0.200519
C28   C     C_3   0.140893 0.168569 0.145300 -0.758570
C29   C     C_3   0.726033 0.868219 0.400657 0.193625
C30   C     C_3   0.806637 0.871549 0.300114 -0.746836
C31   C     C_3   0.283790 0.766963 0.710600 0.187498
C32   C     C_3   0.171788 0.738474 0.738297 -0.808234
C33   C     C_R   0.865868 0.546572 0.443906 -0.369032
C34   C     C_R   0.867698 0.414843 0.646754 0.507370
C35   C     C_R   0.974962 0.396825 0.649194 0.530894
C36   C     C_R   0.443758 0.062141 0.581769 -0.265902
C37   C     C_R   0.504102 0.129184 0.499704 -0.280055
C38   C     C_R   0.557099 0.066874 0.405465 0.549329
F1    F     F_    0.483276 0.858113 0.809435 -0.630807
F2    F     F_    0.625783 0.659152 0.160949 -0.631113
F3    F     F_    0.286975 0.295353 0.838983 -0.644926
F4    F     F_    0.277442 0.518562 0.093927 -0.737602
F5    F     F_    0.815723 0.354082 0.739602 -0.666591
F6    F     F_    0.026928 0.322843 0.747853 -0.643710
F7    F     F_    0.615162 0.130459 0.321122 -0.637205
H1    H     H_    0.822839 0.602379 0.363400 0.212111
H2    H     H_    0.770154 0.055802 0.909092 0.187252
H3    H     H_    0.686676 0.158845 0.990026 0.267119
H4    H     H_    0.752169 0.531514 0.884583 0.186187
H5    H     H_    0.764174 0.644281 0.020567 0.156143
H6    H     H_    0.793597 0.813884 0.860176 0.251807
H7    H     H_    0.886841 0.689653 0.850584 0.208668
H8    H     H_    0.775999 0.707243 0.718708 0.242061
H9    H     H_    0.135869 0.320035 0.000296 0.216593
H10   H     H_    0.153090 0.365820 0.178230 0.170700
H11   H     H_    0.179017 0.144438 0.249716 0.250064
H12   H     H_    0.353123 0.116043 0.740195 0.197430
H13   H     H_    0.054049 0.167058 0.144457 0.210812
H14   H     H_    0.162498 0.098049 0.072443 0.284597
H15   H     H_    0.732961 0.778689 0.458710 0.111412
H16   H     H_    0.746676 0.945739 0.474358 0.102164
H17   H     H_    0.802809 0.962464 0.244657 0.266197
H18   H     H_    0.887064 0.859896 0.355987 0.185349
H19   H     H_    0.790977 0.795464 0.224889 0.272105
H20   H     H_    0.338280 0.707960 0.780671 0.196168
H21   H     H_    0.290007 0.743551 0.602638 0.124697
H22   H     H_    0.114695 0.791164 0.665373 0.257223
H23   H     H_    0.282670 0.490273 0.840476 0.070755
H24   H     H_    0.154695 0.637435 0.726426 0.212247
H25   H     H_    0.162038 0.765108 0.844244 0.274568
H26   H     H_    0.982223 0.646419 0.266709 0.139242
H27   H     H_    0.173270 0.624952 0.278169 0.209239
H28   H     H_    0.177828 0.379677 0.627147 0.246284
H29   H     H_    0.642081 0.159879 0.737439 0.174564
H30   H     H_    0.620040 0.993310 0.741408 0.147194
H31   H     H_    0.664161 0.991836 0.993461 0.295790
N1    N     N_R   0.499290 0.499140 0.142710 -0.169352
N2    N     N_R   0.499290 0.499180 0.857070 -0.195044
O1    O     O_R   0.500010 0.316790 0.614690 -0.598683
O2    O     O_3   0.629422 0.659578 0.876739 -0.510882
O3    O     O_3   0.287225 0.298356 0.106886 -0.578210
O4    O     O_3   0.623432 0.876798 0.327866 -0.505729
O5    O     O_3   0.304519 0.894858 0.732936 -0.656916
O6    O     O_R   0.500000 0.316760 0.385350 -0.554058
O7    O     O_R   0.346360 0.499990 0.595720 -0.655157
O8    O     O_R   0.346350 0.499960 0.366370 -0.562883
O9    O     O_R   0.500000 0.683240 0.614650 -0.580016
O10   O     O_R   0.499990 0.683210 0.385310 -0.532829
O11   O     O_R   0.653650 0.500040 0.633630 -0.580277
O12   O     O_R   0.653640 0.500010 0.404280 -0.583243
O13   O     O_3   0.511294 0.106443 0.828460 -0.553733
Zn1   Zn    Zn3+2 0.500010 0.500020 0.653130 1.020848
Zn2   Zn    Zn3+2 0.499990 0.499980 0.346870 1.099694

loop_
_geom_bond_atom_site_label_1
_geom_bond_atom_site_label_2
_ccdc_geom_bond_type
C31   H21   S    
C16   O12   A    
C30   H19   S    
C25   O2    S    
C7    C36   S    
C19   H26   S    
C19   C20   A    
C13   F3    S    
C10   N2    A    
C27   H9    S    
C1    O6    A    
C12   C23   A    
C37   C38   A    
C36   C37   A    
C11   N2    A    
C5    C6    S    
C27   H10   S    
C4    O8    A    
C18   C21   A    
C5    C36   A    
C21   H28   S    
C31   O5    S    
C34   C35   A    
C25   H5    S    
C38   F7    S    
C16   C17   S    
C23   C33   A    
C22   O13   S    
C9    C10   A    
C1    C37   S    
C14   F4    S    
C4    C18   S    
C16   O11   A    
C13   C14   S    
C33   H1    S    
C17   C33   A    
C22   H30   S    
C30   H18   S    
O7    Zn1   S    
C28   H11   S    
C29   H16   S    
C24   H3    S    
C27   O3    S    
C10   O2    S    
C24   H31   S    
C32   H25   S    
C4    O7    A    
N2    Zn1   S    
C25   C26   S    
C12   C21   A    
C9    F2    S    
C12   C35   A    
C19   C23   A    
C29   C30   S    
O8    Zn2   S    
C26   H7    S    
C2    C38   A    
C31   C32   S    
C29   H15   S    
C7    O13   S    
C9    N1    A    
O11   Zn1   S    
C35   F6    S    
O1    Zn1   S    
C6    C7    S    
C32   H22   S    
C30   H17   S    
C8    N1    A    
C1    O1    A    
C22   C24   S    
C2    O4    S    
C17   C34   A    
C22   H29   S    
C26   H8    S    
C3    C15   S    
O12   Zn2   S    
C15   O9    A    
C28   H14   S    
C31   H20   S    
O10   Zn2   S    
C8    C14   S    
C6    O5    S    
C24   H2    S    
C34   F5    S    
C3    C5    A    
C32   H24   S    
C28   H13   S    
C2    C3    A    
C29   O4    S    
C26   H6    S    
C11   C13   S    
C8    C11   A    
N1    Zn2   S    
C18   C20   A    
O6    Zn2   S    
C25   H4    S    
C27   C28   S    
C6    F1    S    
C20   H27   S    
C14   O3    S    
O9    Zn1   S    
C7    H12   S    
C15   O10   A    
C13   H23   S    
