data_mof_unit_42293.cif
_audit_creation_date              2012-12-10T20:27:55-0500
_audit_creation_method            fapswitch 2.2
_symmetry_space_group_name_H-M    P1
_symmetry_Int_Tables_number       1
_space_group_crystal_system       triclinic
_cell_length_a                    12.770995
_cell_length_b                    10.666842
_cell_length_c                    9.927209
_cell_angle_alpha                 90.195146
_cell_angle_beta                  98.473446
_cell_angle_gamma                 89.584024
_cell_volume                      1337.54498015

loop_
_atom_site_label
_atom_site_type_symbol
_atom_type_description
_atom_site_fract_x
_atom_site_fract_y
_atom_site_fract_z
_atom_type_partial_charge
C1    C     C_R   0.507983 0.260258 0.500843 0.890474
C2    C     C_R   0.025545 0.557479 0.539973 0.174188
C3    C     C_R   0.973955 0.457785 0.461460 0.111846
C4    C     C_R   0.868386 0.435120 0.465041 -0.274972
C5    C     C_R   0.864246 0.599599 0.633498 -0.289797
C6    C     C_R   0.970298 0.625929 0.630325 0.113206
C7    C     C_R   0.545384 0.064759 0.626517 0.052497
C8    C     C_R   0.533636 0.129243 0.503224 -0.109830
C9    C     C_R   0.547216 0.062667 0.382838 0.095351
C10   C     C_R   0.541926 0.932356 0.384908 -0.257607
C11   C     C_R   0.525288 0.870974 0.504593 -0.100711
C12   C     C_R   0.298245 0.501527 0.471893 0.878303
C13   C     C_R   0.539094 0.937337 0.626927 0.097408
C14   C     C_3   0.487385 0.936000 0.753303 -0.208997
C15   C     C_3   0.495207 0.078669 0.752883 -0.454244
C16   C     C_R   0.412894 0.539412 0.054816 0.086278
C17   C     C_R   0.586977 0.463496 0.089261 -0.095256
C18   C     C_R   0.587662 0.463156 0.946838 0.119427
C19   C     C_R   0.411642 0.533348 0.912159 0.080972
C20   C     C_3   0.305772 0.469522 0.888964 -0.175850
C21   C     C_3   0.303250 0.485651 0.041757 0.185422
C22   C     C_R   0.503907 0.740021 0.500993 0.889901
C23   C     C_R   0.701685 0.499835 0.528166 0.877309
C24   C     C_R   0.813935 0.508004 0.547535 -0.051386
C25   C     C_R   0.185383 0.498804 0.452828 -0.112318
C26   C     C_R   0.027676 0.382555 0.378398 -0.200542
C27   C     C_R   0.134242 0.400915 0.377216 -0.207550
C28   C     C_R   0.130599 0.583041 0.526360 -0.002071
H1    H     H_    0.827230 0.363030 0.400585 0.136973
H2    H     H_    0.538360 0.891521 0.840908 0.114249
H3    H     H_    0.417940 0.128964 0.734594 0.234074
H4    H     H_    0.551701 0.115777 0.839531 0.178737
H5    H     H_    0.656556 0.432201 0.156571 0.158018
H6    H     H_    0.243516 0.522810 0.822292 0.163725
H7    H     H_    0.819957 0.654943 0.697891 0.147926
H8    H     H_    0.988345 0.306256 0.319215 0.146043
H9    H     H_    0.177653 0.335833 0.321969 0.168647
H10   H     H_    0.544186 0.880548 0.291298 0.167404
N1    N     N_R   0.499290 0.499140 0.142710 -0.121974
N2    N     N_R   0.499290 0.499180 0.857070 -0.112366
O1    O     O_R   0.500010 0.316790 0.614690 -0.637359
O2    O     O_R   0.500000 0.316760 0.385350 -0.589766
O3    O     O_R   0.346360 0.499990 0.595720 -0.638354
O4    O     O_R   0.346350 0.499960 0.366370 -0.600892
O5    O     O_R   0.500000 0.683240 0.614650 -0.630972
O6    O     O_R   0.499990 0.683210 0.385310 -0.622315
O7    O     O_R   0.653650 0.500040 0.633630 -0.647269
O8    O     O_R   0.653640 0.500010 0.404280 -0.625750
Zn1   Zn    Zn3+2 0.500010 0.500020 0.653130 0.910648
Zn2   Zn    Zn3+2 0.499990 0.499980 0.346870 0.947361
N3    N     N_3   0.681201 0.417528 0.900226 -0.477983
H11   H     H_    0.721105 0.493507 0.866300 0.212605
H12   H     H_    0.660265 0.351870 0.822837 0.228450
N4    N     N_3   0.313374 0.337850 0.848788 -0.457770
H13   H     H_    0.334304 0.333226 0.751455 0.247619
H14   H     H_    0.237438 0.299799 0.840529 0.186085
N5    N     N_3   0.223215 0.577657 0.070141 -0.455101
H15   H     H_    0.238318 0.603377 0.172606 0.220349
H16   H     H_    0.229944 0.659668 0.014485 0.154998
N6    N     N_3   0.297283 0.369235 0.118785 -0.388070
H17   H     H_    0.358383 0.307412 0.103222 0.217588
H18   H     H_    0.225349 0.325648 0.083477 0.179824
N7    N     N_3   0.020787 0.720022 0.720326 -0.435255
H19   H     H_    0.979324 0.804386 0.700108 0.193688
H20   H     H_    0.014851 0.693844 0.820326 0.183235
N8    N     N_3   0.179564 0.697159 0.579486 -0.406813
H21   H     H_    0.241702 0.676305 0.656598 0.203475
H22   H     H_    0.209796 0.742992 0.500742 0.212088
N9    N     N_3   0.559331 0.125946 0.258282 -0.424424
H23   H     H_    0.633773 0.168227 0.273028 0.177295
H24   H     H_    0.559792 0.062039 0.178245 0.167557
C29   C     C_2   0.375016 0.890014 0.732978 0.454060
H25   H     H_    0.352008 0.819497 0.801206 0.035131
O9    O     O_2   0.309326 0.931854 0.642017 -0.586872

loop_
_geom_bond_atom_site_label_1
_geom_bond_atom_site_label_2
_ccdc_geom_bond_type
C6    N7    S    
C8    C9    A    
C1    O1    A    
N8    H22   S    
C23   C24   S    
N7    H20   S    
C15   H3    S    
C16   C21   S    
C25   C27   A    
C1    C8    S    
C2    C28   A    
C9    C10   A    
O6    Zn2   S    
C11   C22   S    
C28   N8    S    
C4    H1    S    
O5    Zn1   S    
C12   C25   S    
C10   H10   S    
C20   H6    S    
N1    Zn2   S    
C7    C15   S    
C17   C18   A    
N5    H15   S    
N9    H24   S    
C7    C8    A    
O7    Zn1   S    
C13   C14   S    
C25   C28   A    
C21   N5    S    
C11   C13   A    
C20   N4    S    
N2    Zn1   S    
C26   C27   A    
C2    C6    A    
C5    C24   A    
C17   H5    S    
O2    Zn2   S    
C16   C19   A    
C5    C6    A    
C5    H7    S    
O8    Zn2   S    
C22   O6    A    
C14   H2    S    
C18   N3    S    
N8    H21   S    
C12   O3    A    
C2    C3    A    
N6    H18   S    
N9    H23   S    
C4    C24   A    
N4    H14   S    
N5    H16   S    
C23   O7    A    
C19   N2    A    
C16   N1    A    
O4    Zn2   S    
N7    H19   S    
C1    O2    A    
C7    C13   A    
C22   O5    A    
N3    H11   S    
C20   C21   S    
C21   N6    S    
C29   O9    D    
C10   C11   A    
C26   H8    S    
C27   H9    S    
C17   N1    A    
N4    H13   S    
C12   O4    A    
C18   N2    A    
C23   O8    A    
N6    H17   S    
C14   C15   S    
C14   C29   S    
O1    Zn1   S    
C3    C26   A    
O3    Zn1   S    
C3    C4    A    
C19   C20   S    
C9    N9    S    
C29   H25   S    
N3    H12   S    
C15   H4    S    
