data_mof_unit_9037.cif
_audit_creation_date              2012-12-10T20:31:50-0500
_audit_creation_method            fapswitch 2.2
_symmetry_space_group_name_H-M    P1
_symmetry_Int_Tables_number       1
_space_group_crystal_system       triclinic
_cell_length_a                    9.890484
_cell_length_b                    10.685366
_cell_length_c                    15.503328
_cell_angle_alpha                 90.15179
_cell_angle_beta                  67.328696
_cell_angle_gamma                 90.186398
_cell_volume                      1511.834728

loop_
_atom_site_label
_atom_site_type_symbol
_atom_type_description
_atom_site_fract_x
_atom_site_fract_y
_atom_site_fract_z
_atom_type_partial_charge
C1    C     C_R   0.498619 0.739952 0.502440 0.879718
C2    C     C_R   0.399871 0.466193 0.917409 0.048755
C3    C     C_R   0.260629 0.518837 0.971089 0.165878
C4    C     C_R   0.501280 0.439384 0.959427 0.068431
C5    C     C_R   0.468665 0.479475 0.052365 0.049264
C6    C     C_R   0.326964 0.526281 0.105335 -0.289237
C7    C     C_R   0.223880 0.545261 0.065863 0.061209
C8    C     C_R   0.634882 0.375163 0.911431 -0.233549
C9    C     C_R   0.736457 0.357081 0.951827 -0.247786
C10   C     C_R   0.709405 0.402746 0.040914 0.167531
C11   C     C_R   0.577295 0.467663 0.090610 0.108222
C12   C     C_R   0.407737 0.498130 0.676040 0.870707
C13   C     C_R   0.810604 0.380709 0.082544 -0.201687
C14   C     C_R   0.777773 0.417159 0.174820 -0.192013
C15   C     C_R   0.557123 0.517171 0.178126 -0.258995
C16   C     C_R   0.369814 0.935617 0.512282 0.129026
C17   C     C_R   0.489634 0.871474 0.516046 -0.103078
C18   C     C_R   0.597205 0.935805 0.536771 -0.224703
C19   C     C_R   0.596689 0.065226 0.537164 -0.232466
C20   C     C_R   0.488704 0.128575 0.516638 -0.102685
C21   C     C_R   0.369059 0.063302 0.512843 0.141501
C22   C     C_3   0.299618 0.069875 0.442684 -0.496632
C23   C     C_R   0.498232 0.260037 0.502616 0.875811
C24   C     C_3   0.301370 0.928113 0.441622 -0.480234
C25   C     C_R   0.911949 0.602762 0.529928 0.192170
C26   C     C_R   0.950653 0.403545 0.462130 -0.158419
C27   C     C_R   0.094437 0.403588 0.462110 -0.131353
C28   C     C_R   0.055068 0.603355 0.528491 0.177494
C29   C     C_3   0.010945 0.666194 0.620922 -0.564191
C30   C     C_3   0.854530 0.663065 0.624947 -0.125121
C31   C     C_R   0.592017 0.499269 0.323999 0.866277
C32   C     C_R   0.347607 0.493548 0.777840 -0.051669
C33   C     C_R   0.649065 0.483817 0.222983 -0.062802
C34   C     C_R   0.162894 0.548266 0.927810 -0.185719
C35   C     C_R   0.206976 0.536985 0.831363 -0.227325
C36   C     C_R   0.438304 0.451495 0.821279 -0.244959
H1    H     H_    0.910780 0.329378 0.045634 0.144982
H2    H     H_    0.686225 0.887273 0.546414 0.159630
H3    H     H_    0.685343 0.114616 0.547238 0.167225
H4    H     H_    0.186976 0.108908 0.473269 0.196509
H5    H     H_    0.372573 0.112462 0.375340 0.203736
H6    H     H_    0.189947 0.886059 0.470753 0.198177
H7    H     H_    0.376199 0.887881 0.373821 0.201923
H8    H     H_    0.914115 0.324636 0.432876 0.147643
H9    H     H_    0.166012 0.325127 0.432428 0.148003
H10   H     H_    0.030544 0.606944 0.673791 0.210667
H11   H     H_    0.466497 0.577936 0.215412 0.146864
H12   H     H_    0.056357 0.762486 0.614686 0.188559
H13   H     H_    0.806526 0.757099 0.625607 0.153708
H14   H     H_    0.848838 0.388561 0.209569 0.148448
H15   H     H_    0.836300 0.306115 0.913288 0.149313
H16   H     H_    0.055071 0.585937 0.967418 0.174428
H17   H     H_    0.133990 0.567346 0.798483 0.151569
H18   H     H_    0.543157 0.414934 0.776888 0.158380
H19   H     H_    0.290512 0.546672 0.178911 0.151356
H20   H     H_    0.662663 0.333173 0.843573 0.142207
N1    N     N_R   0.856900 0.500860 0.500610 -0.098358
N2    N     N_R   0.142540 0.500820 0.500610 -0.097002
O1    O     O_R   0.385310 0.683210 0.499990 -0.612190
O2    O     O_R   0.614650 0.683240 0.500000 -0.619541
O3    O     O_R   0.319830 0.499970 0.632240 -0.618992
O4    O     O_R   0.549170 0.500000 0.632250 -0.587495
O5    O     O_R   0.385350 0.316760 0.500000 -0.616899
O6    O     O_R   0.614690 0.316790 0.500010 -0.629237
O7    O     O_R   0.450830 0.500000 0.367750 -0.611614
O8    O     O_R   0.680170 0.500030 0.367760 -0.615406
Zn1   Zn    Zn3+2 0.346870 0.499980 0.499990 0.937733
Zn2   Zn    Zn3+2 0.653130 0.500020 0.500010 0.944010
N3    N     N_3   0.084043 0.597690 0.121803 -0.469807
H21   H     H_    0.036575 0.542004 0.181263 0.189102
H22   H     H_    0.101900 0.686316 0.144217 0.189239
N4    N     N_3   0.758686 0.580738 0.698534 -0.400931
H23   H     H_    0.741918 0.622204 0.763007 0.194202
H24   H     H_    0.809851 0.494540 0.696574 0.192489

loop_
_geom_bond_atom_site_label_1
_geom_bond_atom_site_label_2
_ccdc_geom_bond_type
C31   O8    A    
O8    Zn2   S    
C16   C21   A    
C35   H17   S    
C24   H6    S    
C19   C20   A    
C9    H15   S    
C15   H11   S    
C6    H19   S    
C4    C8    A    
C8    H20   S    
C14   C33   A    
C26   H8    S    
C25   C28   A    
C26   C27   A    
O6    Zn2   S    
C28   C29   S    
C5    C11   A    
C3    C7    A    
C1    O1    A    
C5    C6    A    
C22   H5    S    
C16   C17   A    
C18   C19   A    
C34   C35   A    
N3    H22   S    
O1    Zn1   S    
C11   C15   A    
C8    C9    A    
O7    Zn1   S    
C31   C33   S    
C9    C10   A    
C13   H1    S    
C27   H9    S    
C23   O5    A    
C16   C24   S    
C21   C22   S    
C12   C32   S    
C25   N1    A    
O5    Zn1   S    
C29   H12   S    
C32   C35   A    
N4    H24   S    
C1    O2    A    
N4    H23   S    
C3    C34   A    
C27   N2    A    
C2    C4    A    
C29   C30   S    
C12   O4    A    
O3    Zn1   S    
C20   C23   S    
C22   H4    S    
C17   C18   A    
C19   H3    S    
C23   O6    A    
C30   H13   S    
C22   C24   S    
N1    Zn2   S    
C32   C36   A    
C2    C36   A    
C25   C30   S    
C31   O7    A    
C34   H16   S    
C4    C5    A    
C10   C13   A    
C7    N3    S    
C30   N4    S    
C6    C7    A    
C28   N2    A    
C1    C17   S    
O4    Zn2   S    
C29   H10   S    
C2    C3    A    
C18   H2    S    
C12   O3    A    
C14   H14   S    
N3    H21   S    
C26   N1    A    
C36   H18   S    
C10   C11   A    
N2    Zn1   S    
C20   C21   A    
O2    Zn2   S    
C24   H7    S    
C13   C14   A    
C15   C33   A    
