data_mof_unit_10862.cif
_audit_creation_date              2012-12-11T14:35:47-0500
_audit_creation_method            fapswitch 2.2
_symmetry_space_group_name_H-M    P1
_symmetry_Int_Tables_number       1
_space_group_crystal_system       triclinic
_cell_length_a                    14.651421
_cell_length_b                    16.128348
_cell_length_c                    7.045183
_cell_angle_alpha                 89.999932
_cell_angle_beta                  81.393787
_cell_angle_gamma                 90.000105
_cell_volume                      1646.05402942

loop_
_atom_site_label
_atom_site_type_symbol
_atom_type_description
_atom_site_fract_x
_atom_site_fract_y
_atom_site_fract_z
_atom_type_partial_charge
O1    O     O_R   0.337460 0.413110 0.524760 -0.493278
O2    O     O_R   0.662540 0.913110 0.475240 -0.493262
O3    O     O_R   0.348690 0.587910 0.191230 -0.525375
O4    O     O_R   0.651310 0.087910 0.808770 -0.525346
O5    O     O_R   0.166530 0.586890 0.082470 -0.550177
O6    O     O_R   0.833470 0.086890 0.917530 -0.550177
C1    C     C_R   0.372677 0.613972 0.353502 0.657568
C2    C     C_R   0.627319 0.113965 0.646494 0.657531
O7    O     O_R   0.348700 0.413830 0.191250 -0.513844
O8    O     O_R   0.651300 0.913830 0.808750 -0.513728
O9    O     O_R   0.166530 0.411570 0.082490 -0.561260
O10   O     O_R   0.833470 0.911570 0.917510 -0.561237
C3    C     C_R   0.373758 0.387864 0.354074 0.765250
C4    C     C_R   0.626243 0.887857 0.645930 0.765309
O11   O     O_R   0.337460 0.588430 0.524740 -0.540405
O12   O     O_R   0.662540 0.088430 0.475260 -0.540453
O13   O     O_3   0.192230 0.499460 0.407330 -0.395929
O14   O     O_3   0.807770 0.999460 0.592670 -0.395940
V1    V     V_3+5 0.263080 0.500100 0.108540 1.643525
V2    V     V_3+5 0.736920 0.000100 0.891460 1.643639
O15   O     O_R   0.155290 0.412090 0.756570 -0.520443
O16   O     O_R   0.844710 0.912090 0.243430 -0.520484
C5    C     C_R   0.131142 0.384252 0.931868 0.749253
C6    C     C_R   0.868858 0.884253 0.068130 0.749174
O17   O     O_R   0.155290 0.586170 0.756550 -0.527785
O18   O     O_R   0.844710 0.086170 0.243450 -0.527798
C7    C     C_R   0.135570 0.616627 0.932178 0.703964
C8    C     C_R   0.864428 0.116627 0.067825 0.703867
V3    V     V_3+5 0.240910 0.499900 0.616030 1.659556
V4    V     V_3+5 0.759090 0.999900 0.383970 1.659512
O19   O     O_3   0.311760 0.500540 0.867100 -0.344816
O20   O     O_3   0.688240 0.000540 0.132900 -0.344770
C9    C     C_3   0.070127 0.732344 0.171914 -0.262697
C10   C     C_3   0.929869 0.232342 0.828092 -0.262759
H1    H     H_    0.033697 0.690014 0.283266 0.107064
H2    H     H_    0.966299 0.190011 0.716745 0.107106
C11   C     C_3   0.014350 0.814953 0.183585 0.508491
C12   C     C_3   0.985647 0.314951 0.816416 0.508533
H3    H     H_    0.960735 0.607158 0.102108 0.162576
H4    H     H_    0.039253 0.107158 0.897899 0.162550
C13   C     C_3   0.965996 0.653852 0.984763 -0.264155
C14   C     C_3   0.034001 0.153850 0.015245 -0.264155
C15   C     C_3   0.080213 0.756211 0.806593 -0.120322
C16   C     C_3   0.919780 0.256211 0.193408 -0.120334
C17   C     C_3   0.066845 0.688936 0.970030 -0.172537
C18   C     C_3   0.933151 0.188935 0.029979 -0.172492
H5    H     H_    0.075004 0.725556 0.668418 0.152558
H6    H     H_    0.924986 0.225561 0.331589 0.152646
C19   C     C_3   0.940743 0.812415 0.041120 -0.168627
C20   C     C_3   0.059255 0.312413 0.958875 -0.168627
C21   C     C_3   0.891888 0.724606 0.036902 -0.287229
C22   C     C_3   0.108109 0.224602 0.963083 -0.287259
C23   C     C_3   0.000614 0.821427 0.843070 -0.339524
C24   C     C_3   0.999384 0.321425 0.156926 -0.339538
H7    H     H_    0.025145 0.886235 0.820682 0.231075
H8    H     H_    0.974854 0.386233 0.179317 0.231077
H9    H     H_    0.953608 0.809748 0.742819 0.204980
H10   H     H_    0.046392 0.309743 0.257168 0.204967
H11   H     H_    0.848234 0.728255 0.920551 0.158497
H12   H     H_    0.151773 0.228253 0.079418 0.158409
H13   H     H_    0.393913 0.732928 0.597970 0.153621
H14   H     H_    0.606005 0.232835 0.401859 0.153590
C25   C     C_2   0.449068 0.674511 0.343749 0.492978
C26   C     C_2   0.550918 0.174490 0.656229 0.493057
C27   C     C_2   0.451428 0.730423 0.484697 -0.291648
C28   C     C_2   0.548526 0.230371 0.515227 -0.291901
C29   C     C_2   0.549479 0.825718 0.653617 -0.396744
C30   C     C_2   0.450529 0.325745 0.346401 -0.396204
C31   C     C_2   0.528535 0.789832 0.488641 0.641712
C32   C     C_2   0.471419 0.289786 0.511332 0.641575
C33   C     C_2   0.947054 0.605597 0.810274 0.864381
O21   O     O_2   0.931501 0.531591 0.825527 -0.462585
O22   O     O_R   0.943940 0.644627 0.634815 -0.656579
H15   H     H_    0.934698 0.603720 0.530265 0.336321
C34   C     C_2   0.052974 0.105588 0.189706 0.864467
O23   O     O_2   0.068697 0.031618 0.174342 -0.462495
O24   O     O_R   0.055965 0.144583 0.365244 -0.656643
H16   H     H_    0.065259 0.103677 0.469750 0.336289
F1    F     F_    0.575285 0.811660 0.314184 -0.582799
F2    F     F_    0.424617 0.311548 0.685785 -0.583009
C35   C     C_2   0.493472 0.807942 0.843918 0.853822
O25   O     O_2   0.479199 0.862863 0.964417 -0.498509
O26   O     O_R   0.455968 0.729261 0.884980 -0.621273
H17   H     H_    0.407449 0.729245 0.003242 0.320140
C36   C     C_2   0.506661 0.308119 0.156194 0.853666
O27   O     O_2   0.521275 0.363206 0.036237 -0.498998
O28   O     O_R   0.543962 0.229406 0.114700 -0.621063
H18   H     H_    0.592548 0.229428 0.996546 0.320122
F3    F     F_    0.521182 0.667801 0.198647 -0.597590
F4    F     F_    0.478820 0.167786 0.801366 -0.597514
C37   C     C_2   0.165435 0.744302 0.231465 0.823090
O29   O     O_2   0.186368 0.703316 0.364328 -0.587720
O30   O     O_R   0.228178 0.802453 0.141588 -0.594678
H19   H     H_    0.286647 0.805751 0.202094 0.301307
C38   C     C_2   0.834563 0.244302 0.768533 0.823070
O31   O     O_2   0.813632 0.203316 0.635668 -0.587693
O32   O     O_R   0.771826 0.302462 0.858393 -0.594653
H20   H     H_    0.713379 0.305792 0.797821 0.301364
F5    F     F_    0.075702 0.878744 0.127216 -0.593667
F6    F     F_    0.924294 0.378740 0.872786 -0.593642
C39   C     C_2   0.973125 0.835164 0.383956 0.715839
O33   O     O_2   0.907573 0.795163 0.462893 -0.586476
O34   O     O_R   0.001223 0.908040 0.466298 -0.604351
H21   H     H_    0.955006 0.928951 0.576492 0.287850
C40   C     C_2   0.026869 0.335159 0.616042 0.715896
O35   O     O_2   0.092407 0.295147 0.537093 -0.586535
O36   O     O_R   0.998781 0.408037 0.533699 -0.604307
H22   H     H_    0.044998 0.428943 0.423500 0.287864
C41   C     C_2   0.822038 0.703975 0.212924 0.893714
O37   O     O_2   0.823970 0.637510 0.295782 -0.530859
O38   O     O_R   0.751838 0.759970 0.276842 -0.602891
H23   H     H_    0.713512 0.740754 0.400758 0.333393
C42   C     C_2   0.177943 0.203960 0.787036 0.893787
O39   O     O_2   0.176044 0.137464 0.704299 -0.530843
O40   O     O_R   0.248086 0.259985 0.722949 -0.602869
H24   H     H_    0.286382 0.240765 0.599001 0.333377
C43   C     C_2   0.175406 0.795114 0.774713 0.914881
O41   O     O_2   0.242871 0.750078 0.749603 -0.586763
O42   O     O_R   0.187599 0.881184 0.767995 -0.586780
H25   H     H_    0.255075 0.897859 0.744343 0.332877
C44   C     C_2   0.824586 0.295116 0.225290 0.914891
O43   O     O_2   0.757117 0.250084 0.250439 -0.586749
O44   O     O_R   0.812397 0.381186 0.231980 -0.586779
H26   H     H_    0.744921 0.397863 0.255643 0.332954

loop_
_geom_bond_atom_site_label_1
_geom_bond_atom_site_label_2
_ccdc_geom_bond_type
V4    O20   S    
O28   H18   S    
C25   C27   D    
C39   O33   D    
C9    C17   S    
O22   H15   S    
C38   O31   D    
C26   F4    S    
O4    C2    A    
V1    O19   S    
C43   O42   S    
O32   H20   S    
O44   H26   S    
H3    C13   S    
C22   C42   S    
C40   O36   S    
C8    C18   S    
C14   C34   S    
O30   H19   S    
O3    C1    A    
C41   O38   S    
C24   H10   S    
C19   C23   S    
O12   V4    S    
O40   H24   S    
C16   C44   S    
O13   V3    S    
C14   C18   S    
O7    C3    A    
C22   H12   S    
O13   V1    S    
O5    C7    A    
C15   C23   S    
O6    C8    A    
O38   H23   S    
C16   C18   S    
C19   C21   S    
C20   C22   S    
O36   H22   S    
O3    V1    S    
C10   C18   S    
C10   H2    S    
C13   C33   S    
C7    C17   S    
C2    O12   A    
C36   O28   S    
C21   C41   S    
V3    O19   S    
C30   C36   S    
C25   F3    S    
C35   O26   S    
O7    V1    S    
O11   V3    S    
C23   H7    S    
O17   V3    S    
C24   H8    S    
C12   C20   S    
H14   C28   S    
C32   F2    S    
C10   C38   S    
C12   F6    S    
O8    C4    A    
O8    V2    S    
C37   O29   D    
C33   O22   S    
C23   H9    S    
C5    C20   S    
C1    O11   A    
O24   H16   S    
O15   V3    S    
C35   O25   D    
C29   C31   D    
C26   C28   D    
C34   O23   D    
H13   C27   S    
C37   O30   S    
C11   C19   S    
O26   H17   S    
C4    C29   S    
O9    V1    S    
O10   V2    S    
O1    V3    S    
C20   C24   S    
C34   O24   S    
C1    C25   S    
C44   O43   D    
C15   C43   S    
O14   V4    S    
C2    C26   S    
O18   V4    S    
O15   C5    A    
O16   C6    A    
C31   F1    S    
O1    C3    A    
C11   F5    S    
C42   O39   D    
V2    O20   S    
C6    C19   S    
O16   V4    S    
C10   C12   S    
H4    C14   S    
C36   O27   D    
O42   H25   S    
C38   O32   S    
C29   C35   S    
O5    V1    S    
O17   C7    A    
O6    V2    S    
C40   O35   D    
O10   C6    A    
O18   C8    A    
C39   O34   S    
O2    V4    S    
C12   C40   S    
C9    C37   S    
C33   O21   D    
C15   C17   S    
C41   O37   D    
C11   C39   S    
C28   C32   S    
C27   C31   S    
O9    C5    A    
C9    H1    S    
O14   V2    S    
O2    C4    A    
C9    C11   S    
C44   O44   S    
O4    V2    S    
C16   C24   S    
C21   H11   S    
C30   C32   D    
O34   H21   S    
C13   C17   S    
C43   O41   D    
C15   H5    S    
C13   C21   S    
C16   H6    S    
C14   C22   S    
C42   O40   S    
C3    C30   S    
