data_mof_unit_34756.cif
_audit_creation_date              2013-03-05T16:44:39-0500
_audit_creation_method            fapswitch 2.2
_symmetry_space_group_name_H-M    P1
_symmetry_Int_Tables_number       1
_space_group_crystal_system       triclinic
_cell_length_a                    27.751474
_cell_length_b                    10.671337
_cell_length_c                    9.838025
_cell_angle_alpha                 90.115892
_cell_angle_beta                  89.921488
_cell_angle_gamma                 90.017572
_cell_volume                      2913.47634312

loop_
_atom_site_label
_atom_site_type_symbol
_atom_site_description
_atom_site_fract_x
_atom_site_fract_y
_atom_site_fract_z
_atom_type_partial_charge
O1    O     O_R   0.500010 0.316790 0.614690 -0.617431
O2    O     O_R   0.500000 0.316760 0.385350 -0.620351
C1    C     C_R   0.498464 0.259876 0.499955 0.887940
O3    O     O_R   0.428760 0.500040 0.614660 -0.622960
O4    O     O_R   0.428750 0.500000 0.385310 -0.625633
C2    C     C_R   0.405997 0.500251 0.500037 0.871549
Zn1   Zn    Zn3+2 0.500000 0.500020 0.653130 0.953398
Zn2   Zn    Zn3+2 0.500000 0.499980 0.346870 0.959324
O5    O     O_R   0.500000 0.683240 0.614650 -0.621767
O6    O     O_R   0.499990 0.683210 0.385310 -0.629414
O7    O     O_R   0.571250 0.500000 0.614690 -0.616984
O8    O     O_R   0.571240 0.499960 0.385340 -0.606558
C3    C     C_R   0.498443 0.740148 0.500101 0.887050
C4    C     C_R   0.594033 0.499198 0.499862 0.881466
C5    C     C_R   0.177616 0.394142 0.517031 0.505063
O9    O     O_2   0.202421 0.285874 0.528553 -0.549099
N1    N     N_R   0.201722 0.504644 0.501194 -0.359113
C6    C     C_R   0.178112 0.616150 0.488342 0.505533
C7    C     C_R   0.277935 0.515401 0.377785 -0.098533
C8    C     C_R   0.328004 0.514003 0.377348 -0.213214
C9    C     C_R   0.327925 0.490216 0.622979 -0.209685
C10   C     C_R   0.277903 0.491107 0.623005 -0.100783
C11   C     C_R   0.252990 0.503741 0.500550 0.321592
C12   C     C_R   0.101919 0.506829 0.508493 -0.051683
C13   C     C_R   0.127253 0.393103 0.521160 -0.021853
C14   C     C_R   0.101974 0.281102 0.536840 -0.135215
C15   C     C_R   0.127739 0.619399 0.491650 -0.022152
C16   C     C_R   0.353343 0.501322 0.500090 -0.039774
H1    H     H_    0.346551 0.480689 0.718876 0.152688
H2    H     H_    0.258409 0.482316 0.717957 0.137784
H3    H     H_    0.120674 0.192261 0.544372 0.190938
C17   C     C_R   0.646872 0.500988 0.500918 -0.105460
C18   C     C_R   0.974615 0.396340 0.544681 0.045991
C19   C     C_R   0.974834 0.622614 0.491239 0.046038
C20   C     C_R   0.949517 0.509790 0.518949 0.072692
C21   C     C_R   0.947731 0.288689 0.580695 -0.214799
C22   C     C_R   0.897811 0.290689 0.583611 -0.131931
C23   C     C_R   0.872832 0.400061 0.551641 -0.023647
C24   C     C_R   0.898475 0.510223 0.520239 -0.050765
C25   C     C_R   0.872947 0.620593 0.489328 -0.023529
C26   C     C_R   0.822560 0.618204 0.488445 0.519886
N2    N     N_R   0.798670 0.509920 0.518410 -0.354782
C27   C     C_R   0.822465 0.402094 0.550416 0.515512
C28   C     C_R   0.724717 0.462645 0.396814 -0.149443
C29   C     C_R   0.674646 0.458158 0.389307 -0.038217
C30   C     C_R   0.670142 0.546702 0.617826 -0.259054
C31   C     C_R   0.720166 0.550565 0.624548 0.047298
C32   C     C_R   0.747369 0.508499 0.513412 0.263617
O10   O     O_2   0.797337 0.297374 0.580463 -0.547254
C33   C     C_R   0.025511 0.394126 0.534251 0.046895
C34   C     C_R   0.050894 0.507967 0.512667 0.071189
C35   C     C_R   0.025874 0.622888 0.495034 0.046788
C36   C     C_R   0.052082 0.281270 0.542886 -0.214621
H4    H     H_    0.746487 0.429583 0.312408 0.149275
H5    H     H_    0.878848 0.205537 0.610749 0.192969
H6    H     H_    0.964121 0.201374 0.609862 0.142425
H7    H     H_    0.035450 0.190452 0.551286 0.139252
O11   O     O_2   0.203406 0.723326 0.473332 -0.548793
C37   C     C_R   0.102940 0.732516 0.480117 -0.134717
H8    H     H_    0.346757 0.523462 0.281345 0.154824
H9    H     H_    0.258464 0.525256 0.283082 0.138456
H10   H     H_    0.122063 0.820521 0.469595 0.191461
C38   C     C_R   0.948013 0.731300 0.458889 -0.214104
C39   C     C_R   0.898064 0.730062 0.458222 -0.130463
O12   O     O_2   0.797524 0.722710 0.457340 -0.546976
C40   C     C_R   0.053000 0.734566 0.482180 -0.214243
H11   H     H_    0.964423 0.818730 0.430078 0.141884
H12   H     H_    0.649335 0.580273 0.703935 0.168867
H13   H     H_    0.879187 0.815637 0.432451 0.192706
H14   H     H_    0.036851 0.826090 0.476171 0.139214
C41   C     C_R   0.489986 0.064259 0.623390 0.124599
C42   C     C_R   0.490528 0.128607 0.500455 -0.103027
C43   C     C_R   0.481652 0.064508 0.378468 -0.212766
H15   H     H_    0.478330 0.113215 0.282476 0.165825
C44   C     C_R   0.481579 0.934981 0.378608 -0.214881
H16   H     H_    0.478140 0.885782 0.282668 0.170254
C45   C     C_R   0.490448 0.871439 0.500730 -0.102673
C46   C     C_R   0.489909 0.936436 0.623567 0.145695
C47   C     C_3   0.523544 0.929687 0.741951 -0.492107
C48   C     C_3   0.523709 0.071712 0.741550 -0.461944
H17   H     H_    0.505892 0.889453 0.833495 0.201863
H18   H     H_    0.559033 0.887897 0.715161 0.206221
H19   H     H_    0.506316 0.113188 0.832992 0.200917
H20   H     H_    0.559272 0.112693 0.714172 0.213915
C49   C     C_R   0.482444 0.399330 0.071188 0.225791
N3    N     N_R   0.499670 0.499140 0.142800 -0.108605
C50   C     C_R   0.521734 0.593414 0.072183 -0.118352
H21   H     H_    0.538497 0.669913 0.126748 0.150843
C51   C     C_R   0.521813 0.593289 0.928018 -0.128052
H22   H     H_    0.538800 0.669363 0.873637 0.145156
N4    N     N_R   0.499670 0.499180 0.857150 -0.107351
C52   C     C_R   0.482416 0.399404 0.928470 0.218825
C53   C     C_3   0.432332 0.349347 0.922817 -0.509713
C54   C     C_3   0.432377 0.349074 0.077152 -0.510394
H23   H     H_    0.406472 0.417517 0.879024 0.214703
H24   H     H_    0.430902 0.253840 0.877736 0.203468
H25   H     H_    0.406428 0.416764 0.122194 0.216774
H26   H     H_    0.431058 0.253317 0.121129 0.198910
C55   C     C_1   0.743203 0.596908 0.746094 0.199887
N5    N     N_1   0.761719 0.634055 0.843513 -0.176908
C56   C     C_1   0.653270 0.405598 0.268017 0.216645
N6    N     N_1   0.636197 0.363469 0.170830 -0.190078

loop_
_geom_bond_atom_site_label_1
_geom_bond_atom_site_label_2
_geom_bond_distance
_ccdc_geom_bond_type
C50   H21   1.081517 S    
C53   C54   1.518370 S    
C26   N2    1.364571 A    
C20   C24   1.416561 A    
C7    C8    1.389577 A    
C12   C15   1.408508 A    
C48   H20   1.112329 S    
C40   H14   1.076495 S    
C45   C46   1.392221 A    
Zn1   O7    2.012623 S    
N1    C11   1.422820 S    
C21   C22   1.385784 A    
C48   H19   1.111532 S    
C37   C40   1.386205 A    
O4    C2    1.292545 A    
O7    C4    1.293828 A    
C5    C13   1.398218 A    
C54   H26   1.111050 S    
C5    O9    1.350111 S    
C18   C21   1.415005 A    
C31   C55   1.443149 S    
C5    N1    1.364652 A    
C19   C20   1.420479 A    
C43   H15   1.082936 S    
O5    C3    1.282012 A    
C52   C53   1.489930 S    
C6    O11   1.350021 S    
C2    C16   1.461290 S    
C31   C32   1.401007 A    
C8    H8    1.082635 S    
C12   C34   1.416632 A    
C14   H3    1.083637 S    
C53   H23   1.110075 S    
C9    C10   1.388225 A    
C43   C44   1.382233 A    
O3    Zn1   2.013425 S    
C41   C48   1.495350 S    
C49   C52   1.404065 A    
N1    C6    1.364736 A    
C3    C45   1.418578 S    
C38   H11   1.076425 S    
C33   C36   1.415095 A    
C34   C35   1.420511 A    
C56   N6    1.157657 T    
C12   C13   1.408561 A    
O3    C2    1.293308 A    
C24   C25   1.408590 A    
C47   H17   1.111593 S    
C36   H7    1.076604 S    
N3    C50   1.367821 A    
C27   O10   1.350102 S    
C26   O12   1.349996 S    
C8    C16   1.404985 A    
C54   H25   1.111249 S    
C18   C33   1.416214 A    
C49   N3    1.362686 A    
C9    H1    1.081349 S    
C38   C39   1.386242 A    
O1    C1    1.281473 A    
C7    C11   1.397008 A    
C44   H16   1.083436 S    
C30   H12   1.084878 S    
C22   C23   1.394378 A    
C21   H6    1.076627 S    
C47   H18   1.112381 S    
C49   C54   1.490294 S    
C55   N5    1.157336 T    
Zn2   O8    2.013425 S    
Zn1   N4    2.007200 S    
C33   C34   1.420282 A    
C17   C29   1.415822 A    
N2    C32   1.424686 S    
C39   H13   1.083628 S    
C44   C45   1.402864 A    
C29   C56   1.445464 S    
C25   C26   1.398588 A    
C9    C16   1.404077 A    
O8    C4    1.292886 A    
C53   H24   1.111406 S    
C50   C51   1.418299 A    
C51   N4    1.367557 A    
N2    C27   1.364448 A    
C14   C36   1.385776 A    
N4    C52   1.362741 A    
C35   C40   1.415196 A    
C28   C29   1.392419 A    
Zn1   O5    1.992265 S    
C30   C31   1.390494 A    
C37   H10   1.083617 S    
C10   H2    1.083069 S    
O1    Zn1   1.990794 S    
C17   C30   1.406206 A    
O2    Zn2   1.992266 S    
C6    C15   1.398684 A    
C4    C17   1.466527 S    
C42   C43   1.402218 A    
O6    C3    1.281993 A    
O4    Zn2   2.012626 S    
C19   C35   1.416992 A    
C25   C39   1.394448 A    
O2    C1    1.282238 A    
C13   C14   1.394411 A    
C23   C27   1.397986 A    
C15   C37   1.394591 A    
C46   C47   1.495415 S    
C23   C24   1.408606 A    
C7    H9    1.082995 S    
C19   C38   1.415334 A    
C18   C20   1.420265 A    
C1    C42   1.417978 S    
Zn2   N3    2.007681 S    
C47   C48   1.515621 S    
C22   H5    1.083623 S    
C28   H4    1.084709 S    
C41   C42   1.392049 A    
Zn2   O6    1.990793 S    
C10   C11   1.396605 A    
C51   H22   1.080895 S    
C41   C46   1.364040 A    
C28   C32   1.396393 A    
