data_mof_unit_26805.cif
_audit_creation_date              2012-12-10T16:37:23-0500
_audit_creation_method            fapswitch 2.2
_symmetry_space_group_name_H-M    P1
_symmetry_Int_Tables_number       1
_space_group_crystal_system       triclinic
_cell_length_a                    16.773369
_cell_length_b                    16.930346
_cell_length_c                    17.028108
_cell_angle_alpha                 65.678008
_cell_angle_beta                  65.575181
_cell_angle_gamma                 65.693425
_cell_volume                      3838.6397101

loop_
_atom_site_label
_atom_site_type_symbol
_atom_type_description
_atom_site_fract_x
_atom_site_fract_y
_atom_site_fract_z
_atom_type_partial_charge
C1    C     C_R   0.454656 0.939132 0.689785 -0.214767
C2    C     C_R   0.458600 0.690364 0.935604 -0.216483
C3    C     C_R   0.065111 0.542514 0.309756 -0.214733
C4    C     C_R   0.934886 0.457488 0.690245 -0.214733
C5    C     C_R   0.962951 0.179102 0.437626 0.893470
C6    C     C_R   0.037049 0.820897 0.562374 0.893470
C7    C     C_R   0.179336 0.438643 0.960855 0.909574
C8    C     C_R   0.820664 0.561357 0.039145 0.909573
C9    C     C_R   0.430477 0.979937 0.176116 0.911844
C10   C     C_R   0.569523 0.020063 0.823884 0.911843
C11   C     C_R   0.569622 0.823885 0.019968 0.914772
C12   C     C_R   0.545344 0.060868 0.310215 -0.214768
C13   C     C_R   0.430378 0.176115 0.980032 0.914772
C14   C     C_R   0.018776 0.569752 0.824418 0.911985
C15   C     C_R   0.981223 0.430248 0.175582 0.911986
C16   C     C_R   0.820763 0.038487 0.561721 0.896798
C17   C     C_R   0.179237 0.961513 0.438279 0.896798
C18   C     C_R   0.498522 0.953747 0.733565 -0.189739
C19   C     C_R   0.501478 0.046253 0.266435 -0.189739
C20   C     C_R   0.080089 0.697113 0.450398 -0.182180
C21   C     C_R   0.919911 0.302886 0.549602 -0.182181
C22   C     C_R   0.696336 0.448446 0.082957 -0.187013
C23   C     C_R   0.074306 0.648920 0.404320 -0.209931
C24   C     C_R   0.303664 0.551554 0.917042 -0.187013
C25   C     C_R   0.303527 0.916839 0.550325 -0.181819
C26   C     C_R   0.696473 0.083161 0.449675 -0.181819
C27   C     C_R   0.497144 0.266007 0.049861 -0.188509
C28   C     C_R   0.502855 0.733993 0.950139 -0.188509
C29   C     C_R   0.052251 0.497766 0.265389 -0.180782
C30   C     C_R   0.947747 0.502235 0.734612 -0.180782
C31   C     C_R   0.546845 0.011522 0.545529 0.016374
C32   C     C_R   0.453155 0.988477 0.454471 0.016374
C33   C     C_R   0.009614 0.547706 0.545949 0.018453
C34   C     C_R   0.925695 0.351079 0.595681 -0.209928
C35   C     C_R   0.990385 0.452295 0.454051 0.018453
C36   C     C_R   0.547539 0.545296 0.010927 0.015291
C37   C     C_R   0.452461 0.454705 0.989072 0.015292
C38   C     C_R   0.573721 0.039468 0.450156 0.048016
C39   C     C_R   0.426280 0.960532 0.549844 0.048016
C40   C     C_R   0.969050 0.475632 0.595667 0.050378
C41   C     C_R   0.030948 0.524369 0.404333 0.050378
C42   C     C_R   0.476122 0.595764 0.969361 0.052426
C43   C     C_R   0.523877 0.404236 0.030638 0.052425
C44   C     C_R   0.525509 0.029246 0.404594 0.054892
C45   C     C_R   0.648271 0.402599 0.075892 -0.218364
C46   C     C_R   0.474492 0.970754 0.595406 0.054892
C47   C     C_R   0.426901 0.550438 0.960112 0.047720
C48   C     C_R   0.573099 0.449562 0.039887 0.047720
C49   C     C_R   0.961039 0.426443 0.549599 0.047456
C50   C     C_R   0.038960 0.573558 0.450401 0.047455
C51   C     C_R   0.564696 0.000789 0.686311 0.068939
C52   C     C_R   0.435304 0.999211 0.313689 0.068939
C53   C     C_R   0.051403 0.672543 0.544869 0.079574
C54   C     C_R   0.948596 0.327457 0.455131 0.079573
C55   C     C_R   0.671549 0.543238 0.055004 0.075972
C56   C     C_R   0.351730 0.597400 0.924107 -0.218364
C57   C     C_R   0.328451 0.456762 0.944995 0.075972
C58   C     C_R   0.328713 0.944972 0.455973 0.080075
C59   C     C_R   0.671287 0.055028 0.544027 0.080075
C60   C     C_R   0.433287 0.313771 0.000771 0.064902
C61   C     C_R   0.566712 0.686229 0.999229 0.064903
C62   C     C_R   0.003469 0.433200 0.312786 0.064456
C63   C     C_R   0.996530 0.566800 0.687214 0.064456
C64   C     C_R   0.605411 0.024198 0.729737 -0.118982
C65   C     C_R   0.394589 0.975802 0.270263 -0.118982
C66   C     C_R   0.051954 0.723036 0.594514 -0.132097
C67   C     C_R   0.351064 0.924158 0.596219 -0.211047
C68   C     C_R   0.948047 0.276964 0.405486 -0.132095
C69   C     C_R   0.721925 0.592801 0.056524 -0.136506
C70   C     C_R   0.278075 0.407199 0.943476 -0.136506
C71   C     C_R   0.278071 0.944074 0.406636 -0.137548
C72   C     C_R   0.721929 0.055926 0.593364 -0.137548
C73   C     C_R   0.393813 0.270357 0.976180 -0.122798
C74   C     C_R   0.606187 0.729643 0.023820 -0.122797
C75   C     C_R   0.979465 0.393229 0.269303 -0.116813
C76   C     C_R   0.020534 0.606771 0.730697 -0.116813
C77   C     C_R   0.682266 0.052577 0.682333 -0.298165
C78   C     C_R   0.648937 0.075842 0.403781 -0.211047
C79   C     C_R   0.317734 0.947423 0.317667 -0.298165
C80   C     C_R   0.047893 0.683762 0.683633 -0.304796
C81   C     C_R   0.952106 0.316238 0.316367 -0.304797
C82   C     C_R   0.682155 0.682110 0.053316 -0.295549
C83   C     C_R   0.317845 0.317890 0.946684 -0.295549
C84   C     C_R   0.593478 0.023504 0.591714 0.077173
C85   C     C_R   0.406522 0.976495 0.408286 0.077173
C86   C     C_R   0.020148 0.594966 0.592433 0.076209
C87   C     C_R   0.979851 0.405035 0.407567 0.076209
C88   C     C_R   0.594476 0.591308 0.022776 0.076364
C89   C     C_R   0.541400 0.309636 0.064397 -0.216482
C90   C     C_R   0.405523 0.408692 0.977224 0.076364
H1    H     H_    0.716488 0.063814 0.717042 0.194479
H2    H     H_    0.903110 0.326001 0.668072 0.138941
H3    H     H_    0.673470 0.329849 0.097810 0.134810
H4    H     H_    0.326532 0.670151 0.902186 0.134811
H5    H     H_    0.325457 0.901886 0.668567 0.134143
H6    H     H_    0.674544 0.098113 0.331433 0.134143
H7    H     H_    0.588143 0.266690 0.103875 0.131906
H8    H     H_    0.411855 0.733311 0.896127 0.131906
H9    H     H_    0.103934 0.590136 0.267438 0.140341
H10   H     H_    0.896063 0.409866 0.732562 0.140342
H11   H     H_    0.480846 0.924220 0.805037 0.160546
H12   H     H_    0.283512 0.936186 0.282958 0.194479
H13   H     H_    0.519154 0.075779 0.194963 0.160546
H14   H     H_    0.110573 0.752000 0.410726 0.162578
H15   H     H_    0.889430 0.247998 0.589274 0.162580
H16   H     H_    0.751391 0.408591 0.113366 0.163445
H17   H     H_    0.248609 0.591408 0.886633 0.163444
H18   H     H_    0.248436 0.886102 0.589885 0.158668
H19   H     H_    0.751564 0.113898 0.410115 0.158668
H20   H     H_    0.512203 0.194403 0.080806 0.158469
H21   H     H_    0.487796 0.805597 0.919195 0.158469
H22   H     H_    0.084914 0.512443 0.193565 0.179046
H23   H     H_    0.059002 0.717669 0.718518 0.193091
H24   H     H_    0.915084 0.487558 0.806436 0.179046
H25   H     H_    0.940998 0.282331 0.281482 0.193091
H26   H     H_    0.715832 0.716970 0.065302 0.197585
H27   H     H_    0.284168 0.283030 0.934697 0.197585
H28   H     H_    0.406095 0.901344 0.732705 0.130965
H29   H     H_    0.593905 0.098655 0.267295 0.130965
H30   H     H_    0.096893 0.673995 0.331929 0.138943
O1    O     O_R   0.982940 0.138950 0.510160 -0.627926
O2    O     O_R   0.982940 0.510160 0.138950 -0.639710
O3    O     O_R   0.861050 0.017060 0.489840 -0.626391
O4    O     O_R   0.138950 0.982940 0.510160 -0.626391
O5    O     O_R   0.867700 0.025880 0.612340 -0.626074
O6    O     O_R   0.132300 0.974120 0.387660 -0.626073
O7    O     O_R   0.025880 0.612340 0.867700 -0.635239
O8    O     O_R   0.974120 0.387660 0.132300 -0.635239
O9    O     O_R   0.612340 0.867700 0.025880 -0.625183
O10   O     O_R   0.387660 0.132300 0.974120 -0.625184
O11   O     O_R   0.387660 0.974120 0.132300 -0.625754
O12   O     O_R   0.017060 0.861050 0.489840 -0.627924
O13   O     O_R   0.612340 0.025880 0.867700 -0.625754
O14   O     O_R   0.132300 0.387660 0.974120 -0.620390
O15   O     O_R   0.867700 0.612340 0.025880 -0.620389
O16   O     O_R   0.974120 0.132300 0.387660 -0.627493
O17   O     O_R   0.025880 0.867700 0.612340 -0.627493
O18   O     O_R   0.138950 0.510160 0.982940 -0.643767
O19   O     O_R   0.861050 0.489840 0.017060 -0.643767
O20   O     O_R   0.510160 0.982940 0.138950 -0.645738
O21   O     O_R   0.489840 0.017060 0.861050 -0.645738
O22   O     O_R   0.489840 0.861050 0.017060 -0.644902
O23   O     O_R   0.510160 0.138950 0.982940 -0.644901
O24   O     O_R   0.017060 0.489840 0.861050 -0.639710
Zn1   Zn    Zn3+2 0.004880 0.004880 0.583590 0.942875
Zn2   Zn    Zn3+2 0.995120 0.995120 0.416410 0.942876
Zn3   Zn    Zn3+2 0.004880 0.583590 0.004880 0.934367
Zn4   Zn    Zn3+2 0.995120 0.416410 0.995120 0.934367
Zn5   Zn    Zn3+2 0.583590 0.004880 0.004880 0.937812
Zn6   Zn    Zn3+2 0.416410 0.995120 0.995120 0.937811

loop_
_geom_bond_atom_site_label_1
_geom_bond_atom_site_label_2
_ccdc_geom_bond_type
C5    O16   A    
C15   C75   S    
C65   C79   A    
C15   O2    A    
C64   C77   A    
C29   H22   S    
C36   C42   A    
C16   C72   S    
C10   O13   A    
O24   Zn4   S    
C45   H3    S    
C7    C70   S    
C71   C79   A    
O6    Zn2   S    
C21   H15   S    
C36   C88   A    
C38   C44   A    
C1    C18   A    
C43   C89   A    
C37   C90   A    
C8    O19   A    
C68   C81   A    
O17   Zn1   S    
C52   C85   A    
C16   O3    A    
C27   C60   A    
C30   H24   S    
C54   C87   A    
C9    O20   A    
C17   O6    A    
C54   C68   A    
C63   C76   A    
C40   C49   A    
C5    O1    A    
C60   C73   A    
C32   C39   A    
C55   C88   A    
C3    C29   A    
C69   C82   A    
C35   C87   A    
C19   C52   A    
C3    C41   A    
C4    C40   A    
C27   H20   S    
C78   H6    S    
C24   C57   A    
C31   C46   A    
C25   C67   A    
C35   C49   A    
C13   O10   A    
O3    Zn2   S    
C79   H12   S    
C36   C48   A    
C53   C86   A    
C57   C70   A    
C37   C47   A    
C43   C48   A    
C59   C72   A    
C1    H28   S    
C28   C61   A    
C30   C63   A    
C8    O15   A    
C67   H5    S    
C19   H13   S    
C74   C82   A    
C5    C68   S    
C35   C41   A    
C11   O9    A    
O21   Zn6   S    
C18   H11   S    
C9    C65   S    
C9    O11   A    
C28   H21   S    
C32   C44   A    
C14   O24   A    
O19   Zn4   S    
C33   C40   A    
C57   C90   A    
O13   Zn5   S    
C59   C84   A    
C7    O14   A    
C6    O12   A    
O4    Zn1   S    
C23   H30   S    
C75   C81   A    
C23   C50   A    
C21   C34   A    
C38   C78   A    
C33   C50   A    
C22   H16   S    
C4    C30   A    
C14   O7    A    
C89   H7    S    
C10   O21   A    
C14   C76   S    
C37   C43   A    
C56   H4    S    
C33   C86   A    
O10   Zn6   S    
C72   C77   A    
C70   C83   A    
C61   C88   A    
C12   H29   S    
C17   O4    A    
C20   C23   A    
O23   Zn5   S    
O18   Zn3   S    
C81   H25   S    
C8    C69   S    
C24   H17   S    
C26   C78   A    
O2    Zn3   S    
C53   C66   A    
C26   H19   S    
C55   C69   A    
C39   C46   A    
C16   O5    A    
C13   C73   S    
C17   C71   S    
O15   Zn3   S    
C15   O8    A    
C4    H10   S    
C63   C86   A    
C61   C74   A    
O1    Zn1   S    
C62   C75   A    
C25   C58   A    
C58   C85   A    
C41   C50   A    
C66   C80   A    
C26   C59   A    
C45   C48   A    
C29   C62   A    
C77   H1    S    
C34   C49   A    
C39   C67   A    
O8    Zn4   S    
C51   C64   A    
C76   C80   A    
C20   C53   A    
C11   C74   S    
C7    O18   A    
C22   C55   A    
C20   H14   S    
C60   C90   A    
C18   C51   A    
C24   C56   A    
O14   Zn4   S    
C62   C87   A    
C10   C64   S    
C31   C38   A    
O12   Zn2   S    
C83   H27   S    
C6    O17   A    
C82   H26   S    
C12   C44   A    
O5    Zn1   S    
O22   Zn6   S    
C21   C54   A    
C2    C42   A    
C32   C85   A    
O20   Zn5   S    
C12   C19   A    
C27   C89   A    
C42   C47   A    
C13   O23   A    
C1    C46   A    
C11   O22   A    
C34   H2    S    
C58   C71   A    
C31   C84   A    
C3    H9    S    
C6    C66   S    
C22   C45   A    
C80   H23   S    
C2    H8    S    
O11   Zn6   S    
C2    C28   A    
O9    Zn5   S    
C51   C84   A    
C73   C83   A    
O16   Zn2   S    
C52   C65   A    
C25   H18   S    
O7    Zn3   S    
C47   C56   A    
