data_mof_unit_9691.cif
_audit_creation_date              2012-12-10T20:43:35-0500
_audit_creation_method            fapswitch 2.2
_symmetry_space_group_name_H-M    P1
_symmetry_Int_Tables_number       1
_space_group_crystal_system       triclinic
_cell_length_a                    18.679933
_cell_length_b                    18.510632
_cell_length_c                    18.663737
_cell_angle_alpha                 108.9307
_cell_angle_beta                  108.940277
_cell_angle_gamma                 108.561934
_cell_volume                      5085.66616351

loop_
_atom_site_label
_atom_site_type_symbol
_atom_type_description
_atom_site_fract_x
_atom_site_fract_y
_atom_site_fract_z
_atom_type_partial_charge
C1    C     C_R   0.378620 0.500033 0.380362 0.893854
C2    C     C_R   0.761868 0.784578 0.820853 -0.147305
C3    C     C_R   0.961167 0.751983 0.966635 -0.189082
C4    C     C_R   0.956022 0.727696 0.029015 -0.160919
C5    C     C_R   0.014546 0.784642 0.116329 0.105774
C6    C     C_R   0.284484 0.531032 0.986577 -0.162202
C7    C     C_R   0.206132 0.467408 0.914684 -0.088135
C8    C     C_R   0.170260 0.382010 0.900973 -0.013967
C9    C     C_R   0.218392 0.359232 0.957308 0.173553
C10   C     C_R   0.297434 0.424363 0.031891 0.164370
C11   C     C_R   0.329114 0.510371 0.045603 -0.159741
C12   C     C_R   0.080382 0.252534 0.756963 -0.097352
C13   C     C_R   0.828923 0.813600 0.582441 0.096631
C14   C     C_R   0.001384 0.190883 0.683690 -0.063620
C15   C     C_R   0.925537 0.195791 0.674622 0.105650
C16   C     C_R   0.929090 0.258692 0.742507 -0.159709
C17   C     C_R   0.006955 0.317564 0.817123 -0.038141
C18   C     C_R   0.084593 0.316880 0.824685 0.083766
C19   C     C_R   0.808298 0.132520 0.522935 0.303004
C20   C     C_R   0.725607 0.070020 0.456678 -0.245386
C21   C     C_R   0.672698 0.006926 0.468219 0.284527
C22   C     C_R   0.703358 0.005821 0.547623 0.180767
C23   C     C_R   0.787288 0.066927 0.612654 -0.325883
C24   C     C_R   0.816466 0.811650 0.501789 -0.104439
C25   C     C_R   0.839942 0.130054 0.601109 0.005656
C26   C     C_R   0.740198 0.746222 0.423877 -0.012507
C27   C     C_R   0.682439 0.679904 0.426665 -0.270241
C28   C     C_R   0.691231 0.684487 0.504601 -0.112617
C29   C     C_R   0.761626 0.752899 0.583202 -0.062951
C30   C     C_R   0.630527 0.734835 0.295523 -0.170912
C31   C     C_R   0.591848 0.709159 0.207899 -0.204488
C32   C     C_R   0.634225 0.692189 0.159961 0.213770
C33   C     C_R   0.622030 0.619500 0.501807 0.903768
C34   C     C_R   0.720569 0.709271 0.203377 0.194269
C35   C     C_R   0.758632 0.734512 0.292323 -0.187746
C36   C     C_R   0.712619 0.743754 0.338029 0.123181
C37   C     C_R   0.408194 0.760494 0.552897 0.217413
C38   C     C_R   0.362654 0.676511 0.482562 -0.118027
C39   C     C_R   0.359893 0.662377 0.402587 0.098580
C40   C     C_R   0.396330 0.735099 0.392365 -0.146857
C41   C     C_R   0.430791 0.818502 0.458571 -0.094458
C42   C     C_R   0.439232 0.831601 0.539367 -0.118408
C43   C     C_R   0.243751 0.571593 0.254900 -0.208217
C44   C     C_R   0.616893 0.496279 0.619868 0.885213
C45   C     C_R   0.180340 0.493219 0.184179 -0.097040
C46   C     C_R   0.171550 0.414332 0.182413 -0.033846
C47   C     C_R   0.240123 0.415048 0.243084 0.117254
C48   C     C_R   0.306761 0.496750 0.315923 -0.127709
C49   C     C_R   0.303731 0.575001 0.324631 -0.038433
C50   C     C_R   0.039982 0.302360 0.164230 -0.103956
C51   C     C_R   0.962110 0.225584 0.113916 -0.212741
C52   C     C_R   0.930878 0.179624 0.025233 -0.167502
C53   C     C_R   0.977113 0.210971 0.986713 0.366795
C54   C     C_R   0.055103 0.288164 0.036985 -0.150291
C55   C     C_R   0.378089 0.380196 0.499016 0.872927
C56   C     C_R   0.087655 0.333576 0.126364 0.079284
C57   C     C_R   0.231674 0.535409 0.565237 -0.196689
C58   C     C_R   0.262282 0.475757 0.567451 -0.089260
C59   C     C_R   0.219071 0.392327 0.496912 0.098977
C60   C     C_R   0.144809 0.369683 0.424396 -0.216176
C61   C     C_R   0.114708 0.429189 0.421820 -0.129374
C62   C     C_R   0.157330 0.512280 0.492432 0.236084
C63   C     C_R   0.177991 0.256207 0.502564 -0.228481
C64   C     C_R   0.185643 0.182449 0.496538 -0.076394
C65   C     C_R   0.255836 0.172552 0.491209 0.052242
C66   C     C_R   0.743193 0.837011 0.786612 -0.147425
C67   C     C_R   0.316391 0.238095 0.489413 -0.263304
C68   C     C_R   0.310808 0.314197 0.498777 -0.095001
C69   C     C_R   0.239575 0.322772 0.503245 0.003689
C70   C     C_R   0.284408 0.065564 0.539981 0.295859
C71   C     C_R   0.277239 0.982766 0.518123 -0.207100
C72   C     C_R   0.250743 0.925508 0.433354 0.307094
C73   C     C_R   0.234847 0.952021 0.370699 -0.160797
C74   C     C_R   0.238176 0.033134 0.390701 -0.295374
C75   C     C_R   0.260462 0.090053 0.474929 0.040174
C76   C     C_R   0.540650 0.598367 0.809767 0.159437
C77   C     C_R   0.743029 0.826525 0.709054 -0.111479
C78   C     C_R   0.609537 0.586612 0.805425 -0.231028
C79   C     C_R   0.605949 0.505249 0.777997 0.013545
C80   C     C_R   0.534935 0.434139 0.764260 0.101596
C81   C     C_R   0.463417 0.444852 0.768066 0.066157
C82   C     C_R   0.467816 0.527835 0.792910 0.215292
C83   C     C_R   0.743395 0.498679 0.822964 -0.262049
C84   C     C_R   0.815627 0.502093 0.813561 -0.082940
C85   C     C_R   0.823632 0.507036 0.742529 0.038523
C86   C     C_R   0.754350 0.499167 0.677328 -0.251067
C87   C     C_R   0.681845 0.494670 0.685995 -0.100415
C88   C     C_R   0.762134 0.763775 0.665647 0.145610
C89   C     C_R   0.676642 0.497236 0.760798 0.056843
C90   C     C_R   0.949551 0.614431 0.749937 -0.241629
C91   C     C_R   0.025920 0.640381 0.745166 0.245687
C92   C     C_R   0.059114 0.581924 0.726999 0.107622
C93   C     C_R   0.014179 0.497692 0.715078 0.270218
C94   C     C_R   0.938216 0.473165 0.721612 -0.171589
C95   C     C_R   0.905580 0.531473 0.738923 0.036509
C96   C     C_R   0.998283 0.877342 0.381259 0.874900
C97   C     C_R   0.880611 0.878595 0.499782 0.870484
C98   C     C_R   0.000092 0.121242 0.619290 0.867281
C99   C     C_R   0.780622 0.711209 0.700136 -0.147845
C100  C     C_R   0.119606 0.117282 0.497050 0.884771
C101  C     C_R   0.004541 0.380706 0.883738 0.853516
C102  C     C_R   0.118609 0.496682 0.117861 0.897783
C103  C     C_R   0.999866 0.619952 0.120367 0.919380
C104  C     C_R   0.880717 0.500290 0.879230 0.854262
C105  C     C_R   0.029832 0.745781 0.538594 -0.137981
C106  C     C_R   0.045479 0.761356 0.475311 -0.083665
C107  C     C_R   0.979488 0.716899 0.389697 0.135240
C108  C     C_R   0.898611 0.654125 0.367915 -0.157664
C109  C     C_R   0.882996 0.639034 0.431424 -0.127444
C110  C     C_R   0.780117 0.721538 0.777379 -0.120188
C111  C     C_R   0.948460 0.685127 0.516811 -0.100469
C112  C     C_R   0.996270 0.672551 0.257193 0.257723
C113  C     C_R   0.000133 0.685855 0.187707 -0.145729
C114  C     C_R   0.007307 0.763593 0.185358 -0.006704
C115  C     C_R   0.008012 0.825296 0.251800 -0.236683
C116  C     C_R   0.000464 0.810930 0.317970 -0.106775
C117  C     C_R   0.994409 0.734803 0.322165 -0.062511
C118  C     C_R   0.077779 0.866168 0.139342 -0.216636
C119  C     C_R   0.085282 0.891080 0.077672 0.212891
C120  C     C_R   0.023092 0.834624 0.989785 0.193598
H1    H     H_    0.762204 0.792827 0.881112 0.128040
H2    H     H_    0.822794 0.744034 0.325248 0.119743
H3    H     H_    0.469424 0.897077 0.591195 0.136634
H4    H     H_    0.328502 0.622450 0.490091 0.154111
H5    H     H_    0.392904 0.727200 0.331035 0.158733
H6    H     H_    0.450772 0.873182 0.446995 0.196791
H7    H     H_    0.242083 0.630586 0.257925 0.191447
H8    H     H_    0.728646 0.885547 0.819996 0.140305
H9    H     H_    0.063560 0.337484 0.232899 0.141963
H10   H     H_    0.926109 0.201651 0.143731 0.156213
H11   H     H_    0.870643 0.119921 0.986454 0.156158
H12   H     H_    0.089712 0.313263 0.006863 0.155913
H13   H     H_    0.264209 0.598562 0.621242 0.139192
H14   H     H_    0.317503 0.493438 0.625193 0.181175
H15   H     H_    0.108151 0.304453 0.370872 0.146227
H16   H     H_    0.056659 0.409517 0.365562 0.144605
H17   H     H_    0.727915 0.867121 0.682867 0.133035
H18   H     H_    0.122762 0.261513 0.505881 0.191156
H19   H     H_    0.368294 0.229660 0.480526 0.168588
H20   H     H_    0.292210 0.962797 0.567181 0.176252
H21   H     H_    0.218861 0.908638 0.306375 0.172322
H22   H     H_    0.222299 0.051271 0.340283 0.162212
H23   H     H_    0.665333 0.640931 0.819189 0.163103
H24   H     H_    0.794759 0.662232 0.666868 0.107291
H25   H     H_    0.740645 0.500449 0.880658 0.147016
H26   H     H_    0.759269 0.502379 0.621947 0.160121
H27   H     H_    0.924007 0.659243 0.762256 0.151957
H28   H     H_    0.904081 0.408471 0.712006 0.160999
H29   H     H_    0.936214 0.673515 0.565930 0.161579
H30   H     H_    0.792290 0.679537 0.802672 0.125339
H31   H     H_    0.080861 0.780862 0.604514 0.175415
H32   H     H_    0.109034 0.808139 0.493077 0.163627
H33   H     H_    0.847355 0.617795 0.301915 0.137347
H34   H     H_    0.820074 0.591749 0.414461 0.147674
H35   H     H_    0.012593 0.885068 0.251254 0.154675
H36   H     H_    0.121087 0.912033 0.206307 0.136942
H37   H     H_    0.915665 0.706111 0.899979 0.135397
H38   H     H_    0.905101 0.665238 0.009179 0.114005
H39   H     H_    0.389121 0.562191 0.100981 0.154051
H40   H     H_    0.310571 0.596963 0.996887 0.157064
H41   H     H_    0.172791 0.485187 0.869892 0.190451
H42   H     H_    0.138976 0.250293 0.761527 0.171902
H43   H     H_    0.870517 0.261413 0.737425 0.148609
H44   H     H_    0.701605 0.071597 0.396330 0.199748
H45   H     H_    0.625646 0.627178 0.367352 0.164850
H46   H     H_    0.811443 0.066985 0.673856 0.202363
H47   H     H_    0.593471 0.741579 0.328972 0.159692
H48   H     H_    0.526447 0.697816 0.176391 0.151862
O1    O     O_R   0.408360 0.551710 0.460090 -0.633556
O2    O     O_R   0.948280 0.908380 0.356650 -0.639468
O3    O     O_R   0.960110 0.908350 0.551690 -0.622579
O4    O     O_R   0.856660 0.908370 0.448270 -0.612034
O5    O     O_R   0.051720 0.091580 0.643310 -0.603566
O6    O     O_R   0.948270 0.091600 0.539890 -0.590389
O7    O     O_R   0.143340 0.091590 0.551680 -0.581110
O8    O     O_R   0.039890 0.091610 0.448270 -0.618853
O9    O     O_R   0.051730 0.460050 0.908360 -0.632358
O10   O     O_R   0.948290 0.356630 0.908390 -0.602232
O11   O     O_R   0.143340 0.551690 0.091580 -0.624077
O12   O     O_R   0.408400 0.448280 0.356670 -0.625309
O13   O     O_R   0.039900 0.448270 0.091610 -0.593138
O14   O     O_R   0.051710 0.643320 0.091560 -0.605395
O15   O     O_R   0.948270 0.539900 0.091590 -0.591151
O16   O     O_R   0.960100 0.551680 0.908340 -0.611163
O17   O     O_R   0.856660 0.448270 0.908370 -0.624608
O18   O     O_R   0.591600 0.643340 0.551710 -0.616448
O19   O     O_R   0.591630 0.539900 0.448290 -0.627040
O20   O     O_R   0.591600 0.551720 0.643330 -0.613905
O21   O     O_R   0.591640 0.448290 0.539910 -0.618932
O22   O     O_R   0.408370 0.460100 0.551710 -0.632349
O23   O     O_R   0.408400 0.356660 0.448290 -0.618992
O24   O     O_R   0.051730 0.908360 0.460060 -0.624720
Zn1   Zn    Zn3+2 0.499980 0.569060 0.569060 0.935630
Zn2   Zn    Zn3+2 0.500020 0.430940 0.430940 0.951774
Zn3   Zn    Zn3+2 0.069070 0.999960 0.569030 1.015213
Zn4   Zn    Zn3+2 0.930930 0.999990 0.430930 1.001866
Zn5   Zn    Zn3+2 0.069070 0.569030 0.999960 0.982157
Zn6   Zn    Zn3+2 0.930930 0.430930 0.000000 1.011870
C121  C     C_3   0.582485 0.647982 0.062736 -0.432455
C122  C     C_3   0.541113 0.549672 0.025157 -0.851221
H49   H     H_    0.590055 0.528802 0.046501 0.248554
H50   H     H_    0.492276 0.526867 0.045248 0.265286
H51   H     H_    0.509287 0.519202 0.953958 0.279700
H52   H     H_    0.530842 0.666283 0.043615 0.222175
H53   H     H_    0.622202 0.667524 0.032890 0.226670
C123  C     C_3   0.771606 0.697674 0.155970 -0.430137
C124  C     C_3   0.803278 0.772906 0.137158 -0.846486
H54   H     H_    0.749806 0.781332 0.099880 0.240182
H55   H     H_    0.847969 0.834427 0.198013 0.286040
H56   H     H_    0.837351 0.760676 0.099446 0.249144
H57   H     H_    0.828092 0.693710 0.194664 0.206399
H58   H     H_    0.732623 0.635472 0.094935 0.210385
C125  C     C_3   0.422258 0.774681 0.641588 -0.448764
C126  C     C_3   0.517166 0.810210 0.702531 -0.873370
H59   H     H_    0.539883 0.763650 0.677995 0.264811
H60   H     H_    0.556795 0.873490 0.708957 0.255397
H61   H     H_    0.525931 0.820023 0.767321 0.250901
H62   H     H_    0.399500 0.820686 0.667383 0.218859
H63   H     H_    0.385346 0.712912 0.639292 0.194402
C127  C     C_3   0.240648 0.328413 0.226399 -0.383136
C128  C     C_3   0.222227 0.296579 0.287361 -0.812654
H64   H     H_    0.254187 0.351194 0.353103 0.250150
H65   H     H_    0.152138 0.264056 0.264382 0.237444
H66   H     H_    0.245603 0.248739 0.289306 0.253430
H67   H     H_    0.192510 0.276379 0.159609 0.212510
H68   H     H_    0.301365 0.331721 0.228126 0.229194
Br1   Br    Br    0.933284 0.147667 0.865636 -0.610265
C129  C     C_3   0.121357 0.574318 0.490839 -0.445484
C130  C     C_3   0.177512 0.648141 0.482826 -0.754836
H69   H     H_    0.240526 0.689567 0.541995 0.232602
H70   H     H_    0.186178 0.622143 0.425416 0.291677
H71   H     H_    0.146518 0.688807 0.474903 0.284712
H72   H     H_    0.055485 0.540346 0.435556 0.248824
H73   H     H_    0.116195 0.600929 0.550327 0.203410
Br2   Br    Br    0.327785 0.140556 0.659439 -0.585976
Br3   Br    Br    0.234304 0.810326 0.402237 -0.597006
Br4   Br    Br    0.376224 0.546468 0.807995 -0.643481
C131  C     C_3   0.543757 0.684820 0.823923 -0.368661
C132  C     C_3   0.583883 0.747715 0.919240 -0.868551
H74   H     H_    0.542660 0.723476 0.946285 0.285749
H75   H     H_    0.649000 0.756205 0.955020 0.243238
H76   H     H_    0.589725 0.811769 0.927190 0.250581
H77   H     H_    0.582269 0.714259 0.796823 0.196689
H78   H     H_    0.478737 0.676716 0.788602 0.231497
C133  C     C_3   0.540296 0.351390 0.754426 -0.394969
C134  C     C_3   0.519483 0.292872 0.663390 -0.800550
H79   H     H_    0.450234 0.263591 0.619900 0.262678
H80   H     H_    0.556425 0.328902 0.639264 0.253681
H81   H     H_    0.535006 0.239609 0.662714 0.263675
H82   H     H_    0.605537 0.367779 0.800300 0.210261
H83   H     H_    0.497276 0.313895 0.772864 0.244949
C135  C     C_3   0.379017 0.367371 0.736714 -0.351221
C136  C     C_3   0.369486 0.353535 0.810225 -0.759502
H84   H     H_    0.425215 0.349111 0.849844 0.249507
H85   H     H_    0.363791 0.407234 0.852220 0.281183
H86   H     H_    0.310104 0.292354 0.783076 0.278720
H87   H     H_    0.323923 0.374586 0.700185 0.242791
H88   H     H_    0.372363 0.308402 0.688772 0.246569
Br5   Br    Br    0.082001 0.756930 0.764645 -0.655231
C137  C     C_3   0.141269 0.609041 0.720293 -0.387733
C138  C     C_3   0.219377 0.645239 0.806636 -0.739525
H89   H     H_    0.224101 0.702017 0.856608 0.264940
H90   H     H_    0.214847 0.594961 0.827433 0.271789
H91   H     H_    0.278610 0.666247 0.800176 0.263283
H92   H     H_    0.138473 0.553723 0.670569 0.243530
H93   H     H_    0.150221 0.658836 0.698636 0.227387
Br6   Br    Br    0.053318 0.413468 0.687712 -0.530071
Br7   Br    Br    0.002010 0.574051 0.269367 -0.529301
C139  C     C_3   0.160255 0.977913 0.109338 -0.456228
C140  C     C_3   0.246143 0.978359 0.148597 -0.816474
H94   H     H_    0.256564 0.969924 0.206737 0.253822
H95   H     H_    0.248051 0.925533 0.100602 0.271703
H96   H     H_    0.299315 0.041364 0.167971 0.255316
H97   H     H_    0.158338 0.995101 0.057572 0.232809
H98   H     H_    0.158565 0.029868 0.158611 0.203326
C141  C     C_3   0.018547 0.861323 0.920473 -0.417322
C142  C     C_3   0.987244 0.929232 0.929130 -0.821085
H99   H     H_    0.926160 0.906240 0.931777 0.263617
H100  H     H_    0.034436 0.991864 0.988213 0.253691
H101  H     H_    0.976427 0.941139 0.872939 0.274245
H102  H     H_    0.081867 0.885790 0.922136 0.249783
H103  H     H_    0.972745 0.804624 0.855622 0.225669
C143  C     C_3   0.911157 0.879836 0.668054 -0.391429
C144  C     C_3   0.918412 0.970235 0.701366 -0.743826
H104  H     H_    0.868111 0.970295 0.720402 0.257642
H105  H     H_    0.982324 0.017301 0.758677 0.293143
H106  H     H_    0.910651 0.991951 0.651990 0.244387
H107  H     H_    0.914838 0.861123 0.719274 0.209230
H108  H     H_    0.969085 0.880824 0.663658 0.246414
Br8   Br    Br    0.177391 0.239266 0.931829 -0.572538
C145  C     C_3   0.346141 0.399871 0.094452 -0.364376
C146  C     C_3   0.423172 0.475522 0.179606 -0.916034
H109  H     H_    0.474783 0.511454 0.168257 0.258614
H110  H     H_    0.403159 0.520160 0.213532 0.263117
H111  H     H_    0.449834 0.449972 0.221934 0.270744
H112  H     H_    0.300865 0.362017 0.110833 0.226306
H113  H     H_    0.368702 0.357380 0.061791 0.236929
Br9   Br    Br    0.874690 0.219833 0.503696 -0.467150
Br10  Br    Br    0.558778 0.927654 0.374416 -0.604452
C147  C     C_3   0.647428 0.945525 0.567830 -0.396671
C148  C     C_3   0.629519 0.852472 0.519558 -0.823245
H114  H     H_    0.587410 0.823674 0.449664 0.281925
H115  H     H_    0.690851 0.851401 0.530318 0.266606
H116  H     H_    0.597056 0.812171 0.543650 0.257084
H117  H     H_    0.678609 0.965994 0.637908 0.195742
H118  H     H_    0.587731 0.950658 0.553402 0.214656

loop_
_geom_bond_atom_site_label_1
_geom_bond_atom_site_label_2
_ccdc_geom_bond_type
C147  H117  S    
C146  H110  S    
C133  H82   S    
O6    Zn4   S    
C93   C94   A    
C142  H99   S    
C5    C114  S    
C103  O14   A    
C85   C95   S    
C41   C42   A    
O18   Zn1   S    
C35   C36   A    
C90   H27   S    
C124  H55   S    
C114  C115  A    
C125  H63   S    
C11   H39   S    
C7    C8    A    
C73   H21   S    
C125  C126  S    
C34   C123  S    
C104  O17   A    
C7    H41   S    
C26   C27   A    
C37   C38   A    
C97   O4    A    
C139  H97   S    
C103  O15   A    
C13   C29   A    
C28   C29   A    
C103  C113  S    
C77   H17   S    
C30   H47   S    
C130  H70   S    
C130  H71   S    
C39   C40   A    
C35   H2    S    
C109  C111  A    
C85   C86   A    
C112  C117  A    
C98   O6    A    
C1    O12   A    
C126  H60   S    
C15   C25   S    
C141  H102  S    
C40   H5    S    
C43   C49   A    
C115  C116  A    
C20   H44   S    
C82   Br4   S    
C131  H78   S    
C121  H53   S    
C108  C109  A    
C76   C131  S    
C34   C35   A    
C73   C74   A    
C135  C136  S    
C37   C125  S    
C37   C42   A    
C17   C101  S    
C118  C119  A    
C129  C130  S    
C29   C88   S    
C101  O10   A    
C105  C111  A    
O22   Zn1   S    
C83   H25   S    
C97   O3    A    
C123  H57   S    
C4    H38   S    
C108  H33   S    
C132  H74   S    
C77   C88   A    
C16   C17   A    
C65   C67   A    
C17   C18   A    
C100  O8    A    
C124  H56   S    
C107  C108  A    
C118  H36   S    
C70   C71   A    
C13   C143  S    
O17   Zn6   S    
C148  H116  S    
C44   C87   S    
C67   H19   S    
C9    C10   A    
C112  Br7   S    
C129  H73   S    
C91   C92   A    
C142  H100  S    
C134  H79   S    
C145  C146  S    
C148  H115  S    
C133  H83   S    
C59   C60   A    
C90   C91   A    
C96   O2    A    
C133  C134  S    
C2    C66   A    
C102  O11   A    
C102  O13   A    
C140  H96   S    
C57   H13   S    
C61   C62   A    
O14   Zn5   S    
C119  C139  S    
O13   Zn6   S    
C111  H29   S    
O7    Zn3   S    
C127  C128  S    
C92   C137  S    
C51   H10   S    
C61   H16   S    
C42   H3    S    
C14   C98   S    
C6    C7    A    
C54   C56   A    
C124  H54   S    
C146  H111  S    
C16   H43   S    
C94   H28   S    
C38   C39   A    
C83   C89   A    
C134  H80   S    
O15   Zn6   S    
C106  H32   S    
C74   C75   A    
C139  H98   S    
C63   C64   A    
C135  H88   S    
C67   C68   A    
C104  O16   A    
C55   O22   A    
C63   C69   A    
C99   H24   S    
C57   C62   A    
C101  O9    A    
C84   C85   A    
C72   C73   A    
O3    Zn3   S    
C3    C120  A    
C76   C82   A    
C6    C11   A    
C138  H90   S    
C98   O5    A    
C55   C68   S    
C123  C124  S    
C8    C9    A    
O1    Zn1   S    
C81   C82   A    
C110  H30   S    
C58   C59   A    
C148  H114  S    
C99   C110  A    
C131  H77   S    
C132  H75   S    
C143  H108  S    
C72   Br3   S    
C13   C24   A    
C60   C61   A    
C55   O23   A    
O24   Zn3   S    
O5    Zn3   S    
C128  H64   S    
C136  H84   S    
C50   H9    S    
C44   O21   A    
C138  H91   S    
C23   H46   S    
C83   C84   A    
C14   C15   A    
C64   C100  S    
C30   C31   A    
C119  C120  A    
C20   C21   A    
C100  O7    A    
C12   C18   A    
C50   C51   A    
O21   Zn2   S    
C127  H68   S    
C33   O19   A    
C46   C47   A    
O8    Zn4   S    
C109  H34   S    
C43   C45   A    
C60   H15   S    
C129  H72   S    
C71   H20   S    
C44   O20   A    
C116  C117  A    
C26   C36   S    
C48   C49   A    
C39   C49   S    
C27   H45   S    
O20   Zn1   S    
C50   C56   A    
C10   C11   A    
C59   C69   S    
O19   Zn2   S    
C121  H52   S    
C84   C104  S    
C63   H18   S    
C140  H95   S    
O4    Zn4   S    
C32   C121  S    
C81   C135  S    
C43   H7    S    
C3    C4    A    
C38   H4    S    
C143  C144  S    
O12   Zn2   S    
C52   C53   A    
C86   C87   A    
C136  H85   S    
C113  C114  A    
C105  C106  A    
C2    H1    S    
C147  H118  S    
C86   H26   S    
C66   C77   A    
C131  C132  S    
C144  H104  S    
C19   C25   A    
O9    Zn5   S    
C115  H35   S    
C143  H107  S    
C140  H94   S    
C52   H11   S    
C41   H6    S    
C68   C69   A    
C144  H106  S    
C22   C147  S    
C22   C23   A    
C24   C26   A    
C76   C78   A    
C80   C81   A    
C47   C48   A    
C126  H61   S    
C146  H109  S    
C28   C33   S    
C136  H86   S    
C6    H40   S    
C125  H62   S    
C1    C48   S    
C53   C54   A    
C10   C145  S    
C93   Br6   S    
C33   O18   A    
C128  H66   S    
O11   Zn5   S    
C47   C127  S    
C24   C97   S    
C130  H69   S    
C19   Br9   S    
C30   C36   A    
C5    C118  A    
O10   Zn6   S    
C54   H12   S    
C21   C22   A    
C96   O24   A    
C19   C20   A    
C144  H105  S    
C145  H112  S    
C12   C14   A    
O23   Zn2   S    
C51   C52   A    
C128  H65   S    
C78   H23   S    
C137  C138  S    
O2    Zn4   S    
C141  C142  S    
C78   C79   A    
C57   C58   A    
C9    Br8   S    
C141  H103  S    
C122  H49   S    
C122  H51   S    
C62   C129  S    
C21   Br10  S    
C126  H59   S    
C64   C65   A    
C1    O1    A    
C92   C93   A    
C66   H8    S    
C127  H67   S    
C132  H76   S    
C112  C113  A    
C70   Br2   S    
C23   C25   A    
C58   H14   S    
C94   C95   A    
C145  H113  S    
C8    C18   S    
C79   C89   S    
C88   C99   A    
C91   Br5   S    
C45   C102  S    
C121  C122  S    
C12   H42   S    
C79   C80   A    
C31   C32   A    
C123  H58   S    
C4    C5    A    
C105  H31   S    
C147  C148  S    
C31   H48   S    
C74   H22   S    
C122  H50   S    
O16   Zn5   S    
C106  C107  A    
C142  H101  S    
C46   C56   S    
C27   C28   A    
C3    H37   S    
C87   C89   A    
C138  H89   S    
C80   C133  S    
C96   C116  S    
C70   C75   A    
C40   C41   A    
C135  H87   S    
C71   C72   A    
C137  H92   S    
C139  C140  S    
C137  H93   S    
C107  C117  S    
C90   C95   A    
C53   Br1   S    
C65   C75   S    
C15   C16   A    
C120  C141  S    
C32   C34   A    
C45   C46   A    
C134  H81   S    
C2    C110  A    
