data_mof_unit_44864.cif
_audit_creation_date              2012-12-10T18:55:56-0500
_audit_creation_method            fapswitch 2.2
_symmetry_space_group_name_H-M    P1
_symmetry_Int_Tables_number       1
_space_group_crystal_system       triclinic
_cell_length_a                    10.764061
_cell_length_b                    10.052074
_cell_length_c                    14.877934
_cell_angle_alpha                 90.08286
_cell_angle_beta                  90.187382
_cell_angle_gamma                 90.070356
_cell_volume                      1609.79787013

loop_
_atom_site_label
_atom_site_type_symbol
_atom_type_description
_atom_site_fract_x
_atom_site_fract_y
_atom_site_fract_z
_atom_type_partial_charge
C1    C     C_R   0.260475 0.499802 0.499851 0.988047
C2    C     C_R   0.938886 0.620482 0.507274 0.250326
C3    C     C_R   0.938076 0.379083 0.488521 0.311363
C4    C     C_R   0.061762 0.617949 0.481804 0.326101
C5    C     C_R   0.605443 0.544137 0.095318 -0.160473
C6    C     C_R   0.604927 0.455309 0.905147 -0.121707
C7    C     C_R   0.394499 0.544461 0.904799 -0.161393
C8    C     C_R   0.394781 0.455053 0.094801 -0.122794
C9    C     C_R   0.605888 0.542711 0.188081 -0.120703
C10   C     C_R   0.605171 0.456686 0.812437 -0.076372
C11   C     C_R   0.394159 0.543280 0.812014 -0.112826
C12   C     C_R   0.739530 0.500024 0.499560 0.976904
C13   C     C_R   0.394649 0.456171 0.187531 -0.062950
C14   C     C_R   0.500261 0.499490 0.233352 0.042411
C15   C     C_R   0.499696 0.500007 0.766671 0.047162
C16   C     C_R   0.499991 0.499739 0.048559 0.094675
C17   C     C_R   0.499775 0.499856 0.951474 0.095655
C18   C     C_R   0.872543 0.499914 0.498238 -0.397786
C19   C     C_R   0.127426 0.499239 0.498762 -0.413480
C20   C     C_R   0.500089 0.499883 0.328743 0.866525
C21   C     C_R   0.499862 0.500050 0.671264 0.866533
C22   C     C_R   0.515210 0.068819 0.577580 0.323287
C23   C     C_R   0.517569 0.931075 0.422699 0.331944
C24   C     C_R   0.485765 0.068480 0.422242 0.263731
C25   C     C_R   0.483204 0.931476 0.577280 0.312012
C26   C     C_R   0.061104 0.380202 0.514106 0.304387
H1    H     H_    0.686604 0.580622 0.060211 0.163200
H2    H     H_    0.547777 0.830321 0.191246 0.384012
H3    H     H_    0.228983 0.231046 0.308463 0.387711
H4    H     H_    0.454783 0.829924 0.808285 0.382673
H5    H     H_    0.246495 0.086328 0.558364 0.384923
H6    H     H_    0.853332 0.904733 0.473156 0.427992
H7    H     H_    0.718500 0.238193 0.340816 0.409556
H8    H     H_    0.245098 0.911273 0.433864 0.386502
H9    H     H_    0.686175 0.419070 0.940555 0.157655
H10   H     H_    0.313410 0.580889 0.939989 0.163157
H11   H     H_    0.313419 0.418918 0.059312 0.158270
H12   H     H_    0.687676 0.575712 0.224454 0.192314
H13   H     H_    0.687191 0.424775 0.776544 0.156516
H14   H     H_    0.312528 0.576459 0.775675 0.188288
H15   H     H_    0.312623 0.424091 0.223403 0.161264
H16   H     H_    0.771400 0.235248 0.691844 0.382996
N1    N     N_R   0.500000 0.857200 0.500000 -0.208837
N2    N     N_R   0.500000 0.142800 0.500000 -0.210505
O1    O     O_R   0.316770 0.614620 0.499990 -0.550994
O2    O     O_2   0.670082 0.009886 0.712226 -0.194358
O3    O     O_3   0.704632 0.242986 0.646212 -0.516472
O4    O     O_2   0.675626 0.986850 0.289708 -0.250759
O5    O     O_2   0.693876 0.766291 0.354046 -0.268875
O6    O     O_3   0.504899 0.815377 0.249166 -0.487606
O7    O     O_2   0.491135 0.179921 0.257629 -0.257487
O8    O     O_2   0.334472 0.010002 0.284522 -0.236273
O9    O     O_3   0.296598 0.241031 0.353266 -0.512403
O10   O     O_2   0.327418 0.988140 0.711757 -0.243989
O11   O     O_2   0.305696 0.768675 0.645387 -0.253528
O12   O     O_R   0.683230 0.385380 0.500010 -0.553728
O13   O     O_3   0.496509 0.814505 0.749967 -0.488895
O14   O     O_2   0.198701 0.298090 0.654595 -0.294782
O15   O     O_2   0.010183 0.170854 0.621057 -0.188854
O16   O     O_3   0.198747 0.141320 0.515505 -0.454651
O17   O     O_2   0.815058 0.704323 0.653190 -0.249900
O18   O     O_2   0.997598 0.833220 0.610287 -0.158484
O19   O     O_3   0.796767 0.860081 0.515731 -0.454221
O20   O     O_2   0.988802 0.160798 0.389095 -0.181215
O21   O     O_2   0.806421 0.151325 0.486127 -0.236242
O22   O     O_3   0.794231 0.294044 0.340042 -0.545085
O23   O     O_R   0.683230 0.614620 0.500010 -0.538075
O24   O     O_2   0.204891 0.693302 0.342912 -0.289281
O25   O     O_2   0.012170 0.816759 0.365784 -0.218665
O26   O     O_3   0.194176 0.859676 0.476660 -0.461136
O27   O     O_R   0.316770 0.385380 0.499990 -0.535287
O28   O     O_R   0.499990 0.614660 0.369060 -0.543952
O29   O     O_R   0.500010 0.385340 0.630940 -0.549497
O30   O     O_R   0.500010 0.614660 0.630940 -0.544804
O31   O     O_R   0.499990 0.385340 0.369060 -0.570614
O32   O     O_2   0.512683 0.177892 0.742969 -0.242497
S1    S     S_3+6 0.600205 0.125569 0.672905 0.145682
S2    S     S_3+6 0.603055 0.872799 0.328465 0.124711
S3    S     S_3+6 0.402557 0.125424 0.326190 0.098580
S4    S     S_3+6 0.398073 0.873689 0.671643 0.113959
S5    S     S_3+6 0.117027 0.245651 0.580324 0.143942
S6    S     S_3+6 0.887907 0.756547 0.574727 0.161397
S7    S     S_3+6 0.882189 0.239785 0.426277 0.130453
S8    S     S_3+6 0.118217 0.748631 0.412676 0.129024
Zn1   Zn    Zn3+2 0.500000 0.653120 0.500000 1.169743
Zn2   Zn    Zn3+2 0.500000 0.346880 0.500000 1.136854

loop_
_geom_bond_atom_site_label_1
_geom_bond_atom_site_label_2
_ccdc_geom_bond_type
C8    C13   A    
C2    C18   A    
C25   S4    S    
C7    H10   S    
O1    Zn1   S    
C25   N1    A    
C13   H15   S    
O28   Zn1   S    
O5    S2    D    
C7    C11   A    
C1    O27   A    
O9    S3    S    
C10   C15   A    
O21   S7    D    
H4    O13   S    
C21   O29   A    
C23   N1    A    
C6    H9    S    
C3    C18   A    
O4    S2    D    
C19   C26   A    
C5    C16   A    
C24   S3    S    
O22   S7    S    
C5    H1    S    
C4    C19   A    
C11   C15   A    
C22   N2    A    
C16   C17   S    
C7    C17   A    
C22   C25   A    
C23   C24   A    
O8    S3    D    
O26   S8    S    
H8    O26   S    
O18   S6    D    
O30   Zn1   S    
C13   C14   A    
O13   S4    S    
H2    O6    S    
N2    Zn2   S    
O6    S2    S    
H7    O22   S    
O10   S4    D    
C12   O23   A    
O23   Zn1   S    
C1    C19   S    
O19   S6    S    
O24   S8    D    
C14   C20   S    
O32   S1    D    
H6    O19   S    
O14   S5    D    
C21   O30   A    
C20   O31   A    
C10   H13   S    
N1    Zn1   S    
H5    O16   S    
C2    C4    A    
C9    C14   A    
O20   S7    D    
C5    C9    A    
O27   Zn2   S    
O16   S5    S    
O31   Zn2   S    
O12   Zn2   S    
C4    S8    S    
C12   O12   A    
C26   S5    S    
C3    S7    S    
C24   N2    A    
C2    S6    S    
C8    H11   S    
O3    S1    S    
C6    C17   A    
C3    C26   A    
O15   S5    D    
C22   S1    S    
C6    C10   A    
O2    S1    D    
O17   S6    D    
O25   S8    D    
O11   S4    D    
C1    O1    A    
H3    O9    S    
C9    H12   S    
H16   O3    S    
C23   S2    S    
C11   H14   S    
O7    S3    D    
O29   Zn2   S    
C15   C21   S    
C8    C16   A    
C12   C18   S    
C20   O28   A    
