data_mof_unit_54758.cif
_audit_creation_date              2012-12-10T18:44:28-0500
_audit_creation_method            fapswitch 2.2
_symmetry_space_group_name_H-M    P1
_symmetry_Int_Tables_number       1
_space_group_crystal_system       triclinic
_cell_length_a                    12.772814
_cell_length_b                    10.708755
_cell_length_c                    10.027338
_cell_angle_alpha                 90.172656
_cell_angle_beta                  99.087709
_cell_angle_gamma                 95.371883
_cell_volume                      1348.16336955

loop_
_atom_site_label
_atom_site_type_symbol
_atom_type_description
_atom_site_fract_x
_atom_site_fract_y
_atom_site_fract_z
_atom_type_partial_charge
C1    C     C_R   0.499714 0.260393 0.499762 0.902040
C2    C     C_R   0.701700 0.498535 0.528699 0.941502
C3    C     C_R   0.815267 0.498658 0.549413 -0.172183
C4    C     C_R   0.184520 0.498587 0.450844 -0.159745
C5    C     C_R   0.014133 0.398386 0.349969 0.435202
C6    C     C_R   0.986414 0.593734 0.653036 0.439317
C7    C     C_R   0.123591 0.413836 0.358509 -0.240588
C8    C     C_R   0.876989 0.580780 0.643890 -0.246698
C9    C     C_R   0.137466 0.574789 0.531744 0.179931
C10   C     C_R   0.861677 0.420840 0.469160 0.157085
C11   C     C_R   0.031682 0.541690 0.547642 -0.081744
C12   C     C_R   0.499918 0.739564 0.500176 0.901576
C13   C     C_R   0.968073 0.451868 0.454117 -0.107177
C14   C     C_R   0.498629 0.063273 0.378090 -0.129851
C15   C     C_R   0.499894 0.936545 0.621673 -0.131383
C16   C     C_R   0.498218 0.935459 0.378218 -0.084519
C17   C     C_R   0.500274 0.064364 0.621542 -0.087691
C18   C     C_R   0.499372 0.872276 0.500100 -0.050551
C19   C     C_R   0.499450 0.127583 0.499713 -0.050869
C20   C     C_R   0.569908 0.583753 0.084335 0.334572
C21   C     C_R   0.430228 0.416136 0.915717 0.391235
C22   C     C_R   0.568670 0.582172 0.940723 0.125031
C23   C     C_R   0.431466 0.417721 0.059307 0.129889
C24   C     C_R   0.298247 0.500937 0.471298 0.939198
H1    H     H_    0.840249 0.631650 0.713880 0.197278
H2    H     H_    0.165106 0.252806 0.828596 0.396960
H3    H     H_    0.161044 0.362245 0.289941 0.198312
H4    H     H_    0.498831 0.111113 0.283145 0.200776
H5    H     H_    0.499763 0.888694 0.716627 0.200213
H6    H     H_    0.496981 0.886743 0.283135 0.211364
H7    H     H_    0.501472 0.113079 0.716625 0.212864
H8    H     H_    0.054467 0.295789 0.060999 0.380427
H9    H     H_    0.946221 0.679389 0.945806 0.389671
H10   H     H_    0.814113 0.614019 0.212633 0.386126
I1    I     I_    0.779558 0.237712 0.424620 -0.132270
I2    I     I_    0.217881 0.758356 0.579793 -0.140683
I3    I     I_    0.674745 0.709937 0.849547 -0.127627
I4    I     I_    0.325281 0.290209 0.150480 -0.157782
N1    N     N_R   0.499970 0.499970 0.857200 -0.207031
N2    N     N_R   0.500030 0.500030 0.142800 -0.201789
O1    O     O_R   0.499990 0.316750 0.614620 -0.579932
O2    O     O_2   0.835095 0.377546 0.162360 -0.257883
O3    O     O_3   0.011745 0.367090 0.069691 -0.445531
O4    O     O_2   0.166106 0.603529 0.838297 -0.202264
O5    O     O_2   0.073220 0.794595 0.807013 -0.260188
O6    O     O_3   0.990588 0.610131 0.934886 -0.444782
O7    O     O_2   0.641198 0.827202 0.121181 -0.248085
O8    O     O_2   0.676407 0.713334 0.326082 -0.285053
O9    O     O_3   0.787667 0.674666 0.143960 -0.485629
O10   O     O_2   0.323200 0.287529 0.674055 -0.276488
O11   O     O_2   0.356549 0.173390 0.879614 -0.299368
O12   O     O_R   0.500010 0.683250 0.385380 -0.576769
O13   O     O_3   0.212422 0.330425 0.855339 -0.491381
O14   O     O_R   0.499990 0.316780 0.385290 -0.618953
O15   O     O_R   0.500010 0.683220 0.614710 -0.621348
O16   O     O_R   0.346360 0.499970 0.595710 -0.537770
O17   O     O_R   0.653640 0.500030 0.404290 -0.560036
O18   O     O_R   0.346360 0.499990 0.366380 -0.609821
O19   O     O_R   0.653640 0.500010 0.633620 -0.609222
O20   O     O_2   0.930371 0.189612 0.207866 -0.241971
S1    S     S_3+6 0.942962 0.330021 0.196445 0.089123
S2    S     S_3+6 0.058947 0.653681 0.809504 0.105000
S3    S     S_3+6 0.666190 0.701122 0.176280 0.095432
S4    S     S_3+6 0.333121 0.299745 0.823739 0.084135
Zn1   Zn    Zn3+2 0.500000 0.499980 0.653120 1.073504
Zn2   Zn    Zn3+2 0.500000 0.500020 0.346880 1.064893

loop_
_geom_bond_atom_site_label_1
_geom_bond_atom_site_label_2
_ccdc_geom_bond_type
C9    I2    S    
O1    Zn1   S    
C1    O14   A    
C10   I1    S    
O9    S3    S    
C24   O16   A    
C23   I4    S    
N1    Zn1   S    
C15   C18   A    
C5    C13   A    
C21   N1    A    
O17   Zn2   S    
C14   H4    S    
C6    S2    S    
C20   S3    S    
C21   C23   A    
C2    C3    S    
C2    O17   A    
O12   Zn2   S    
C3    C10   A    
N2    Zn2   S    
O19   Zn1   S    
O8    S3    D    
C5    S1    S    
C8    H1    S    
C11   C13   A    
O2    S1    D    
O18   Zn2   S    
O6    S2    S    
C4    C7    A    
O14   Zn2   S    
C22   N1    A    
C1    O1    A    
C12   O12   A    
C17   H7    S    
C20   C22   A    
C15   H5    S    
C5    C7    A    
C9    C11   A    
O7    S3    D    
C20   N2    A    
O13   S4    S    
C14   C16   A    
C1    C19   S    
C12   O15   A    
C16   H6    S    
O16   Zn1   S    
H2    O13   S    
C4    C24   S    
O5    S2    D    
C7    H3    S    
O3    S1    S    
C24   O18   A    
C3    C8    A    
C12   C18   S    
C6    C11   A    
C15   C17   A    
C2    O19   A    
C17   C19   A    
C21   S4    S    
C6    C8    A    
O10   S4    D    
O4    S2    D    
C4    C9    A    
O15   Zn1   S    
C22   I3    S    
C14   C19   A    
H8    O3    S    
C16   C18   A    
O11   S4    D    
C23   N2    A    
H9    O6    S    
O20   S1    D    
H10   O9    S    
C10   C13   A    
