data_mof_unit_14312.cif
_audit_creation_date              2013-03-05T16:31:07-0500
_audit_creation_method            fapswitch 2.2
_symmetry_space_group_name_H-M    P1
_symmetry_Int_Tables_number       1
_space_group_crystal_system       triclinic
_cell_length_a                    10.895713
_cell_length_b                    10.903522
_cell_length_c                    9.537313
_cell_angle_alpha                 90.766613
_cell_angle_beta                  91.39783
_cell_angle_gamma                 90.689935
_cell_volume                      1132.52322611

loop_
_atom_site_label
_atom_site_type_symbol
_atom_site_description
_atom_site_fract_x
_atom_site_fract_y
_atom_site_fract_z
_atom_type_partial_charge
O1    O     O_R   0.500000 0.319640 0.618810 -0.586309
O2    O     O_R   0.500010 0.319680 0.381230 -0.596625
C1    C     C_R   0.498011 0.262937 0.498930 0.810958
O3    O     O_R   0.319640 0.499980 0.618820 -0.601904
O4    O     O_R   0.319650 0.500020 0.381230 -0.525824
C2    C     C_R   0.262713 0.511141 0.498353 0.829766
Cu1   Cu    Cu3+1 0.499990 0.499980 0.640670 0.958535
Cu2   Cu    Cu3+1 0.500010 0.500020 0.359330 0.993500
O5    O     O_R   0.499990 0.680320 0.618770 -0.580057
O6    O     O_R   0.500000 0.680360 0.381190 -0.574607
O7    O     O_R   0.680350 0.499980 0.618770 -0.599528
O8    O     O_R   0.680360 0.500020 0.381180 -0.590289
C3    C     C_R   0.499286 0.737670 0.500759 0.809920
C4    C     C_R   0.738118 0.494515 0.502484 0.819088
C5    C     C_R   0.126613 0.612478 0.736783 -0.098160
H1    H     H_    0.213733 0.659406 0.726246 0.210268
C6    C     C_R   0.072344 0.616985 0.866953 -0.036556
H2    H     H_    0.118259 0.664916 0.953353 0.225888
C7    C     C_R   0.961346 0.556439 0.885907 -0.133871
H3    H     H_    0.922780 0.552359 0.989304 0.168972
C8    C     C_R   0.897354 0.505094 0.770563 -0.177309
H4    H     H_    0.814263 0.455322 0.792438 0.169529
C9    C     C_R   0.943740 0.514956 0.633595 0.105509
C10   C     C_R   0.067598 0.551207 0.621780 0.027113
C11   C     C_R   0.128444 0.526126 0.495473 -0.223324
C12   C     C_R   0.058302 0.498696 0.372212 0.358990
H5    H     H_    0.879937 0.468408 0.282956 0.186784
C13   C     C_R   0.932180 0.484092 0.379867 -0.269120
C14   C     C_R   0.873081 0.491859 0.508176 -0.172126
C15   C     C_R   0.477882 0.065607 0.617457 0.070979
C16   C     C_R   0.494961 0.130852 0.496130 -0.073334
C17   C     C_R   0.510611 0.063327 0.371068 -0.193300
H6    H     H_    0.523190 0.109187 0.272308 0.166812
C18   C     C_R   0.511096 0.934615 0.373072 -0.163640
H7    H     H_    0.522568 0.886027 0.275073 0.166624
C19   C     C_R   0.497708 0.870870 0.500227 -0.105935
C20   C     C_R   0.481150 0.941725 0.620929 0.055552
C21   C     C_3   0.461891 0.943103 0.776223 0.174676
C22   C     C_3   0.455777 0.083549 0.769173 -0.496006
H8    H     H_    0.542454 0.914416 0.839696 0.081562
H9    H     H_    0.363913 0.122780 0.788540 0.230974
H10   H     H_    0.534025 0.131272 0.824485 0.173966
C23   C     C_R   0.599842 0.542657 0.077069 0.250223
N1    N     N_R   0.500790 0.500930 0.147930 -0.192970
C24   C     C_R   0.408271 0.444233 0.071064 0.007869
H11   H     H_    0.333677 0.399994 0.124105 0.191321
C25   C     C_R   0.407886 0.444730 0.922167 -0.042937
H12   H     H_    0.332307 0.401572 0.863985 0.157698
N2    N     N_R   0.500790 0.500890 0.852020 -0.187780
C26   C     C_R   0.599977 0.542199 0.929488 0.222560
C27   C     C_3   0.651371 0.668740 0.927114 -0.493521
C28   C     C_3   0.652740 0.669054 0.085885 -0.472246
H13   H     H_    0.743711 0.674836 0.881908 0.199504
H14   H     H_    0.583740 0.730985 0.880599 0.235951
H15   H     H_    0.746833 0.670929 0.133679 0.190966
H16   H     H_    0.588422 0.736216 0.130291 0.226324
N3    N     N_R   0.111762 0.493877 0.236596 0.103853
O9    O     O_R   0.081180 0.405749 0.148732 -0.408479
O10   O     O_R   0.170103 0.589732 0.191335 -0.376283
N4    N     N_R   0.345853 0.885488 0.814783 0.141473
O11   O     O_R   0.343755 0.810730 0.919842 -0.383142
O12   O     O_R   0.244028 0.909623 0.746924 -0.368527

loop_
_geom_bond_atom_site_label_1
_geom_bond_atom_site_label_2
_geom_bond_distance
_ccdc_geom_bond_type
O4    Cu2   1.981280 S    
C21   H8    1.104802 S    
C9    C10   1.409219 A    
C23   C26   1.407508 A    
Cu1   O5    1.980180 S    
C20   C21   1.500836 S    
C27   C28   1.513920 S    
C27   H13   1.105835 S    
C12   C13   1.385288 A    
C16   C17   1.408278 A    
C28   H15   1.111611 S    
Cu2   O8    1.971000 S    
C27   H14   1.097532 S    
C17   H6    1.083174 S    
N2    C26   1.362760 A    
C7    H3    1.082564 S    
C24   C25   1.420058 A    
C6    H2    1.079113 S    
Cu1   Cu2   2.683239 S    
C25   N2    1.369771 A    
O7    C4    1.289543 A    
O1    Cu1   1.974589 S    
C24   H11   1.079955 S    
N1    C24   1.368426 A    
C1    C16   1.440048 S    
Cu1   O7    1.981280 S    
C13   C14   1.398675 A    
N3    O9    1.301425 A    
O4    C2    1.295889 A    
O3    Cu1   1.970998 S    
C21   N4    1.462229 S    
C9    C14   1.424531 A    
O3    C2    1.300142 A    
C5    C10   1.413659 A    
C7    C8    1.395149 A    
O8    C4    1.305885 A    
C15   C22   1.483426 S    
O2    C1    1.289502 A    
C22   H10   1.111733 S    
C18   C19   1.415562 A    
C8    C9    1.417075 A    
C23   N1    1.363997 A    
N4    O12   1.302140 A    
C15   C16   1.381674 A    
C12   N3    1.432007 S    
C23   C28   1.487960 S    
N3    O10   1.300861 A    
C2    C11   1.473640 S    
C4    C14   1.470843 S    
C5    H1    1.080407 S    
C25   H12   1.081147 S    
Cu2   N1    2.016569 S    
C21   C22   1.535904 S    
C10   C11   1.414196 A    
Cu1   N2    2.015409 S    
C3    C19   1.452725 S    
C22   H9    1.111828 S    
C18   H7    1.078836 S    
H5    C13   1.084111 S    
C5    C6    1.388590 A    
O5    C3    1.294748 A    
C19   C20   1.394381 A    
C26   C27   1.483456 S    
C6    C7    1.387726 A    
C11   C12   1.413066 A    
C8    H4    1.076142 S    
Cu2   O6    1.974589 S    
O2    Cu2   1.980181 S    
C28   H16   1.106923 S    
C15   C20   1.352477 A    
N4    O11   1.300553 A    
O1    C1    1.292087 A    
O6    C3    1.293240 A    
C17   C18   1.403879 A    
