data_mof_unit_40316.cif
_audit_creation_date              2012-10-26T21:08:40-0400
_audit_creation_method            fapswitch 2.2
_symmetry_space_group_name_H-M    P1
_symmetry_Int_Tables_number       1
_space_group_crystal_system       triclinic
_cell_length_a                    22.302956
_cell_length_b                    22.571587
_cell_length_c                    14.630257
_cell_angle_alpha                 90.013327
_cell_angle_beta                  89.782426
_cell_angle_gamma                 90.003978
_cell_volume                      7365.0098825

loop_
_atom_site_label
_atom_site_type_symbol
_atom_type_description
_atom_site_fract_x
_atom_site_fract_y
_atom_site_fract_z
_atom_type_partial_charge
C1    C     C_R   0.420033 0.919506 0.500144 0.544806
C2    C     C_1   0.661328 0.836286 0.498045 -0.014830
C3    C     C_3   0.551905 0.387678 0.419434 -0.496636
C4    C     C_3   0.611908 0.717993 0.617677 0.029604
C5    C     C_3   0.566561 0.739149 0.689075 -0.256181
C6    C     C_3   0.502557 0.722949 0.661896 -0.499199
C7    C     C_3   0.310401 0.306191 0.298478 0.024441
C8    C     C_3   0.292309 0.279464 0.206557 -0.267050
C9    C     C_3   0.275146 0.327515 0.138139 -0.488289
C10   C     C_3   0.379442 0.723918 0.354922 0.029780
C11   C     C_3   0.419502 0.749544 0.279815 -0.257570
C12   C     C_3   0.484616 0.730217 0.291715 -0.497434
C13   C     C_1   0.666456 0.159044 0.498717 0.014796
C14   C     C_3   0.707607 0.290398 0.719451 0.023483
C15   C     C_3   0.732352 0.257391 0.802444 -0.266797
C16   C     C_3   0.755561 0.300365 0.874652 -0.487655
C17   C     C_3   0.112134 0.218205 0.618345 0.029566
C18   C     C_3   0.066918 0.239440 0.689882 -0.256176
C19   C     C_3   0.002866 0.223202 0.663022 -0.499096
C20   C     C_3   0.810716 0.806491 0.298947 0.024449
C21   C     C_3   0.792783 0.779915 0.206851 -0.267045
C22   C     C_3   0.775741 0.828078 0.138549 -0.488302
C23   C     C_3   0.879650 0.223717 0.355502 0.029822
C24   C     C_1   0.340674 0.834274 0.501510 -0.013616
C25   C     C_3   0.919847 0.249274 0.280508 -0.257574
C26   C     C_3   0.984943 0.229980 0.292741 -0.497532
C27   C     C_3   0.208019 0.789991 0.719815 0.023473
C28   C     C_3   0.232912 0.756828 0.802555 -0.266797
C29   C     C_3   0.256268 0.799666 0.874844 -0.487645
C30   C     C_1   0.834310 0.659880 0.501509 0.015358
C31   C     C_1   0.161346 0.336304 0.498053 -0.014854
C32   C     C_1   0.166484 0.659017 0.498719 0.014798
C33   C     C_1   0.840651 0.334297 0.501515 -0.013620
C34   C     C_1   0.499976 0.999910 0.194104 0.124061
C35   C     C_1   0.500011 0.999909 0.805897 0.124375
C36   C     C_1   0.999976 0.499910 0.194104 0.124076
C37   C     C_R   0.580726 0.079815 0.499876 0.547656
C38   C     C_1   0.000011 0.499909 0.805897 0.124354
C39   C     C_3   0.523484 0.050781 0.969109 -0.102034
C40   C     C_3   0.476487 0.948824 0.030911 -0.106232
C41   C     C_3   0.467052 0.045396 0.030981 -0.101842
C42   C     C_3   0.532919 0.954210 0.969014 -0.105994
C43   C     C_3   0.021233 0.551736 0.969121 -0.102070
C44   C     C_3   0.978738 0.447869 0.030899 -0.106240
C45   C     C_3   0.965088 0.543947 0.030991 -0.101827
C46   C     C_3   0.034882 0.455659 0.969005 -0.105920
C47   C     C_3   0.708893 0.739400 0.569276 0.278386
C48   C     C_R   0.580269 0.919832 0.499823 0.543875
C49   C     C_3   0.283804 0.254502 0.429895 0.253862
C50   C     C_3   0.287209 0.742415 0.423359 0.278915
C51   C     C_3   0.723423 0.247978 0.576628 0.252447
C52   C     C_3   0.209031 0.239532 0.569460 0.278344
C53   C     C_3   0.783898 0.754590 0.430061 0.253842
C54   C     C_3   0.787301 0.242324 0.423500 0.278956
C55   C     C_3   0.223585 0.747819 0.576754 0.252448
C56   C     C_3   0.220084 0.194130 0.492830 0.249804
C57   C     C_3   0.773310 0.799264 0.507300 0.257065
C58   C     C_3   0.781294 0.192012 0.493836 0.248964
C59   C     C_R   0.419315 0.079867 0.500150 0.548282
C60   C     C_3   0.228764 0.797608 0.506004 0.257006
C61   C     C_3   0.720081 0.694117 0.492525 0.249792
C62   C     C_3   0.273351 0.299295 0.507012 0.257073
C63   C     C_3   0.281323 0.691991 0.493526 0.248971
C64   C     C_3   0.728727 0.297654 0.505709 0.256989
C65   C     C_1   0.373189 0.123308 0.500736 -0.003305
C66   C     C_1   0.624435 0.874676 0.499061 -0.017446
C67   C     C_1   0.627204 0.122873 0.499389 -0.003709
C68   C     C_1   0.376822 0.873392 0.500752 -0.016392
C69   C     C_1   0.873181 0.623300 0.500737 -0.003315
C70   C     C_R   0.920031 0.419509 0.500145 0.544795
C71   C     C_1   0.124445 0.374687 0.499063 -0.017461
C72   C     C_1   0.127220 0.622857 0.499391 -0.003711
C73   C     C_1   0.876809 0.373404 0.500753 -0.016411
C74   C     C_3   0.277245 0.250148 0.580391 -0.135322
C75   C     C_3   0.715758 0.743788 0.418868 -0.201272
C76   C     C_3   0.718871 0.253755 0.426081 -0.133251
C77   C     C_3   0.292012 0.736202 0.573721 -0.201659
C78   C     C_3   0.777086 0.750005 0.580516 -0.135312
C79   C     C_3   0.215644 0.243689 0.419010 -0.201246
C80   C     C_3   0.218781 0.753835 0.426250 -0.133244
C81   C     C_R   0.080730 0.579811 0.499876 0.547658
C82   C     C_3   0.791853 0.236349 0.573905 -0.201677
C83   C     C_3   0.287863 0.204965 0.502002 0.010806
C84   C     C_3   0.705535 0.789230 0.497668 -0.017319
C85   C     C_3   0.713405 0.203601 0.498146 0.011054
C86   C     C_3   0.296729 0.786912 0.501688 -0.016969
C87   C     C_3   0.787841 0.704944 0.502003 0.010800
C88   C     C_3   0.205558 0.289252 0.497683 -0.017315
C89   C     C_3   0.213440 0.703567 0.498145 0.011075
C90   C     C_3   0.796698 0.286943 0.501699 -0.016962
C91   C     C_3   0.556409 0.005190 0.030474 -0.103459
C92   C     C_R   0.080272 0.419834 0.499824 0.543880
C93   C     C_3   0.443562 0.994415 0.969530 -0.103600
C94   C     C_3   0.056120 0.507594 0.030476 -0.103441
C95   C     C_3   0.943850 0.492010 0.969527 -0.103636
C96   C     C_3   0.499977 0.999811 0.091261 0.018617
C97   C     C_3   0.499995 0.999809 0.908743 0.018461
C98   C     C_3   0.999977 0.499811 0.091261 0.018616
C99   C     C_3   0.999995 0.499808 0.908743 0.018459
C100  C     C_3   0.149696 0.131149 0.428647 0.003964
C101  C     C_3   0.116090 0.073084 0.445069 -0.250080
C102  C     C_3   0.062735 0.066776 0.380820 -0.499069
C103  C     C_R   0.919314 0.579866 0.500150 0.548280
C104  C     C_3   0.860410 0.854170 0.528919 0.017777
C105  C     C_3   0.872929 0.877460 0.625151 -0.265089
C106  C     C_3   0.939773 0.876014 0.646798 -0.493122
C107  C     C_3   0.853682 0.123741 0.536678 0.001925
C108  C     C_3   0.883737 0.065851 0.507380 -0.250742
C109  C     C_3   0.939499 0.052953 0.564103 -0.498215
C110  C     C_3   0.141381 0.853903 0.511934 0.019305
C111  C     C_3   0.119841 0.881213 0.422165 -0.261992
C112  C     C_3   0.051745 0.887667 0.420803 -0.496639
C113  C     C_3   0.649844 0.631205 0.427803 0.003965
C114  C     C_1   0.334324 0.159894 0.501506 0.015363
C115  C     C_3   0.616237 0.573097 0.443849 -0.250098
C116  C     C_3   0.563050 0.566838 0.379265 -0.499014
C117  C     C_3   0.360492 0.354223 0.528113 0.017782
C118  C     C_3   0.373163 0.377652 0.624219 -0.265095
C119  C     C_3   0.440038 0.376202 0.645649 -0.493130
C120  C     C_3   0.353808 0.623671 0.535801 0.001901
C121  C     C_3   0.383812 0.565827 0.506164 -0.250729
C122  C     C_3   0.439723 0.552882 0.562521 -0.498274
C123  C     C_3   0.641351 0.353982 0.511056 0.019304
C124  C     C_3   0.619993 0.381197 0.421116 -0.261983
Cu1   Cu    Cu3+1 0.500000 1.000000 0.590220 0.995424
Cu2   Cu    Cu3+1 0.500000 0.000000 0.409780 0.994838
Cu3   Cu    Cu3+1 0.000000 0.500000 0.590220 0.995360
Cu4   Cu    Cu3+1 1.000000 0.500000 0.409780 0.994886
H1    H     H_    0.396839 0.989942 0.944578 0.108762
H2    H     H_    0.801948 0.751495 0.646031 0.111929
H3    H     H_    0.696354 0.229553 0.832935 0.177253
H4    H     H_    0.769549 0.227808 0.780671 0.160294
H5    H     H_    0.792626 0.327681 0.846192 0.148611
H6    H     H_    0.772823 0.275065 0.934074 0.152304
H7    H     H_    0.718869 0.329909 0.898508 0.149511
H8    H     H_    0.109473 0.169157 0.613194 0.168726
H9    H     H_    0.099211 0.238052 0.551568 0.109003
H10   H     H_    0.077456 0.218997 0.757042 0.171834
H11   H     H_    0.070288 0.288379 0.696884 0.180910
H12   H     H_    0.991117 0.243610 0.596328 0.138834
H13   H     H_    0.822028 0.230929 0.633448 0.083942
H14   H     H_    0.971097 0.239780 0.715747 0.148259
H15   H     H_    0.998033 0.174356 0.657980 0.137823
H16   H     H_    0.850700 0.835124 0.288692 0.145434
H17   H     H_    0.774176 0.836011 0.324687 0.151060
H18   H     H_    0.830864 0.753780 0.178744 0.176880
H19   H     H_    0.754028 0.749610 0.216433 0.160941
H20   H     H_    0.736782 0.853871 0.164383 0.150303
H21   H     H_    0.763319 0.807382 0.072416 0.151311
H22   H     H_    0.814171 0.858486 0.126819 0.147802
H23   H     H_    0.881622 0.174556 0.352354 0.169948
H24   H     H_    0.189169 0.759758 0.366185 0.111720
H25   H     H_    0.897692 0.238791 0.422519 0.108924
H26   H     H_    0.903701 0.234121 0.212619 0.171882
H27   H     H_    0.917509 0.298464 0.282614 0.180695
H28   H     H_    0.002151 0.244769 0.360187 0.139619
H29   H     H_    0.013107 0.250064 0.238217 0.149003
H30   H     H_    0.988571 0.181019 0.287831 0.139873
H31   H     H_    0.169545 0.817661 0.742499 0.145516
H32   H     H_    0.242581 0.821249 0.692656 0.150572
H33   H     H_    0.196966 0.728943 0.833083 0.177311
H34   H     H_    0.270061 0.727275 0.780494 0.160293
H35   H     H_    0.439778 0.083151 0.056352 0.110413
H36   H     H_    0.293285 0.827025 0.846337 0.148664
H37   H     H_    0.273637 0.774255 0.934081 0.152265
H38   H     H_    0.219627 0.829175 0.898985 0.149560
H39   H     H_    0.560186 0.916452 0.943635 0.107110
H40   H     H_    0.542948 0.092995 0.943809 0.110439
H41   H     H_    0.457034 0.906609 0.056234 0.104828
H42   H     H_    0.936190 0.580502 0.056370 0.110452
H43   H     H_    0.063775 0.419100 0.943618 0.107351
H44   H     H_    0.038832 0.594741 0.943832 0.110376
H45   H     H_    0.603134 0.009643 0.055425 0.109404
H46   H     H_    0.961148 0.404863 0.056214 0.104599
H47   H     H_    0.169097 0.130694 0.358433 0.142160
H48   H     H_    0.117084 0.168329 0.434600 0.104090
H49   H     H_    0.147235 0.035278 0.434389 0.178218
H50   H     H_    0.099592 0.071650 0.516837 0.163675
H51   H     H_    0.030000 0.103018 0.393083 0.139276
H52   H     H_    0.039960 0.023833 0.393580 0.146966
H53   H     H_    0.077938 0.068066 0.308466 0.147953
H54   H     H_    0.883263 0.883437 0.478627 0.145433
H55   H     H_    0.880573 0.809201 0.520444 0.141082
H56   H     H_    0.897366 0.485544 0.944573 0.108527
H57   H     H_    0.856469 0.923811 0.630937 0.176131
H58   H     H_    0.848522 0.849962 0.676081 0.166830
H59   H     H_    0.957140 0.829970 0.642378 0.151457
H60   H     H_    0.947214 0.892846 0.717159 0.148696
H61   H     H_    0.964897 0.904534 0.598248 0.138310
H62   H     H_    0.838378 0.119533 0.608905 0.142351
H63   H     H_    0.887304 0.160095 0.531366 0.105809
H64   H     H_    0.851462 0.028642 0.515297 0.185216
H65   H     H_    0.896898 0.068850 0.434152 0.162857
H66   H     H_    0.973048 0.088867 0.555206 0.140381
H67   H     H_    0.102607 0.514039 0.055428 0.109601
H68   H     H_    0.959957 0.010666 0.540992 0.140897
H69   H     H_    0.927506 0.048922 0.637594 0.147750
H70   H     H_    0.124422 0.881202 0.569711 0.149325
H71   H     H_    0.121371 0.808889 0.520507 0.142450
H72   H     H_    0.140520 0.925619 0.413155 0.178856
H73   H     H_    0.134089 0.852828 0.364027 0.160047
H74   H     H_    0.029833 0.843995 0.431474 0.151543
H75   H     H_    0.037482 0.905605 0.353657 0.146392
H76   H     H_    0.037002 0.918835 0.475114 0.134943
H77   H     H_    0.669395 0.630867 0.357683 0.142157
H78   H     H_    0.690444 0.742868 0.353738 0.084537
H79   H     H_    0.617198 0.668358 0.433734 0.104086
H80   H     H_    0.647432 0.535323 0.433235 0.178261
H81   H     H_    0.599559 0.571560 0.515518 0.163648
H82   H     H_    0.530272 0.603059 0.391416 0.139290
H83   H     H_    0.540260 0.523873 0.391783 0.146955
H84   H     H_    0.578440 0.568207 0.307006 0.147974
H85   H     H_    0.383273 0.383415 0.477641 0.145427
H86   H     H_    0.380637 0.309240 0.519719 0.141085
H87   H     H_    0.356736 0.424020 0.629894 0.176097
H88   H     H_    0.348814 0.350244 0.675330 0.166857
H89   H     H_    0.302217 0.251734 0.645802 0.111934
H90   H     H_    0.457371 0.330141 0.641349 0.151490
H91   H     H_    0.447590 0.393144 0.715919 0.148689
H92   H     H_    0.465110 0.404629 0.596906 0.138314
H93   H     H_    0.338655 0.619357 0.608087 0.142332
H94   H     H_    0.387411 0.660038 0.530452 0.105837
H95   H     H_    0.351571 0.528598 0.514164 0.185181
H96   H     H_    0.396788 0.568919 0.432869 0.162915
H97   H     H_    0.473242 0.588812 0.553507 0.140375
H98   H     H_    0.460130 0.510625 0.539183 0.140896
H99   H     H_    0.427921 0.548775 0.636073 0.147733
H100  H     H_    0.322292 0.730691 0.633121 0.083932
H101  H     H_    0.624291 0.381353 0.568684 0.149330
H102  H     H_    0.621312 0.308984 0.519662 0.142384
H103  H     H_    0.640708 0.425585 0.412074 0.178868
H104  H     H_    0.634341 0.352737 0.363121 0.160056
H105  H     H_    0.529953 0.344029 0.430144 0.151526
H106  H     H_    0.537778 0.405535 0.352169 0.146400
H107  H     H_    0.537072 0.418924 0.473582 0.134932
H108  H     H_    0.609251 0.668951 0.612371 0.168729
H109  H     H_    0.599113 0.737920 0.550899 0.108994
H110  H     H_    0.576972 0.718628 0.756227 0.171834
H111  H     H_    0.689362 0.259590 0.365877 0.111729
H112  H     H_    0.569923 0.788079 0.696227 0.180859
H113  H     H_    0.490934 0.743427 0.595201 0.138786
H114  H     H_    0.470691 0.739475 0.714524 0.148191
H115  H     H_    0.497726 0.674109 0.656713 0.137837
H116  H     H_    0.350368 0.334805 0.287950 0.145440
H117  H     H_    0.273906 0.335754 0.324250 0.151052
H118  H     H_    0.330342 0.253285 0.178397 0.176875
H119  H     H_    0.253571 0.249173 0.216412 0.160956
H120  H     H_    0.236230 0.353349 0.164029 0.150336
H121  H     H_    0.262610 0.306711 0.072137 0.151346
H122  H     H_    0.190219 0.242671 0.353984 0.084539
H123  H     H_    0.313554 0.357906 0.126135 0.147816
H124  H     H_    0.381399 0.674761 0.351640 0.169953
H125  H     H_    0.397612 0.738923 0.421895 0.108944
H126  H     H_    0.403223 0.734464 0.211962 0.171854
H127  H     H_    0.417183 0.798732 0.282055 0.180678
H128  H     H_    0.501961 0.744942 0.359113 0.139667
H129  H     H_    0.512679 0.750343 0.237106 0.149076
H130  H     H_    0.488223 0.681257 0.286685 0.139840
H131  H     H_    0.669091 0.318107 0.741850 0.145525
H132  H     H_    0.742217 0.321609 0.692303 0.150597
N1    N     N_1   0.499980 0.000000 0.274190 -0.193990
N2    N     N_1   0.500020 1.000000 0.725810 -0.193846
N3    N     N_1   0.999980 0.500000 0.274190 -0.193985
N4    N     N_1   0.000020 0.500000 0.725810 -0.193856
O1    O     O_R   0.439540 0.939530 0.576170 -0.494613
O2    O     O_R   0.560470 0.060470 0.576200 -0.485046
O3    O     O_R   0.560470 0.939530 0.576200 -0.490224
O4    O     O_R   0.439530 0.060470 0.423800 -0.484334
O5    O     O_R   0.939530 0.439530 0.423800 -0.491094
O6    O     O_R   0.060470 0.560470 0.576200 -0.485037
O7    O     O_R   0.060470 0.439530 0.576200 -0.490262
O8    O     O_R   0.939530 0.560470 0.423800 -0.484336
O9    O     O_3   0.196110 0.136169 0.493391 -0.556865
O10   O     O_3   0.798086 0.856742 0.511740 -0.566769
O11   O     O_3   0.804034 0.134282 0.479562 -0.558467
O12   O     O_R   0.560460 0.060470 0.423830 -0.491180
O13   O     O_3   0.204759 0.855186 0.514938 -0.565632
O14   O     O_3   0.696115 0.636151 0.492796 -0.556866
O15   O     O_3   0.298142 0.356777 0.511146 -0.566760
O16   O     O_3   0.304039 0.634282 0.478960 -0.558467
O17   O     O_3   0.704722 0.355251 0.514335 -0.565646
O18   O     O_3   0.670234 0.734197 0.645647 -0.553621
O19   O     O_3   0.326695 0.260280 0.359309 -0.571458
O20   O     O_3   0.319760 0.742539 0.340318 -0.553682
O21   O     O_3   0.686113 0.249038 0.654723 -0.572130
O22   O     O_3   0.170509 0.234452 0.646011 -0.553639
O23   O     O_R   0.560460 0.939530 0.423830 -0.496085
O24   O     O_3   0.826907 0.760481 0.359664 -0.571475
O25   O     O_3   0.819992 0.242309 0.340587 -0.553660
O26   O     O_3   0.186404 0.748752 0.654996 -0.572122
O27   O     O_R   0.439540 0.060470 0.576170 -0.492002
O28   O     O_R   0.939540 0.439530 0.576170 -0.494649
O29   O     O_R   0.060460 0.560470 0.423830 -0.491165
O30   O     O_R   0.060460 0.439530 0.423830 -0.496050
O31   O     O_R   0.939540 0.560470 0.576170 -0.492020
O32   O     O_R   0.439530 0.939530 0.423800 -0.491127

loop_
_geom_bond_atom_site_label_1
_geom_bond_atom_site_label_2
_ccdc_geom_bond_type
C46   H43   S    
C105  H58   S    
C47   C78   S    
C104  H54   S    
C46   C99   S    
C22   H22   S    
C101  C102  S    
C12   H128  S    
C5    H112  S    
C104  O10   S    
Cu1   O2    S    
C25   H27   S    
C10   H125  S    
C102  H52   S    
C65   C114  T    
C20   H16   S    
C2    C84   S    
C111  C112  S    
C83   C114  S    
C100  C101  S    
C64   C90   S    
C40   C93   S    
C16   H6    S    
C45   H42   S    
C111  H73   S    
C7    H117  S    
C28   H34   S    
C123  C124  S    
C32   C72   T    
C57   O10   S    
Cu3   N4    S    
Cu4   O30   S    
C120  H93   S    
C56   C79   S    
C59   O4    A    
C26   H29   S    
C76   H111  S    
C21   H19   S    
C35   N2    T    
C39   C97   S    
C28   C29   S    
C9    H123  S    
C43   C99   S    
C106  H59   S    
C54   C90   S    
C116  H83   S    
C52   C74   S    
C45   C98   S    
C58   C82   S    
C3    H106  S    
C52   O22   S    
C5    C6    S    
C55   C77   S    
C48   O23   A    
C95   C99   S    
C75   C84   S    
C120  O16   S    
C41   C96   S    
C59   O27   A    
C94   C98   S    
C14   O21   S    
C29   H37   S    
C115  C116  S    
C122  H98   S    
C92   O30   A    
C107  H62   S    
C39   H40   S    
C1    C68   S    
C15   H4    S    
C108  C109  S    
C91   H45   S    
C109  H68   S    
C18   C19   S    
Cu4   O5    S    
Cu4   N3    S    
C105  H57   S    
C80   C89   S    
C18   H10   S    
C9    H120  S    
C81   O29   A    
C118  C119  S    
C104  C105  S    
C116  H82   S    
C101  H50   S    
C61   C87   S    
C3    H107  S    
C91   C96   S    
C110  C111  S    
C26   H28   S    
C64   O17   S    
C41   C93   S    
C71   C92   S    
C8    H119  S    
C8    C9    S    
Cu3   O6    S    
C46   C94   S    
C7    H116  S    
C100  H48   S    
C119  H90   S    
C4    O18   S    
C107  C108  S    
C6    H113  S    
C118  H87   S    
C31   C88   S    
C112  H74   S    
C116  H84   S    
C107  O11   S    
C74   C83   S    
C72   C81   S    
C34   N1    T    
C37   O2    A    
C110  O13   S    
C31   C71   T    
C25   H26   S    
C22   H21   S    
C8    H118  S    
C61   O14   S    
Cu3   O7    S    
C55   C60   S    
Cu1   O3    S    
C119  H91   S    
C102  H51   S    
Cu4   O8    S    
C29   H36   S    
Cu2   O4    S    
C53   C75   S    
C12   H130  S    
C113  H79   S    
C40   C96   S    
C82   H13   S    
C93   H1    S    
C16   H5    S    
C39   C91   S    
C40   H41   S    
Cu2   O23   S    
C44   C46   S    
C28   H33   S    
C59   C65   S    
Cu2   O32   S    
C63   C77   S    
C69   C103  S    
C64   C76   S    
Cu4   O29   S    
C15   C16   S    
C115  H81   S    
C117  C118  S    
C94   H67   S    
C36   N3    T    
C7    C8    S    
C117  H86   S    
C39   C41   S    
C123  O17   S    
C42   C97   S    
C92   O7    A    
C60   C86   S    
C19   H12   S    
C53   O24   S    
C48   O3    A    
C23   O25   S    
C25   C26   S    
C50   C86   S    
C70   C73   S    
C62   C88   S    
C49   O19   S    
C61   C75   S    
C49   C79   S    
Cu2   N1    S    
C50   O20   S    
C70   O28   A    
C29   H38   S    
Cu1   N2    S    
C50   C80   S    
C9    H121  S    
C35   C97   S    
C5    H110  S    
C47   O18   S    
C38   N4    T    
C111  H72   S    
C11   H127  S    
C32   C89   S    
C123  H101  S    
C52   C88   S    
C4    H109  S    
C62   C74   S    
C63   C89   S    
C100  H47   S    
C54   C58   S    
C17   C18   S    
C121  H95   S    
C57   C84   S    
C10   O20   S    
C109  H66   S    
C53   C87   S    
Cu1   O27   S    
C47   C84   S    
C117  H85   S    
C43   C45   S    
C51   C82   S    
C121  C122  S    
C124  H104  S    
C79   C88   S    
C38   C99   S    
C54   C76   S    
C33   C73   T    
C22   H20   S    
C77   C86   S    
C19   H14   S    
C60   O13   S    
C23   H25   S    
C110  H70   S    
C3    H105  S    
Cu1   Cu2   S    
C78   C87   S    
C79   H122  S    
C6    H115  S    
C37   O12   A    
C12   H129  S    
C112  H76   S    
C13   C85   S    
Cu3   Cu4   S    
C45   C95   S    
C58   C85   S    
C93   C97   S    
C56   O9    S    
C30   C69   T    
C7    O19   S    
C3    C124  S    
C56   C83   S    
Cu3   O31   S    
C4    H108  S    
C11   H126  S    
C80   H24   S    
C23   H23   S    
C58   O11   S    
C60   C80   S    
C120  H94   S    
C49   C62   S    
C1    O32   A    
Cu1   O1    S    
C110  H71   S    
C20   H17   S    
C102  H53   S    
C57   C78   S    
C51   O21   S    
C13   C67   T    
C51   C64   S    
C14   C15   S    
C44   H46   S    
Cu2   O12   S    
C70   O5    A    
C53   C57   S    
C47   C61   S    
C36   C98   S    
C43   H44   S    
C2    C66   T    
Cu3   O28   S    
C54   O25   S    
C106  H61   S    
C105  C106  S    
C43   C94   S    
C109  H69   S    
C21   C22   S    
C82   C90   S    
C100  O9    S    
C14   H131  S    
C108  H65   S    
C103  O8    A    
C49   C83   S    
C41   H35   S    
C95   H56   S    
C27   H32   S    
C1    O1    A    
C106  H60   S    
C117  O15   S    
C44   C95   S    
C20   O24   S    
C33   C90   S    
C21   H18   S    
C17   O22   S    
C122  H97   S    
C17   H9    S    
C119  H92   S    
C123  H102  S    
C24   C86   S    
C103  O31   A    
C76   C85   S    
C122  H99   S    
C37   C67   S    
C74   H89   S    
C40   C42   S    
C81   O6    A    
C75   H78   S    
C121  H96   S    
C26   H30   S    
C17   H8    S    
C10   H124  S    
C50   C63   S    
C23   C25   S    
C27   O26   S    
C78   H2    S    
C18   H11   S    
C63   O16   S    
C19   H15   S    
C124  H103  S    
C101  H49   S    
C10   C11   S    
C24   C68   T    
C44   C98   S    
C52   C56   S    
C42   H39   S    
C4    C5    S    
C104  H55   S    
C15   H3    S    
C20   C21   S    
C55   O26   S    
C77   H100  S    
C55   C89   S    
C62   O15   S    
C107  H63   S    
C27   C28   S    
C120  C121  S    
C108  H64   S    
C6    H114  S    
C118  H88   S    
C51   C85   S    
C112  H75   S    
C48   C66   S    
C30   C87   S    
C115  H80   S    
C16   H7    S    
C27   H31   S    
C113  O14   S    
C14   H132  S    
C34   C96   S    
C42   C91   S    
C11   C12   S    
C113  H77   S    
C113  C115  S    
