data_mof_unit_64061.cif
_audit_creation_date              2012-12-10T16:43:22-0500
_audit_creation_method            fapswitch 2.2
_symmetry_space_group_name_H-M    P1
_symmetry_Int_Tables_number       1
_space_group_crystal_system       triclinic
_cell_length_a                    18.454569
_cell_length_b                    18.447931
_cell_length_c                    18.455517
_cell_angle_alpha                 119.728716
_cell_angle_beta                  90.413719
_cell_angle_gamma                 119.783722
_cell_volume                      4459.45439387

loop_
_atom_site_label
_atom_site_type_symbol
_atom_type_description
_atom_site_fract_x
_atom_site_fract_y
_atom_site_fract_z
_atom_type_partial_charge
C1    C     C_R   0.361400 0.000238 0.138470 0.849973
C2    C     C_2   0.803298 0.998762 0.691112 -0.289930
C3    C     C_2   0.720968 0.939988 0.777227 -0.154406
C4    C     C_R   0.638806 0.000356 0.861736 0.860889
C5    C     C_2   0.696598 0.004342 0.808865 -0.288511
C6    C     C_2   0.280969 0.443864 0.722679 -0.164002
C7    C     C_2   0.192216 0.387751 0.690541 -0.286979
C8    C     C_2   0.337112 0.556197 0.776330 -0.165216
C9    C     C_2   0.304506 0.612257 0.808557 -0.266277
C10   C     C_2   0.280988 0.059952 0.337159 -0.154819
C11   C     C_2   0.192247 0.995668 0.304582 -0.289789
C12   C     C_R   0.112885 0.804824 0.585123 -0.259107
C13   C     C_2   0.337151 0.057552 0.280979 -0.156911
C14   C     C_2   0.304502 0.001122 0.192268 -0.289198
C15   C     C_2   0.775966 0.938153 0.218161 -0.164695
C16   C     C_R   0.638204 0.277051 0.138559 0.854181
C17   C     C_2   0.810983 0.006463 0.306160 -0.276475
C18   C     C_2   0.724214 0.942297 0.162198 -0.160595
C19   C     C_2   0.688985 0.995069 0.195381 -0.279362
C20   C     C_2   0.776684 0.556280 0.219113 -0.157424
C21   C     C_2   0.809088 0.612253 0.307814 -0.289704
C22   C     C_2   0.723012 0.443942 0.162872 -0.159927
C23   C     C_R   0.179809 0.898605 0.664403 0.106662
C24   C     C_2   0.691042 0.387738 0.195403 -0.287262
C25   C     C_R   0.138405 0.277061 0.638129 0.858658
C26   C     C_R   0.861801 0.722945 0.361627 0.849182
C27   C     C_R   0.861137 0.999768 0.638294 0.853478
C28   C     C_R   0.361400 0.722951 0.861671 0.880931
C29   C     C_R   0.138414 0.999615 0.361435 0.856742
C30   C     C_R   0.861020 0.000713 0.360452 0.861004
C31   C     C_R   0.139972 0.998139 0.638279 0.781672
C32   C     C_R   0.638936 0.999311 0.139602 0.860004
C33   C     C_R   0.359891 0.998322 0.858333 0.784413
C34   C     C_R   0.234501 0.898699 0.718976 0.022189
C35   C     C_R   0.220517 0.805096 0.692294 -0.268853
C36   C     C_R   0.152761 0.713086 0.614620 0.524634
C37   C     C_R   0.099069 0.713362 0.561419 -0.220006
C38   C     C_R   0.303772 0.992966 0.796992 -0.037932
C39   C     C_R   0.320834 0.084836 0.817187 -0.201549
C40   C     C_R   0.267555 0.084760 0.763871 -0.206375
C41   C     C_R   0.195931 0.992811 0.689150 -0.048282
C42   C     C_2   0.779587 0.942412 0.723528 -0.155702
H1    H     H_    0.374583 0.157156 0.875956 0.155411
H2    H     H_    0.234501 0.954654 0.156203 0.153953
H3    H     H_    0.786413 0.878069 0.185414 0.179362
H4    H     H_    0.262847 0.802465 0.730162 0.201932
H5    H     H_    0.805760 0.070304 0.340537 0.159252
H6    H     H_    0.713931 0.899226 0.091725 0.179124
H7    H     H_    0.694065 0.034547 0.264380 0.152975
H8    H     H_    0.790576 0.593698 0.185445 0.177189
H9    H     H_    0.798983 0.578245 0.343806 0.153780
H10   H     H_    0.708682 0.406737 0.091887 0.177790
H11   H     H_    0.701643 0.421585 0.265302 0.154199
H12   H     H_    0.719670 0.063464 0.797987 0.152218
H13   H     H_    0.046974 0.642564 0.500610 0.184673
H14   H     H_    0.071608 0.800820 0.539538 0.174531
H15   H     H_    0.281022 0.157033 0.782309 0.156650
H16   H     H_    0.802942 0.894717 0.709623 0.179741
H17   H     H_    0.779635 0.045069 0.701310 0.153892
H18   H     H_    0.698190 0.883494 0.791819 0.177420
H19   H     H_    0.204434 0.550594 0.624719 0.384142
H20   H     H_    0.314735 0.406580 0.708735 0.178562
H21   H     H_    0.156155 0.421660 0.700645 0.163208
H22   H     H_    0.408141 0.593539 0.790601 0.178308
H23   H     H_    0.234550 0.578301 0.797894 0.162099
H24   H     H_    0.314744 0.116393 0.408170 0.178553
H25   H     H_    0.156170 0.936639 0.234650 0.152352
H26   H     H_    0.408224 0.105359 0.314706 0.179412
O1    O     O_3   0.500000 0.000000 0.000000 -0.495131
O2    O     O_R   0.054120 0.939900 0.325040 -0.644020
O3    O     O_R   0.884120 0.060070 0.444330 -0.637868
O4    O     O_R   0.325020 0.939940 0.054210 -0.640778
O5    O     O_R   0.175860 0.060090 0.615830 -0.639300
O6    O     O_R   0.884120 0.939900 0.324160 -0.645753
O7    O     O_R   0.055710 0.939940 0.615850 -0.643237
O8    O     O_R   0.885720 0.939940 0.614980 -0.638970
O9    O     O_R   0.174930 0.060060 0.445830 -0.641192
O10   O     O_R   0.054120 0.229160 0.614300 -0.634659
O11   O     O_R   0.885050 0.770830 0.325070 -0.642995
O12   O     O_R   0.614240 0.229150 0.054160 -0.643790
O13   O     O_R   0.614240 0.060060 0.885070 -0.641975
O14   O     O_R   0.614900 0.229170 0.174980 -0.640327
O15   O     O_R   0.445840 0.770840 0.885740 -0.649834
O16   O     O_R   0.615830 0.060100 0.175880 -0.641657
O17   O     O_R   0.324090 0.939910 0.884220 -0.637979
O18   O     O_R   0.615830 0.939930 0.055710 -0.648066
O19   O     O_R   0.444240 0.060060 0.884190 -0.638079
O20   O     O_2   0.053276 0.538862 0.600354 -0.294382
O21   O     O_2   0.121551 0.534910 0.486312 -0.293523
O22   O     O_3   0.222330 0.618880 0.642264 -0.580693
O23   O     O_R   0.325020 0.770840 0.885120 -0.627702
O24   O     O_R   0.445840 0.060100 0.175010 -0.642875
O25   O     O_R   0.614900 0.939900 0.885710 -0.642413
O26   O     O_3   0.999960 0.000000 0.500040 -0.492794
O27   O     O_R   0.174930 0.229160 0.614920 -0.644656
O28   O     O_R   0.885720 0.770850 0.445880 -0.646773
O29   O     O_R   0.885050 0.060100 0.614330 -0.641605
S1    S     S_3+6 0.135077 0.597017 0.583403 0.013848
Zn1   Zn    Zn3+2 0.542440 0.085830 0.956610 0.976282
Zn2   Zn    Zn3+2 0.543390 0.085850 0.129220 0.976025
Zn3   Zn    Zn3+2 0.543390 0.914160 0.957530 0.969801
Zn4   Zn    Zn3+2 0.370780 0.914160 0.956640 0.993236
Zn5   Zn    Zn3+2 0.957510 0.914170 0.543430 0.969288
Zn6   Zn    Zn3+2 0.956570 0.085840 0.542520 0.989855
Zn7   Zn    Zn3+2 0.956570 0.914150 0.370820 0.969003
Zn8   Zn    Zn3+2 0.129180 0.085840 0.543400 0.969640

loop_
_geom_bond_atom_site_label_1
_geom_bond_atom_site_label_2
_ccdc_geom_bond_type
C15   C18   S    
C21   C26   S    
O26   Zn7   S    
C35   C36   A    
O3    Zn6   S    
C42   H16   S    
C30   O3    A    
C3    C42   S    
O1    Zn4   S    
C12   C23   A    
C22   H10   S    
C36   C37   A    
C34   C35   A    
C38   C39   A    
C30   O6    A    
C31   O5    A    
O11   Zn7   S    
C18   C19   D    
C12   C37   A    
C33   O17   A    
C20   H8    S    
O26   Zn8   S    
C4    O13   A    
C8    C9    D    
C2    C27   S    
O15   Zn3   S    
C3    H18   S    
O8    Zn5   S    
O26   Zn6   S    
C16   C24   S    
C13   C14   D    
C28   O15   A    
O7    Zn5   S    
C17   C30   S    
C19   C32   S    
C11   H25   S    
O19   Zn1   S    
C10   H24   S    
C26   O28   A    
C32   O16   A    
C1    O4    A    
O10   Zn6   S    
C25   O10   A    
O16   Zn2   S    
C5    H12   S    
C27   O29   A    
O25   Zn3   S    
C39   C40   A    
C2    H17   S    
C6    C8    S    
O13   Zn1   S    
C24   H11   S    
C10   C13   S    
C16   O12   A    
O27   Zn8   S    
C19   H7    S    
C31   O7    A    
C23   C34   A    
C32   O18   A    
C16   O14   A    
C7    H21   S    
C12   H14   S    
C8    H22   S    
O1    Zn1   S    
C40   C41   A    
C20   C22   S    
O26   Zn5   S    
C25   O27   A    
C1    O24   A    
O12   Zn1   S    
C22   C24   D    
C15   H3    S    
O23   Zn4   S    
C27   O8    A    
C21   H9    S    
H19   O22   S    
O24   Zn2   S    
C14   H2    S    
C29   O2    A    
C15   C17   D    
O9    Zn8   S    
C40   H15   S    
C31   C41   S    
C34   C38   A    
O14   Zn2   S    
C17   H5    S    
C4    C5    S    
C3    C5    D    
O2    Zn7   S    
C18   H6    S    
C39   H1    S    
C6    C7    D    
O1    Zn3   S    
C26   O11   A    
C7    C25   S    
O21   S1    D    
C6    H20   S    
C23   C41   A    
O6    Zn7   S    
O18   Zn3   S    
O5    Zn8   S    
O4    Zn4   S    
C2    C42   D    
C28   O23   A    
C33   O19   A    
C9    H23   S    
O29   Zn6   S    
C10   C11   D    
C4    O25   A    
C37   H13   S    
O1    Zn2   S    
C29   O9    A    
C20   C21   D    
C11   C29   S    
O28   Zn5   S    
C33   C38   S    
C36   S1    S    
C1    C14   S    
C35   H4    S    
O22   S1    S    
O20   S1    D    
O17   Zn4   S    
C9    C28   S    
C13   H26   S    
