data_mof_unit_41398.cif
_audit_creation_date              2012-12-11T21:06:08-0500
_audit_creation_method            fapswitch 2.2
_symmetry_space_group_name_H-M    P1
_symmetry_Int_Tables_number       1
_space_group_crystal_system       triclinic
_cell_length_a                    36.560454
_cell_length_b                    39.422048
_cell_length_c                    8.407485
_cell_angle_alpha                 90.0
_cell_angle_beta                  93.766305
_cell_angle_gamma                 89.999979
_cell_volume                      12091.4362582

loop_
_atom_site_label
_atom_site_type_symbol
_atom_type_description
_atom_site_fract_x
_atom_site_fract_y
_atom_site_fract_z
_atom_type_partial_charge
Ba1   Ba    Ba6+2 0.000060 0.523150 0.844950 1.785209
Ba2   Ba    Ba6+2 0.000060 0.476850 0.344950 1.785198
Ba3   Ba    Ba6+2 0.500060 0.023150 0.844950 1.785200
Ba4   Ba    Ba6+2 0.500060 0.976850 0.344950 1.785204
C1    C     C_3   0.988119 0.692281 0.630814 0.519932
C2    C     C_3   0.988115 0.307720 0.130809 0.519949
C3    C     C_3   0.488117 0.192280 0.630813 0.519942
C4    C     C_3   0.488118 0.807719 0.130816 0.519934
C5    C     C_R   0.868307 0.312239 0.966499 0.592583
C6    C     C_R   0.868306 0.687761 0.466498 0.592579
C7    C     C_R   0.368306 0.812239 0.966495 0.592581
C8    C     C_R   0.368306 0.187761 0.466500 0.592581
C9    C     C_2   0.907397 0.366278 0.785335 -0.070927
C10   C     C_2   0.907396 0.633720 0.285332 -0.070954
C11   C     C_2   0.407396 0.866279 0.785332 -0.070943
C12   C     C_2   0.407397 0.133721 0.285334 -0.070934
C13   C     C_3   0.941542 0.387260 0.768783 -0.097722
C14   C     C_3   0.941542 0.612740 0.268782 -0.097736
C15   C     C_3   0.441542 0.887260 0.768782 -0.097734
C16   C     C_3   0.441542 0.112740 0.268782 -0.097728
C17   C     C_1   0.919956 0.424149 0.979623 -0.028844
C18   C     C_1   0.919956 0.575851 0.479624 -0.028843
C19   C     C_1   0.419956 0.924149 0.979623 -0.028844
C20   C     C_1   0.419956 0.075851 0.479623 -0.028843
C21   C     C_2   0.895285 0.401236 0.017859 -0.101646
C22   C     C_2   0.895285 0.598764 0.517861 -0.101648
C23   C     C_2   0.395286 0.901236 0.017860 -0.101647
C24   C     C_2   0.395285 0.098764 0.517858 -0.101647
C25   C     C_2   0.887086 0.370996 0.912683 0.221150
C26   C     C_2   0.887086 0.629003 0.412683 0.221167
C27   C     C_2   0.387086 0.870996 0.912683 0.221161
C28   C     C_2   0.387086 0.129004 0.412682 0.221156
C29   C     C_R   0.805609 0.298176 0.025841 -0.078963
C30   C     C_R   0.805609 0.701823 0.525842 -0.078964
C31   C     C_R   0.305609 0.798176 0.025842 -0.078964
C32   C     C_R   0.305608 0.201823 0.525840 -0.078963
C33   C     C_R   0.796729 0.332923 0.012997 -0.032885
C34   C     C_R   0.796729 0.667077 0.513000 -0.032886
C35   C     C_R   0.296729 0.832923 0.013002 -0.032886
C36   C     C_R   0.296728 0.167077 0.512994 -0.032885
C37   C     C_R   0.760884 0.343149 0.037725 -0.056728
C38   C     C_R   0.760884 0.656850 0.537730 -0.056729
C39   C     C_R   0.260884 0.843150 0.037734 -0.056728
C40   C     C_R   0.260883 0.156850 0.537720 -0.056729
C41   C     C_R   0.841665 0.287860 0.001588 -0.043002
C42   C     C_R   0.841665 0.712140 0.501587 -0.043001
C43   C     C_R   0.341665 0.787860 0.001585 -0.043002
C44   C     C_R   0.341665 0.212140 0.501589 -0.043002
C45   C     C_3   0.993827 0.662417 0.123825 0.273797
C46   C     C_3   0.993854 0.337598 0.623819 0.273753
C47   C     C_3   0.493845 0.162406 0.123816 0.273779
C48   C     C_3   0.493835 0.837588 0.623817 0.273800
C49   C     C_2   0.941664 0.420113 0.860547 -0.175365
C50   C     C_2   0.941664 0.579888 0.360549 -0.175353
C51   C     C_2   0.441664 0.920112 0.860548 -0.175357
C52   C     C_2   0.441664 0.079887 0.360548 -0.175361
C53   C     C_2   0.059243 0.579596 0.328521 -0.286513
C54   C     C_2   0.059243 0.420405 0.828526 -0.286531
C55   C     C_2   0.559243 0.079595 0.328524 -0.286527
C56   C     C_2   0.559243 0.920404 0.828523 -0.286521
C57   C     C_R   0.215972 0.760436 0.137698 0.020355
C58   C     C_R   0.215971 0.239564 0.637687 0.020355
C59   C     C_R   0.715971 0.260435 0.137691 0.020355
C60   C     C_R   0.715972 0.739564 0.637695 0.020355
C61   C     C_R   0.260043 0.714166 0.101456 0.019168
C62   C     C_R   0.260043 0.285834 0.601459 0.019169
C63   C     C_R   0.760043 0.214166 0.101458 0.019169
C64   C     C_R   0.760043 0.785834 0.601457 0.019168
C65   C     C_R   0.224587 0.725228 0.138187 0.054264
C66   C     C_R   0.224586 0.274772 0.638182 0.054264
C67   C     C_R   0.724586 0.225228 0.138184 0.054264
C68   C     C_R   0.724587 0.774772 0.638186 0.054264
C69   C     C_R   0.180925 0.770177 0.183336 -0.096714
C70   C     C_R   0.180923 0.229823 0.683316 -0.096713
C71   C     C_R   0.680924 0.270177 0.183323 -0.096714
C72   C     C_R   0.680924 0.729823 0.683331 -0.096714
C73   C     C_R   0.155033 0.746295 0.222873 -0.036393
C74   C     C_R   0.155031 0.253704 0.722852 -0.036380
C75   C     C_R   0.655032 0.246295 0.222860 -0.036384
C76   C     C_R   0.655033 0.753705 0.722867 -0.036388
C77   C     C_R   0.162715 0.711510 0.218725 -0.030484
C78   C     C_R   0.162713 0.288489 0.718712 -0.030474
C79   C     C_R   0.662714 0.211511 0.218717 -0.030477
C80   C     C_R   0.662714 0.788489 0.718722 -0.030480
C81   C     C_R   0.197443 0.700830 0.176163 -0.083323
C82   C     C_R   0.197442 0.299169 0.676158 -0.083324
C83   C     C_R   0.697442 0.200830 0.176160 -0.083324
C84   C     C_R   0.697442 0.799169 0.676162 -0.083324
C85   C     C_R   0.205051 0.665796 0.172207 -0.036045
C86   C     C_R   0.205050 0.334204 0.672209 -0.036046
C87   C     C_R   0.705051 0.165796 0.172208 -0.036045
C88   C     C_R   0.705051 0.834204 0.672208 -0.036044
C89   C     C_3   0.014144 0.693874 0.072128 0.150464
C90   C     C_3   0.014157 0.306132 0.572129 0.150429
C91   C     C_3   0.514153 0.193869 0.072125 0.150437
C92   C     C_3   0.514148 0.806128 0.572124 0.150449
C93   C     C_R   0.177798 0.641981 0.209268 0.612113
C94   C     C_R   0.177797 0.358018 0.709270 0.612122
C95   C     C_R   0.677797 0.141982 0.209269 0.612118
C96   C     C_R   0.677797 0.858018 0.709268 0.612116
C97   C     C_R   0.136177 0.687304 0.256597 0.647550
C98   C     C_R   0.136175 0.312695 0.756584 0.647553
C99   C     C_R   0.636176 0.187305 0.256589 0.647552
C100  C     C_R   0.636176 0.812695 0.756594 0.647552
C101  C     C_2   0.095091 0.631804 0.412358 -0.063993
C102  C     C_2   0.095090 0.368195 0.912357 -0.064009
C103  C     C_2   0.595090 0.131804 0.412358 -0.064002
C104  C     C_2   0.595091 0.868196 0.912358 -0.063995
C105  C     C_3   0.060010 0.612045 0.422651 -0.110522
C106  C     C_3   0.060011 0.387955 0.922655 -0.110570
C107  C     C_3   0.560010 0.112045 0.422654 -0.110555
C108  C     C_3   0.560010 0.887955 0.922652 -0.110537
C109  C     C_1   0.080996 0.575662 0.209611 0.020400
C110  C     C_1   0.080996 0.424338 0.709612 0.020393
C111  C     C_1   0.580996 0.075662 0.209612 0.020395
C112  C     C_1   0.580996 0.924338 0.709611 0.020398
C113  C     C_2   0.105839 0.598681 0.172999 -0.044836
C114  C     C_2   0.105838 0.401318 0.672998 -0.044857
C115  C     C_2   0.605838 0.098682 0.172998 -0.044850
C116  C     C_2   0.605838 0.901318 0.672999 -0.044843
C117  C     C_2   0.115122 0.628018 0.283610 0.228362
C118  C     C_2   0.115122 0.371982 0.783608 0.228344
C119  C     C_2   0.615122 0.128018 0.283609 0.228351
C120  C     C_2   0.615122 0.871982 0.783610 0.228355
C121  C     C_R   0.742545 0.284677 0.093386 0.020679
C122  C     C_R   0.742545 0.715322 0.593390 0.020678
C123  C     C_R   0.242545 0.784677 0.093392 0.020678
C124  C     C_R   0.242544 0.215322 0.593382 0.020679
C125  C     C_R   0.778466 0.273740 0.063280 0.052349
C126  C     C_R   0.778466 0.726259 0.563281 0.052348
C127  C     C_R   0.278466 0.773741 0.063282 0.052348
C128  C     C_R   0.278465 0.226259 0.563279 0.052349
C129  C     C_R   0.787567 0.238645 0.070407 0.020289
C130  C     C_R   0.787567 0.761354 0.570407 0.020289
C131  C     C_R   0.287567 0.738645 0.070405 0.020289
C132  C     C_R   0.287566 0.261354 0.570408 0.020289
C133  C     C_3   0.892753 0.520466 0.159178 0.856830
C134  C     C_3   0.892753 0.479534 0.659178 0.856829
C135  C     C_3   0.392753 0.020466 0.159178 0.856830
C136  C     C_3   0.392753 0.979534 0.659178 0.856830
C137  C     C_R   0.734439 0.319696 0.076992 -0.097010
C138  C     C_R   0.734439 0.680304 0.576998 -0.097010
C139  C     C_R   0.234439 0.819696 0.077002 -0.097011
C140  C     C_R   0.234438 0.180304 0.576987 -0.097009
C141  C     C_R   0.850558 0.253364 0.014204 -0.049421
C142  C     C_R   0.850558 0.746635 0.514201 -0.049426
C143  C     C_R   0.350558 0.753364 0.014197 -0.049424
C144  C     C_R   0.350558 0.246635 0.514207 -0.049423
C145  C     C_R   0.266595 0.678770 0.096412 -0.095349
C146  C     C_R   0.266595 0.321230 0.596421 -0.095348
C147  C     C_R   0.766595 0.178770 0.096418 -0.095348
C148  C     C_R   0.766595 0.821230 0.596415 -0.095349
C149  C     C_R   0.239754 0.655256 0.130888 -0.035588
C150  C     C_R   0.239753 0.344744 0.630897 -0.035587
C151  C     C_R   0.739754 0.155256 0.130894 -0.035587
C152  C     C_R   0.739754 0.844744 0.630891 -0.035587
C153  C     C_R   0.824226 0.229327 0.047404 -0.098206
C154  C     C_R   0.824225 0.770673 0.547401 -0.098207
C155  C     C_R   0.324225 0.729327 0.047397 -0.098207
C156  C     C_R   0.324225 0.270673 0.547407 -0.098206
C157  C     C_3   0.857131 0.540108 0.168105 -0.294846
C158  C     C_3   0.857130 0.459892 0.668104 -0.294846
C159  C     C_3   0.357131 0.040108 0.168104 -0.294845
C160  C     C_3   0.357131 0.959892 0.668105 -0.294847
C161  C     C_3   0.104756 0.477226 0.047821 0.339248
C162  C     C_3   0.104756 0.522774 0.547821 0.339254
C163  C     C_3   0.604756 0.977226 0.047821 0.339251
C164  C     C_3   0.604756 0.022774 0.547821 0.339248
C165  C     C_3   0.138872 0.454945 0.053817 0.117451
C166  C     C_3   0.138872 0.545055 0.553817 0.117456
C167  C     C_3   0.638872 0.954945 0.053816 0.117456
C168  C     C_3   0.638872 0.045055 0.553817 0.117453
C169  C     C_3   0.007292 0.660932 0.571977 0.295435
C170  C     C_3   0.007289 0.339070 0.071975 0.295463
C171  C     C_3   0.507289 0.160930 0.571977 0.295453
C172  C     C_3   0.507289 0.839070 0.071980 0.295445
C173  C     C_R   0.823780 0.356728 0.974148 0.591305
C174  C     C_R   0.823779 0.643272 0.474151 0.591304
C175  C     C_R   0.323780 0.856728 0.974153 0.591303
C176  C     C_R   0.323779 0.143272 0.474146 0.591304
H1    H     H_    0.986483 0.644509 0.507601 -0.062256
H2    H     H_    0.986482 0.355493 0.007600 -0.062283
H3    H     H_    0.486480 0.144507 0.507609 -0.062265
H4    H     H_    0.486479 0.855493 0.007618 -0.062248
H5    H     H_    0.837701 0.525471 0.237607 0.075968
H6    H     H_    0.837701 0.474529 0.737607 0.075967
H7    H     H_    0.337701 0.025471 0.237606 0.075968
H8    H     H_    0.337701 0.974529 0.737608 0.075968
H9    H     H_    0.862482 0.564928 0.227178 0.074706
H10   H     H_    0.862482 0.435072 0.727176 0.074708
H11   H     H_    0.362482 0.064928 0.227176 0.074707
H12   H     H_    0.362482 0.935072 0.727178 0.074706
H13   H     H_    0.844506 0.544700 0.046210 0.117746
H14   H     H_    0.844506 0.455300 0.546209 0.117746
H15   H     H_    0.344506 0.044700 0.046208 0.117746
H16   H     H_    0.344506 0.955300 0.546210 0.117746
H17   H     H_    0.094434 0.480089 0.922030 -0.054652
H18   H     H_    0.094433 0.519911 0.422031 -0.054661
H19   H     H_    0.594434 0.980089 0.922030 -0.054657
H20   H     H_    0.594434 0.019911 0.422030 -0.054653
H21   H     H_    0.083609 0.464787 0.116706 0.048227
H22   H     H_    0.083608 0.535213 0.616707 0.048226
H23   H     H_    0.583609 0.964787 0.116706 0.048227
H24   H     H_    0.583608 0.035213 0.616706 0.048227
H25   H     H_    0.160248 0.466943 0.984526 0.132096
H26   H     H_    0.160248 0.533057 0.484524 0.132095
H27   H     H_    0.660248 0.966943 0.984524 0.132094
H28   H     H_    0.660248 0.033056 0.484525 0.132095
H29   H     H_    0.132069 0.429818 0.001030 -0.001441
H30   H     H_    0.132069 0.570182 0.501030 -0.001456
H31   H     H_    0.632069 0.929818 0.001030 -0.001451
H32   H     H_    0.632069 0.070182 0.501030 -0.001445
H33   H     H_    0.027813 0.669727 0.489173 0.006172
H34   H     H_    0.027811 0.330274 0.989171 0.006145
H35   H     H_    0.527810 0.169725 0.489167 0.006147
H36   H     H_    0.527809 0.830276 0.989164 0.006149
H37   H     H_    0.965577 0.684787 0.705900 0.055977
H38   H     H_    0.965572 0.315216 0.205887 0.055976
H39   H     H_    0.465575 0.184786 0.705898 0.055976
H40   H     H_    0.465577 0.815213 0.205909 0.055974
H41   H     H_    0.021095 0.710022 0.178103 0.099425
H42   H     H_    0.021111 0.289988 0.678115 0.099443
H43   H     H_    0.521106 0.210015 0.178108 0.099437
H44   H     H_    0.521099 0.789981 0.678102 0.099431
H45   H     H_    0.880835 0.404217 0.125760 0.114401
H46   H     H_    0.880835 0.595784 0.625764 0.114400
H47   H     H_    0.380836 0.904216 0.125764 0.114402
H48   H     H_    0.380834 0.095783 0.625760 0.114399
H49   H     H_    0.753008 0.369590 0.026879 0.125414
H50   H     H_    0.753008 0.630410 0.526885 0.125414
H51   H     H_    0.253009 0.869590 0.026891 0.125414
H52   H     H_    0.253008 0.130410 0.526873 0.125414
H53   H     H_    0.101308 0.651892 0.498200 0.120092
H54   H     H_    0.101307 0.348107 0.998197 0.120104
H55   H     H_    0.601307 0.151892 0.498198 0.120101
H56   H     H_    0.601308 0.848108 0.998199 0.120097
H57   H     H_    0.128666 0.755356 0.256797 0.133447
H58   H     H_    0.128663 0.244643 0.756770 0.133451
H59   H     H_    0.628664 0.255357 0.256780 0.133450
H60   H     H_    0.628665 0.744643 0.756789 0.133449
H61   H     H_    0.172665 0.796261 0.192990 0.074216
H62   H     H_    0.172662 0.203738 0.692963 0.074218
H63   H     H_    0.672664 0.296261 0.192973 0.074217
H64   H     H_    0.672664 0.703738 0.692983 0.074217
H65   H     H_    0.707546 0.329953 0.090721 0.074806
H66   H     H_    0.707546 0.670047 0.590727 0.074805
H67   H     H_    0.207547 0.829953 0.090733 0.074805
H68   H     H_    0.207545 0.170047 0.590714 0.074806
H69   H     H_    0.902129 0.344777 0.706458 0.092002
H70   H     H_    0.902126 0.655222 0.206451 0.091974
H71   H     H_    0.402127 0.844778 0.706452 0.091983
H72   H     H_    0.402128 0.155223 0.206455 0.091993
H73   H     H_    0.878182 0.244661 0.997988 0.145235
H74   H     H_    0.878182 0.755338 0.497984 0.145232
H75   H     H_    0.378182 0.744661 0.997977 0.145233
H76   H     H_    0.378182 0.255338 0.497993 0.145234
H77   H     H_    0.292135 0.668170 0.063231 0.078914
H78   H     H_    0.292135 0.331830 0.563246 0.078914
H79   H     H_    0.792135 0.168170 0.063241 0.078915
H80   H     H_    0.792135 0.831830 0.563236 0.078914
H81   H     H_    0.008039 0.708410 0.701467 0.060192
H82   H     H_    0.008033 0.291592 0.201471 0.060212
H83   H     H_    0.508036 0.208409 0.701466 0.060205
H84   H     H_    0.508039 0.791590 0.201461 0.060202
H85   H     H_    0.246418 0.628522 0.124904 0.140691
H86   H     H_    0.246418 0.371477 0.624918 0.140690
H87   H     H_    0.746418 0.128523 0.124913 0.140691
H88   H     H_    0.746418 0.871477 0.624908 0.140690
H89   H     H_    0.119236 0.596618 0.061974 0.154836
H90   H     H_    0.119236 0.403382 0.561973 0.154838
H91   H     H_    0.619236 0.096618 0.061973 0.154837
H92   H     H_    0.619236 0.903382 0.561973 0.154837
H93   H     H_    0.833852 0.203561 0.057243 0.078578
H94   H     H_    0.833852 0.796438 0.557239 0.078577
H95   H     H_    0.333852 0.703561 0.057233 0.078577
H96   H     H_    0.333852 0.296438 0.557248 0.078577
H97   H     H_    0.964208 0.437416 0.844916 0.074736
H98   H     H_    0.964209 0.562585 0.344920 0.074732
H99   H     H_    0.464209 0.937416 0.844919 0.074733
H100  H     H_    0.464208 0.062584 0.344918 0.074734
H101  H     H_    0.036094 0.562857 0.341645 0.068469
H102  H     H_    0.036095 0.437144 0.841651 0.068476
H103  H     H_    0.536094 0.062856 0.341649 0.068474
H104  H     H_    0.536094 0.937143 0.841648 0.068471
H105  H     H_    0.013331 0.646026 0.195956 -0.010925
H106  H     H_    0.013372 0.353998 0.695821 -0.010800
H107  H     H_    0.513358 0.146009 0.195858 -0.010839
H108  H     H_    0.513343 0.853981 0.695904 -0.010882
H109  H     H_    0.971920 0.671430 0.199184 0.013654
H110  H     H_    0.971966 0.328597 0.699300 0.013576
H111  H     H_    0.471952 0.171411 0.199257 0.013595
H112  H     H_    0.471935 0.828579 0.699212 0.013621
H113  H     H_    0.996468 0.708816 0.985686 0.050714
H114  H     H_    0.996469 0.291189 0.485729 0.050781
H115  H     H_    0.496470 0.208812 0.985711 0.050758
H116  H     H_    0.496468 0.791186 0.485694 0.050733
H117  H     H_    0.904249 0.515458 0.281597 -0.036496
H118  H     H_    0.904249 0.484542 0.781597 -0.036496
H119  H     H_    0.404248 0.015458 0.281597 -0.036496
H120  H     H_    0.404249 0.984542 0.781597 -0.036496
N1    N     N_R   0.859211 0.346298 0.951132 -0.430821
N2    N     N_R   0.859210 0.653701 0.451132 -0.430820
N3    N     N_R   0.359211 0.846298 0.951132 -0.430820
N4    N     N_R   0.359210 0.153702 0.451131 -0.430821
N5    N     N_R   0.143529 0.652746 0.249797 -0.425988
N6    N     N_R   0.143528 0.347254 0.749793 -0.425987
N7    N     N_R   0.643528 0.152746 0.249794 -0.425987
N8    N     N_R   0.643528 0.847254 0.749796 -0.425988
O1    O     O_2   0.072110 0.546320 0.923350 -0.439468
O2    O     O_2   0.072110 0.453680 0.423350 -0.439471
O3    O     O_2   0.572110 0.046320 0.923350 -0.439469
O4    O     O_2   0.572110 0.953680 0.423350 -0.439469
O5    O     O_3   0.885464 0.509909 0.577417 -0.670181
O6    O     O_3   0.885464 0.490091 0.077417 -0.670182
O7    O     O_3   0.385464 0.009909 0.577417 -0.670182
O8    O     O_3   0.385464 0.990091 0.077417 -0.670181
O9    O     O_3   0.978261 0.644746 0.990211 -0.578973
O10   O     O_3   0.978260 0.355253 0.490214 -0.578998
O11   O     O_3   0.478260 0.144747 0.990212 -0.578994
O12   O     O_3   0.478261 0.855254 0.490210 -0.578988
O13   O     O_3   0.958050 0.483830 0.034350 -0.448435
O14   O     O_3   0.958050 0.516170 0.534350 -0.448435
O15   O     O_3   0.458050 0.983830 0.034350 -0.448435
O16   O     O_3   0.458050 0.016170 0.534350 -0.448435
O17   O     O_2   0.815647 0.386683 0.959205 -0.596868
O18   O     O_2   0.815646 0.613316 0.459209 -0.596868
O19   O     O_2   0.315647 0.886684 0.959212 -0.596868
O20   O     O_2   0.315646 0.113316 0.459201 -0.596867
O21   O     O_2   0.106240 0.697153 0.294056 -0.572310
O22   O     O_2   0.106237 0.302847 0.794036 -0.572326
O23   O     O_2   0.606238 0.197153 0.294043 -0.572319
O24   O     O_2   0.606239 0.802847 0.794050 -0.572313
O25   O     O_2   0.899799 0.303117 0.951080 -0.535527
O26   O     O_2   0.899799 0.696882 0.451077 -0.535539
O27   O     O_2   0.399799 0.803117 0.951073 -0.535530
O28   O     O_2   0.399799 0.196883 0.451082 -0.535528
O29   O     O_2   0.184840 0.611685 0.207648 -0.564173
O30   O     O_2   0.184840 0.388315 0.707655 -0.564172
O31   O     O_2   0.684840 0.111685 0.207653 -0.564172
O32   O     O_2   0.684840 0.888315 0.707650 -0.564172
O33   O     O_3   0.042000 0.516250 0.155330 -0.503856
O34   O     O_3   0.042000 0.483750 0.655330 -0.503855
O35   O     O_3   0.542000 0.016250 0.155330 -0.503855
O36   O     O_3   0.542000 0.983750 0.655330 -0.503855
O37   O     O_3   0.012540 0.574900 0.645500 -0.482374
O38   O     O_3   0.012540 0.425100 0.145500 -0.482374
O39   O     O_3   0.512540 0.074900 0.645500 -0.482375
O40   O     O_3   0.512540 0.925100 0.145500 -0.482376
O41   O     O_2   0.077416 0.599245 0.752225 -0.430808
O42   O     O_2   0.077416 0.400754 0.252232 -0.430805
O43   O     O_2   0.577416 0.099245 0.752229 -0.430806
O44   O     O_2   0.577417 0.900755 0.252226 -0.430808
O45   O     O_3   0.114159 0.509036 0.111682 -0.591857
O46   O     O_3   0.114159 0.490964 0.611682 -0.591855
O47   O     O_3   0.614159 0.009036 0.111682 -0.591855
O48   O     O_3   0.614159 0.990964 0.611682 -0.591856
O49   O     O_3   0.024673 0.643546 0.702133 -0.552179
O50   O     O_3   0.024671 0.356454 0.202132 -0.552186
O51   O     O_3   0.524672 0.143546 0.702133 -0.552185
O52   O     O_3   0.524673 0.856454 0.202134 -0.552182
O53   O     O_2   0.928110 0.546600 0.766510 -0.407467
O54   O     O_2   0.928110 0.453400 0.266510 -0.407467
O55   O     O_2   0.428110 0.046600 0.766510 -0.407467
O56   O     O_2   0.428110 0.953400 0.266510 -0.407467
O57   O     O_3   0.987780 0.574950 0.044470 -0.417983
O58   O     O_3   0.987780 0.425050 0.544470 -0.418008
O59   O     O_3   0.487780 0.074950 0.044470 -0.418000
O60   O     O_3   0.487780 0.925050 0.544470 -0.417992
O61   O     O_2   0.924201 0.601675 0.936226 -0.431838
O62   O     O_2   0.924201 0.398325 0.436228 -0.431826
O63   O     O_2   0.424201 0.101675 0.936227 -0.431829
O64   O     O_2   0.424201 0.898325 0.436226 -0.431834
P1    P     P_3+3 0.075650 0.535480 0.098240 1.035241
P2    P     P_3+3 0.075650 0.464520 0.598240 1.035238
P3    P     P_3+3 0.575650 0.035480 0.098240 1.035240
P4    P     P_3+3 0.575650 0.964520 0.598240 1.035240
P5    P     P_3+3 0.924520 0.535770 0.591580 1.047363
P6    P     P_3+3 0.924520 0.464230 0.091580 1.047362
P7    P     P_3+3 0.424520 0.035770 0.591580 1.047363
P8    P     P_3+3 0.424520 0.964230 0.091580 1.047363
P9    P     P_3+3 0.956710 0.608387 0.059735 1.062062
P10   P     P_3+3 0.956710 0.391613 0.559735 1.062037
P11   P     P_3+3 0.456710 0.108387 0.059735 1.062043
P12   P     P_3+3 0.456710 0.891613 0.559734 1.062050
P13   P     P_3+3 0.044957 0.393037 0.130194 1.007501
P14   P     P_3+3 0.044957 0.606963 0.630191 1.007499
P15   P     P_3+3 0.544957 0.893037 0.130192 1.007497
P16   P     P_3+3 0.544957 0.106963 0.630193 1.007499
Br1   Br    Br    0.158210 0.448194 0.271961 -0.482944
Br2   Br    Br    0.158210 0.551806 0.771960 -0.482944
Br3   Br    Br    0.658210 0.948194 0.271960 -0.482943
Br4   Br    Br    0.658210 0.051806 0.771961 -0.482944
F1    F     F_    0.973889 0.710918 0.501936 -0.690007
F2    F     F_    0.973887 0.289083 0.001930 -0.689989
F3    F     F_    0.473887 0.210917 0.501934 -0.689993
F4    F     F_    0.473888 0.789083 0.001937 -0.689999
Br5   Br    Br    0.059578 0.682057 0.979721 -0.534659
Br6   Br    Br    0.059587 0.317929 0.479643 -0.534697
Br7   Br    Br    0.559585 0.182066 0.979669 -0.534687
Br8   Br    Br    0.559581 0.817938 0.479697 -0.534674
F5    F     F_    0.916967 0.539713 0.078775 -0.701897
F6    F     F_    0.916967 0.460287 0.578774 -0.701895
F7    F     F_    0.416967 0.039713 0.078775 -0.701896
F8    F     F_    0.416967 0.960287 0.578775 -0.701896

loop_
_geom_bond_atom_site_label_1
_geom_bond_atom_site_label_2
_ccdc_geom_bond_type
C51   H99   S    
C83   C87   A    
C52   H100  S    
C29   C41   A    
C31   C43   A    
C24   H48   S    
C161  C165  S    
C12   H72   S    
C136  H120  S    
C136  C160  S    
C3    F3    S    
C109  P1    S    
C48   H112  S    
C111  P3    S    
C165  H25   S    
O61   P9    D    
C29   C125  A    
C100  O24   D    
O63   P11   D    
C58   C66   A    
C162  H22   S    
C145  C149  A    
Ba2   O58   S    
C36   C176  A    
C53   H101  S    
C26   N2    S    
C1    H37   S    
C148  C152  A    
C138  H66   S    
C55   C107  S    
C95   N7    Am   
C147  C151  A    
C4    H84   S    
C76   C80   A    
C162  O46   S    
C74   H58   S    
C142  H74   S    
C1    H81   S    
O4    P4    D    
C126  C130  A    
C93   O29   D    
C104  C120  D    
C21   C25   S    
C56   C108  S    
C131  C155  A    
C172  H36   S    
C23   C27   S    
Ba4   O56   S    
C24   C28   S    
C82   C86   A    
C163  C167  S    
C2    C170  S    
C146  C150  A    
C8    N4    Am   
C169  H33   S    
C162  H18   S    
C47   H111  S    
C141  C153  A    
C74   C78   A    
C32   C36   A    
C64   C68   A    
C136  F8    S    
O53   P5    D    
O34   P2    S    
C123  C139  A    
C19   C51   D    
C124  C140  A    
C135  F7    S    
C61   C131  A    
C175  O19   D    
C125  C129  A    
C133  F5    S    
C59   C67   A    
O2    P2    D    
C99   O23   D    
C59   C71   A    
C158  H10   S    
C9    H69   S    
C171  H3    S    
C47   H107  S    
C17   P6    S    
C172  H4    S    
C117  N5    S    
C54   C106  S    
C80   C84   A    
C160  H8    S    
C6    N2    Am   
C113  H89   S    
C166  H26   S    
C115  C119  S    
C20   C52   D    
C115  H91   S    
C176  N4    Am   
C116  H92   S    
C174  N2    Am   
C157  H9    S    
C27   N3    S    
C133  C157  S    
C94   O30   D    
C23   H47   S    
C42   C142  A    
C143  H75   S    
C61   C145  A    
C123  C127  A    
C45   O9    S    
O5    P5    S    
C70   H62   S    
C164  H24   S    
O64   P12   D    
C69   C73   A    
O55   P7    D    
C45   C89   S    
C71   C75   A    
O11   P11   S    
C47   C91   S    
C22   C26   S    
C164  O48   S    
C28   N4    S    
C133  H117  S    
O50   P13   S    
C16   C52   S    
O15   P8    S    
C170  H2    S    
Ba1   O14   S    
C174  O18   D    
C147  H79   S    
C18   C50   D    
O3    P3    D    
C5    N1    Am   
C79   C99   A    
C41   C141  A    
C32   C128  A    
C144  C156  A    
C46   O10   S    
O1    P1    D    
C97   N5    Am   
C18   P5    S    
C114  C118  S    
C21   H45   S    
O8    P8    S    
Ba1   O37   S    
C85   C149  A    
Ba3   O15   S    
C121  C137  A    
C166  H30   S    
C137  H65   S    
C3    H83   S    
C30   C42   A    
C134  H118  S    
C167  Br3   S    
O56   P8    D    
C98   O22   D    
C43   C143  A    
O42   P13   D    
C157  H13   S    
C107  P16   S    
O40   P15   S    
C105  P14   S    
O10   P10   S    
C46   C90   S    
C53   C109  D    
O12   P12   S    
C136  O7    S    
C91   H43   S    
C112  C116  D    
C53   C105  S    
Ba4   O40   S    
C121  C125  A    
C152  H88   S    
C128  C132  A    
Ba2   O13   S    
C102  C118  D    
C78   C98   A    
C89   H113  S    
C2    H82   S    
O13   P6    S    
C145  H77   S    
C109  C113  D    
O57   P9    S    
C130  C154  A    
C144  H76   S    
C111  C115  D    
C14   P9    S    
O59   P11   S    
C80   C100  A    
C120  N8    S    
C167  H27   S    
Ba3   Ba4   S    
C65   C81   A    
Ba2   O38   S    
C101  C105  S    
C102  H54   S    
C1    C169  S    
C96   O32   D    
C72   C76   A    
C48   H108  S    
C35   C175  A    
C160  H16   S    
C11   C27   D    
C142  C154  A    
C12   C28   D    
C33   C173  A    
C62   C66   A    
C93   N5    Am   
C9    C13   S    
Ba3   O55   S    
C135  C159  S    
Ba4   O60   S    
C31   C127  A    
C169  O49   S    
Ba3   P7    S    
C32   C44   A    
C129  C153  A    
O45   P1    S    
C56   C112  D    
O47   P3    S    
C132  C156  A    
C36   C40   A    
C50   H98   S    
C54   C110  D    
C163  H19   S    
O9    P9    S    
C87   C95   A    
C160  H12   S    
C77   C81   A    
C114  H90   S    
C2    F2    S    
C79   C83   A    
C104  H56   S    
C5    C41   A    
C7    C43   A    
C103  C119  D    
C38   C138  A    
C8    C44   A    
C5    O25   D    
C49   H97   S    
Ba4   P8    S    
C110  P2    S    
C7    O27   D    
C9    C25   D    
C62   C146  A    
C153  H93   S    
O62   P10   D    
C39   H51   S    
C94   N6    Am   
C122  C126  A    
C57   C123  A    
C161  H21   S    
C17   C21   D    
C2    H38   S    
O38   P13   S    
O52   P15   S    
Ba4   O15   S    
C19   P8    S    
C156  H96   S    
C163  H23   S    
C86   C150  A    
O51   P16   S    
C4    F4    S    
O49   P14   S    
C161  O45   S    
C169  H1    S    
C73   H57   S    
C170  O50   S    
C141  H73   S    
C103  C107  S    
C8    O28   D    
O46   P2    S    
C98   N6    Am   
O6    P6    S    
C20   C24   D    
C99   N7    Am   
C133  O6    S    
C81   C85   A    
Ba4   P4    S    
C97   O21   D    
C57   C69   A    
C78   C82   A    
C122  C138  A    
C29   C33   A    
C104  C108  S    
Ba1   O53   S    
C170  H34   S    
C171  H35   S    
C31   C35   A    
O35   P3    S    
C64   C148  A    
C161  H17   S    
C159  H15   S    
C166  Br2   S    
O54   P6    D    
C4    C172  S    
C6    O26   D    
Ba3   O39   S    
Ba4   O35   S    
O33   P1    S    
C89   Br5   S    
O44   P15   D    
C67   C83   A    
C38   H50   S    
C60   C122  A    
O43   P16   D    
C171  O51   S    
O41   P14   D    
C13   C49   S    
C134  O5    S    
C106  P13   S    
C15   C51   S    
Ba1   O1    S    
C164  H20   S    
C63   C129  A    
Ba3   O3    S    
Ba1   O13   S    
C10   H70   S    
C54   H102  S    
C90   H114  S    
C64   C130  A    
C95   O31   D    
Ba4   O4    S    
C75   C79   A    
C22   H46   S    
C61   C65   A    
C139  H67   S    
C63   C67   A    
C90   Br6   S    
C164  C168  S    
C69   H61   S    
C18   C22   D    
C58   C70   A    
Ba2   O54   S    
C20   P7    S    
C25   N1    S    
C58   C124  A    
C34   C174  A    
C92   Br8   S    
C10   C14   S    
C45   H109  S    
C75   H59   S    
C143  C155  A    
C163  O47   S    
Ba1   P1    S    
C135  H119  S    
C45   H105  S    
C100  N8    Am   
Ba3   P3    S    
C119  N7    S    
C72   H64   S    
C34   C38   A    
C127  C131  A    
C91   H115  S    
O7    P7    S    
C159  H7    S    
Ba1   Ba2   S    
Ba1   O34   S    
C113  C117  S    
Ba3   O36   S    
C11   C15   S    
C84   C88   A    
Ba2   O14   S    
C3    C171  S    
C6    C42   A    
C56   H104  S    
C1    F1    S    
C73   C77   A    
O36   P4    S    
C91   Br7   S    
C70   C74   A    
C12   C16   S    
C3    H39   S    
C60   C72   A    
C60   C68   A    
C46   H106  S    
C33   C37   A    
C134  F6    S    
C124  C128  A    
O16   P7    S    
C68   C84   A    
C154  H94   S    
C108  P15   S    
C35   C39   A    
Ba1   P5    S    
C63   C147  A    
C172  O52   S    
C168  H28   S    
C168  H32   S    
C134  C158  S    
C158  H6    S    
C173  O17   D    
O39   P16   S    
C92   H44   S    
C10   C26   D    
O37   P14   S    
C85   C93   A    
C92   H116  S    
C37   C137  A    
C4    H40   S    
C167  H31   S    
C148  H80   S    
C7    N3    Am   
Ba3   O16   S    
C40   C140  A    
C165  H29   S    
C158  H14   S    
C173  N1    Am   
Ba2   P2    S    
O14   P5    S    
C101  C117  D    
C88   C152  A    
C59   C121  A    
C175  N3    Am   
C110  C114  D    
C55   H103  S    
O58   P10   S    
O48   P4    S    
C37   H49   S    
C19   C23   D    
C140  H68   S    
C48   O12   S    
C62   C132  A    
C13   P10   S    
C46   H110  S    
C87   C151  A    
C66   C82   A    
C15   P12   S    
C88   C96   A    
Ba2   O33   S    
C90   H42   S    
C39   C139  A    
C102  C106  S    
C57   C65   A    
C103  H55   S    
Ba1   O57   S    
C30   C34   A    
C101  H53   S    
Ba3   O59   S    
C150  H86   S    
C168  Br4   S    
C159  H11   S    
C176  O20   D    
C157  H5    S    
C155  H95   S    
C76   H60   S    
C165  Br1   S    
C40   H52   S    
C146  H78   S    
C17   C49   D    
C11   H71   S    
C44   C144  A    
C118  N6    S    
C162  C166  S    
C48   C92   S    
Ba2   P6    S    
C149  H85   S    
O60   P12   S    
C71   H63   S    
C14   C50   S    
C135  O8    S    
C96   N8    Am   
C112  P4    S    
C47   O11   S    
C30   C126  A    
C16   P11   S    
C55   C111  D    
Ba2   O2    S    
Ba4   O16   S    
C77   C97   A    
C89   H41   S    
C86   C94   A    
C151  H87   S    
C116  C120  S    
