data_mof_unit_39330.cif
_audit_creation_date              2012-12-10T17:47:50-0500
_audit_creation_method            fapswitch 2.2
_symmetry_space_group_name_H-M    P1
_symmetry_Int_Tables_number       1
_space_group_crystal_system       triclinic
_cell_length_a                    14.726132
_cell_length_b                    14.573726
_cell_length_c                    14.344446
_cell_angle_alpha                 77.647633
_cell_angle_beta                  102.754585
_cell_angle_gamma                 115.287735
_cell_volume                      2689.75030913

loop_
_atom_site_label
_atom_site_type_symbol
_atom_type_description
_atom_site_fract_x
_atom_site_fract_y
_atom_site_fract_z
_atom_type_partial_charge
C1    C     C_R   0.880038 0.311554 0.514331 0.784558
C2    C     C_R   0.506681 0.104189 0.584310 0.432462
C3    C     C_R   0.617301 0.890786 0.556492 -0.317956
C4    C     C_R   0.402898 0.077582 0.577630 -0.273631
C5    C     C_R   0.718682 0.669886 0.343824 -0.291854
C6    C     C_R   0.287428 0.339988 0.664384 -0.312860
C7    C     C_R   0.798224 0.638052 0.369146 0.059569
C8    C     C_R   0.203163 0.363862 0.632456 0.057935
C9    C     C_R   0.716015 0.512575 0.492708 0.045576
C10   C     C_R   0.286486 0.492186 0.511198 0.061833
C11   C     C_R   0.632714 0.542258 0.471472 -0.053903
C12   C     C_R   0.120192 0.688269 0.486627 0.785622
C13   C     C_R   0.375138 0.471408 0.539803 -0.046950
C14   C     C_R   0.635165 0.622318 0.394343 0.063058
C15   C     C_R   0.374694 0.394411 0.619567 0.034449
C16   C     C_R   0.000106 0.499764 0.668904 0.811135
C17   C     C_R   0.999687 0.499968 0.331097 0.813716
C18   C     C_R   0.547631 0.495024 0.523085 -0.022582
C19   C     C_R   0.463137 0.523772 0.492384 0.007566
C20   C     C_R   0.469273 0.603744 0.415294 -0.242730
C21   C     C_R   0.544926 0.420835 0.604962 -0.249560
C22   C     C_R   0.554841 0.654559 0.368828 0.421172
C23   C     C_R   0.644775 0.068777 0.546352 0.097928
C24   C     C_R   0.461564 0.373222 0.654198 0.456863
C25   C     C_1   0.000186 0.499431 0.771331 -0.205836
C26   C     C_1   0.999054 0.499807 0.228620 -0.200926
C27   C     C_1   0.999816 0.499330 0.856688 -0.021068
C28   C     C_1   0.998812 0.499576 0.143180 -0.009945
C29   C     C_1   0.999201 0.499254 0.957230 -0.001295
C30   C     C_1   0.998865 0.499331 0.042564 0.001180
C31   C     C_R   0.812944 0.201907 0.525670 -0.090750
C32   C     C_R   0.189597 0.795742 0.493405 -0.081917
C33   C     C_R   0.786160 0.023042 0.547058 -0.193644
C34   C     C_R   0.366572 0.913567 0.529242 0.086694
C35   C     C_R   0.228131 0.960586 0.538578 -0.169016
C36   C     C_R   0.851257 0.126452 0.536912 -0.185185
C37   C     C_R   0.157004 0.865610 0.513722 -0.187919
C38   C     C_R   0.709588 0.172383 0.527247 -0.197839
C39   C     C_R   0.293141 0.823524 0.494316 -0.206736
C40   C     C_3   0.427740 0.717955 0.653595 0.071266
C41   C     C_3   0.503405 0.675435 0.716241 -0.358471
C42   C     C_3   0.468902 0.621182 0.813442 -0.925841
C43   C     C_3   0.613342 0.165736 0.719904 0.079862
C44   C     C_3   0.717178 0.250589 0.746883 -0.339825
C45   C     C_R   0.682815 0.993818 0.550136 0.088737
C46   C     C_3   0.767650 0.221983 0.847121 -0.928889
C47   C     C_3   0.580032 0.822382 0.331238 0.041258
C48   C     C_3   0.588979 0.910299 0.248888 -0.331216
C49   C     C_3   0.614778 0.010082 0.286901 -0.901532
C50   C     C_3   0.486486 0.345069 0.819759 0.019184
C51   C     C_3   0.597984 0.372031 0.863040 -0.352255
C52   C     C_3   0.622987 0.412323 0.959365 -0.896636
C53   C     C_R   0.332565 0.984676 0.547600 0.076689
C54   C     C_R   0.541778 0.038115 0.556663 -0.119084
C55   C     C_R   0.472539 0.936061 0.544433 -0.114445
C56   C     C_R   0.513187 0.860731 0.552917 0.431762
Cu1   Cu    Cu3+1 0.081740 0.475690 0.523180 0.923030
Cu2   Cu    Cu3+1 0.918260 0.524310 0.476820 0.927329
H1    H     H_    0.646436 0.832655 0.561782 0.151717
H2    H     H_    0.201630 0.013819 0.554102 0.134272
H3    H     H_    0.280001 0.549959 0.452647 0.126848
H4    H     H_    0.719924 0.451377 0.548443 0.127762
H5    H     H_    0.136592 0.323223 0.668160 0.130835
H6    H     H_    0.863022 0.675440 0.330766 0.130806
H7    H     H_    0.723087 0.731675 0.285155 0.178589
H8    H     H_    0.284054 0.279644 0.724273 0.167598
H9    H     H_    0.351351 0.654298 0.646617 0.187092
H10   H     H_    0.421312 0.774967 0.690013 0.130590
H11   H     H_    0.510850 0.620362 0.678574 0.230098
H12   H     H_    0.377473 0.129822 0.596949 0.183210
H13   H     H_    0.579047 0.739135 0.728646 0.214238
H14   H     H_    0.459907 0.674543 0.852061 0.262259
H15   H     H_    0.526668 0.594156 0.858352 0.252572
H16   H     H_    0.395542 0.554050 0.803080 0.256454
H17   H     H_    0.623873 0.092501 0.730848 0.131085
H18   H     H_    0.561060 0.157413 0.769405 0.174079
H19   H     H_    0.767756 0.264449 0.693803 0.221062
H20   H     H_    0.708610 0.322946 0.744985 0.209197
H21   H     H_    0.718335 0.205644 0.902155 0.251216
H22   H     H_    0.840894 0.286388 0.865799 0.265993
H23   H     H_    0.409181 0.630255 0.389142 0.149492
H24   H     H_    0.782930 0.153344 0.848447 0.258501
H25   H     H_    0.653794 0.843007 0.380635 0.141470
H26   H     H_    0.518687 0.812561 0.370764 0.172069
H27   H     H_    0.649384 0.921007 0.207836 0.220986
H28   H     H_    0.515868 0.891120 0.199128 0.226181
H29   H     H_    0.555551 0.001098 0.328597 0.261176
H30   H     H_    0.618752 0.071984 0.225410 0.253927
H31   H     H_    0.689530 0.032724 0.333977 0.266933
H32   H     H_    0.438370 0.286750 0.872040 0.165255
H33   H     H_    0.468337 0.413782 0.810302 0.140785
H34   H     H_    0.607735 0.399263 0.634580 0.161793
H35   H     H_    0.613978 0.302318 0.874916 0.229763
H36   H     H_    0.647373 0.431152 0.812147 0.210154
H37   H     H_    0.609887 0.483530 0.949688 0.252964
H38   H     H_    0.704080 0.429783 0.988907 0.261032
H39   H     H_    0.575333 0.353956 0.011936 0.255276
H40   H     H_    0.314493 0.773135 0.467332 0.192029
H41   H     H_    0.679956 0.231068 0.511580 0.200936
H42   H     H_    0.077176 0.845657 0.513458 0.149769
H43   H     H_    0.930956 0.147290 0.535612 0.153989
H44   H     H_    0.816478 0.965947 0.552059 0.131721
N1    N     N_R   0.795420 0.560790 0.441960 -0.172315
N2    N     N_R   0.204580 0.439210 0.558040 -0.178866
O1    O     O_R   0.977910 0.338120 0.530560 -0.578417
O2    O     O_3   0.572689 0.192364 0.623940 -0.620008
O3    O     O_3   0.556527 0.731929 0.292993 -0.617319
O4    O     O_3   0.464304 0.301082 0.734020 -0.618410
O5    O     O_R   0.022090 0.661880 0.469440 -0.579714
O6    O     O_R   0.839850 0.379180 0.491410 -0.579269
O7    O     O_R   0.160150 0.620820 0.508590 -0.583824
O8    O     O_R   0.069040 0.479460 0.643530 -0.562881
O9    O     O_R   0.930960 0.520540 0.356470 -0.558256
O10   O     O_R   0.930990 0.520530 0.604380 -0.564431
O11   O     O_R   0.069010 0.479470 0.395620 -0.559427
O12   O     O_3   0.454107 0.756633 0.559658 -0.648776

loop_
_geom_bond_atom_site_label_1
_geom_bond_atom_site_label_2
_ccdc_geom_bond_type
Cu1   O1    S    
C55   C56   A    
C11   C18   A    
C40   C41   S    
C23   C45   A    
C4    C53   A    
C35   C53   A    
C18   C21   A    
C33   C45   A    
C41   C42   S    
C49   H29   S    
C19   C20   A    
C4    H12   S    
C17   O9    A    
Cu1   O11   S    
Cu1   O7    S    
C17   O11   A    
C17   C26   S    
C44   H19   S    
C35   C37   A    
C31   C36   A    
C46   H21   S    
C11   C14   A    
Cu1   O8    S    
C27   C29   S    
C22   O3    S    
Cu2   O5    S    
C52   H39   S    
C1    C31   S    
C33   C36   A    
C52   H37   S    
C18   C19   A    
C32   C39   A    
C6    C15   A    
C46   H24   S    
C50   H32   S    
C40   H9    S    
Cu2   O9    S    
C24   O4    S    
C47   H25   S    
C41   H13   S    
C34   C55   A    
C7    N1    A    
C20   H23   S    
C12   C32   S    
C50   O4    S    
C49   H30   S    
C12   O5    A    
C44   C46   S    
C43   H17   S    
C16   C25   S    
C42   H16   S    
C13   C19   A    
C34   C39   A    
C44   H20   S    
C5    H7    S    
C2    C54   A    
C5    C7    A    
C39   H40   S    
C6    C8    A    
C51   H36   S    
C32   C37   A    
C2    O2    S    
C51   C52   S    
C35   H2    S    
C43   O2    S    
C2    C4    A    
C43   C44   S    
C29   C30   T    
C1    O6    A    
C9    C11   A    
C3    C56   A    
C47   C48   S    
C9    N1    A    
C42   H14   S    
C50   C51   S    
C56   O12   S    
C47   H26   S    
C8    N2    A    
C5    C14   A    
C51   H35   S    
C15   C24   A    
C20   C22   A    
C47   O3    S    
C13   C15   A    
C48   H28   S    
C10   H3    S    
C16   O8    A    
C23   C54   A    
C41   H11   S    
C43   H18   S    
Cu1   N2    S    
C54   C55   A    
C48   C49   S    
C42   H15   S    
Cu2   O6    S    
C49   H31   S    
C38   H41   S    
C10   C13   A    
C16   O10   A    
C25   C27   T    
C23   C38   A    
C26   C28   T    
C9    H4    S    
C31   C38   A    
C14   C22   A    
C10   N2    A    
C46   H22   S    
Cu1   Cu2   S    
C40   O12   S    
C28   C30   S    
C3    C45   A    
C52   H38   S    
C37   H42   S    
C7    H6    S    
C8    H5    S    
C50   H33   S    
C6    H8    S    
C34   C53   A    
C40   H10   S    
C21   C24   A    
Cu2   O10   S    
C48   H27   S    
C36   H43   S    
Cu2   N1    S    
C12   O7    A    
C33   H44   S    
C1    O1    A    
C21   H34   S    
C3    H1    S    
