data_mof_unit_28414.cif
_audit_creation_date              2012-12-10T16:55:03-0500
_audit_creation_method            fapswitch 2.2
_symmetry_space_group_name_H-M    P1
_symmetry_Int_Tables_number       1
_space_group_crystal_system       triclinic
_cell_length_a                    9.756915
_cell_length_b                    10.884321
_cell_length_c                    15.833188
_cell_angle_alpha                 89.033879
_cell_angle_beta                  73.04606
_cell_angle_gamma                 90.299666
_cell_volume                      1608.04776926

loop_
_atom_site_label
_atom_site_type_symbol
_atom_type_description
_atom_site_fract_x
_atom_site_fract_y
_atom_site_fract_z
_atom_type_partial_charge
C1    C     C_R   0.999896 0.265434 0.499168 0.921599
C2    C     C_R   0.654544 0.478169 0.901555 0.012334
C3    C     C_R   0.740343 0.410008 0.943594 -0.080654
C4    C     C_R   0.510256 0.507042 0.949379 0.081837
C5    C     C_R   0.448563 0.445040 0.030777 0.094056
C6    C     C_R   0.525451 0.349110 0.056433 -0.181167
C7    C     C_R   0.673007 0.338844 0.019372 -0.080911
C8    C     C_R   0.428572 0.600114 0.922188 -0.043138
C9    C     C_R   0.278737 0.605896 0.963632 -0.109996
C10   C     C_R   0.219854 0.545423 0.046516 -0.074537
C11   C     C_R   0.312441 0.481553 0.085607 -0.044169
C12   C     C_R   0.915012 0.500513 0.671627 0.865916
C13   C     C_R   0.074065 0.555215 0.095381 0.634582
C14   C     C_R   0.030162 0.528002 0.185546 -0.178663
C15   C     C_R   0.272005 0.467628 0.179373 -0.088778
C16   C     C_2   0.918264 0.935433 0.452370 -0.136640
C17   C     C_2   0.012760 0.867136 0.480327 -0.431956
C18   C     C_2   0.925954 0.071178 0.452449 0.626135
C19   C     C_2   0.998622 0.132730 0.498923 -0.388979
C20   C     C_2   0.403294 0.429234 0.550678 -0.166082
C21   C     C_2   0.561570 0.412521 0.534513 0.760141
C22   C     C_R   0.003436 0.734427 0.493323 0.900634
C23   C     C_R   0.084122 0.496494 0.328207 0.846670
C24   C     C_R   0.860724 0.491000 0.768965 -0.292075
C25   C     C_R   0.129859 0.494678 0.229996 -0.195989
C26   C     C_R   0.889735 0.410443 0.905749 -0.221471
C27   C     C_R   0.949847 0.455579 0.820097 0.589340
C28   C     C_R   0.712442 0.503999 0.810906 0.514177
Cu1   Cu    Cu3+1 0.138640 0.500020 0.499980 1.082094
Cu2   Cu    Cu3+1 0.861360 0.499980 0.500020 1.114840
H1    H     H_    0.105012 0.909047 0.493543 0.182249
H2    H     H_    0.057897 0.087768 0.538472 0.130030
H3    H     H_    0.612511 0.585129 0.497096 0.149540
H4    H     H_    0.918975 0.542977 0.221673 0.208545
H5    H     H_    0.960169 0.372492 0.940949 0.206143
H6    H     H_    0.471866 0.285014 0.108785 0.174134
N1    N     N_2   0.346430 0.498660 0.500980 -0.297990
N2    N     N_2   0.652550 0.498630 0.501000 -0.298326
O1    O     O_R   0.117050 0.321960 0.499980 -0.547321
O2    O     O_R   0.882890 0.321920 0.500020 -0.473173
O3    O     O_R   0.052910 0.500040 0.629810 -0.540924
O4    O     O_R   0.818750 0.499990 0.629840 -0.510541
O5    O     O_R   0.117110 0.678080 0.499980 -0.546464
O6    O     O_R   0.882950 0.678040 0.500020 -0.583287
O7    O     O_R   0.181250 0.500010 0.370160 -0.575099
O8    O     O_R   0.947090 0.499960 0.370190 -0.555178
C29   C     C_2   0.750673 0.247574 0.058681 0.906987
O9    O     O_2   0.730247 0.244268 0.138528 -0.479536
O10   O     O_R   0.843588 0.162463 0.006726 -0.698807
H7    H     H_    0.842517 0.164157 0.942929 0.300082
F1    F     F_    0.973273 0.593807 0.057498 -0.641498
C30   C     C_2   0.809179 0.879763 0.415285 0.998843
O11   O     O_2   0.687301 0.919910 0.435692 -0.510144
O12   O     O_R   0.847307 0.785035 0.354444 -0.744692
H8    H     H_    0.763870 0.755162 0.333974 0.336236
F2    F     F_    0.855716 0.134943 0.403112 -0.578524
C31   C     C_2   0.316087 0.366443 0.632584 1.071365
O13   O     O_2   0.352400 0.376348 0.699913 -0.475166
O14   O     O_R   0.203435 0.287255 0.632625 -0.729193
H9    H     H_    0.157848 0.246566 0.692403 0.336216
C32   C     C_2   0.434270 0.547824 0.418798 1.000663
O15   O     O_2   0.529193 0.486271 0.371029 -0.603934
O16   O     O_R   0.407300 0.665632 0.391541 -0.717619
H10   H     H_    0.475784 0.690976 0.332242 0.343653
F3    F     F_    0.607736 0.305829 0.562089 -0.592846
C33   C     C_2   0.385534 0.444827 0.222548 0.905301
O17   O     O_2   0.377400 0.355687 0.271950 -0.527239
O18   O     O_R   0.509278 0.518653 0.197883 -0.727389
H11   H     H_    0.593465 0.479737 0.212900 0.383040
C34   C     C_2   0.191102 0.693242 0.929039 1.004914
O19   O     O_2   0.170658 0.675490 0.857642 -0.475284
O20   O     O_R   0.132870 0.795933 0.978123 -0.703269
H12   H     H_    0.075232 0.848573 0.947738 0.362758
F4    F     F_    0.093670 0.454105 0.785568 -0.604246
F5    F     F_    0.621146 0.526140 0.762064 -0.612562
C35   C     C_2   0.501904 0.706397 0.865879 0.926776
O21   O     O_2   0.606108 0.754549 0.880428 -0.574137
O22   O     O_R   0.453713 0.750475 0.796215 -0.680840
H13   H     H_    0.513537 0.822176 0.763077 0.348601

loop_
_geom_bond_atom_site_label_1
_geom_bond_atom_site_label_2
_ccdc_geom_bond_type
C8    C9    A    
C33   O18   S    
C23   O7    A    
C24   C27   A    
C4    C8    A    
C29   O10   S    
C26   C27   A    
Cu1   Cu2   S    
C35   O22   S    
C5    C11   A    
C3    C7    A    
C5    C6    A    
C31   O14   S    
C8    C35   S    
Cu2   N2    S    
C18   C19   D    
C32   O16   S    
C12   O4    A    
C1    O2    A    
C13   F1    S    
C11   C15   A    
C22   O6    A    
C21   N2    D    
C22   O5    A    
O18   H11   S    
C34   O19   D    
C27   F4    S    
C9    C10   A    
C18   F2    S    
C21   F3    S    
C33   O17   D    
O14   H9    S    
C23   O8    A    
C13   C14   A    
Cu1   O5    S    
Cu2   O6    S    
C19   H2    S    
C30   O12   S    
C1    C19   S    
C34   O20   S    
C16   C30   S    
C9    C34   S    
O22   H13   S    
O20   H12   S    
C15   C33   S    
Cu1   O7    S    
C7    C29   S    
C2    C4    A    
C12   O3    A    
C29   O9    D    
Cu1   O1    S    
Cu2   O2    S    
C35   O21   D    
C17   H1    S    
C30   O11   D    
O12   H8    S    
Cu1   O3    S    
Cu2   O8    S    
C3    C26   A    
C24   C28   A    
C4    C5    A    
C10   C13   A    
C14   H4    S    
N1    C32   S    
C6    C7    A    
C12   C24   S    
C17   C22   S    
C2    C3    A    
C20   N1    D    
C31   O13   D    
C16   C17   D    
C6    H6    S    
C23   C25   S    
C14   C25   A    
C32   O15   D    
C15   C25   A    
C10   C11   A    
C1    O1    A    
O16   H10   S    
C26   H5    S    
C20   C21   S    
C16   C18   S    
O10   H7    S    
Cu1   N1    S    
Cu2   O4    S    
H3    N2    S    
C2    C28   A    
C20   C31   S    
C28   F5    S    
