data_mof_unit_36074.cif
_audit_creation_date              2012-12-10T17:30:19-0500
_audit_creation_method            fapswitch 2.2
_symmetry_space_group_name_H-M    P1
_symmetry_Int_Tables_number       1
_space_group_crystal_system       triclinic
_cell_length_a                    11.964117
_cell_length_b                    12.897293
_cell_length_c                    15.013905
_cell_angle_alpha                 89.913308
_cell_angle_beta                  85.595251
_cell_angle_gamma                 93.46421
_cell_volume                      2305.60894458

loop_
_atom_site_label
_atom_site_type_symbol
_atom_type_description
_atom_site_fract_x
_atom_site_fract_y
_atom_site_fract_z
_atom_type_partial_charge
C1    C     C_R   0.522241 0.700505 0.497845 0.904572
C2    C     C_R   0.359620 0.137666 0.493053 -0.240441
C3    C     C_R   0.441416 0.867200 0.487066 -0.221920
C4    C     C_R   0.558584 0.132800 0.512934 -0.221921
C5    C     C_R   0.446712 0.973882 0.495065 0.088250
C6    C     C_R   0.553288 0.026118 0.504936 0.088249
C7    C     C_R   0.957855 0.421519 0.402595 0.129279
C8    C     C_R   0.042145 0.578481 0.597405 0.129280
C9    C     C_R   0.840455 0.425872 0.414858 -0.042572
C10   C     C_R   0.159546 0.574128 0.585142 -0.042569
C11   C     C_R   0.855966 0.531779 0.542663 -0.051839
C12   C     C_R   0.477759 0.299495 0.502155 0.904572
C13   C     C_R   0.144034 0.468220 0.457337 -0.051840
C14   C     C_R   0.974182 0.527810 0.535701 0.005539
C15   C     C_R   0.025818 0.472189 0.464300 0.005541
C16   C     C_R   0.499716 0.500185 0.673476 0.897044
C17   C     C_R   0.500284 0.499815 0.326524 0.897043
C18   C     C_R   0.599750 0.481501 0.178932 -0.241120
C19   C     C_R   0.400252 0.518507 0.821067 -0.241110
C20   C     C_R   0.500889 0.499884 0.230632 -0.073614
C21   C     C_R   0.499112 0.500121 0.769368 -0.073623
C22   C     C_R   0.402355 0.518342 0.190998 -0.228438
C23   C     C_R   0.299289 0.537375 0.967020 0.217069
C24   C     C_R   0.597648 0.481667 0.809001 -0.228436
C25   C     C_R   0.401534 0.518634 0.099081 0.085872
C26   C     C_R   0.598470 0.481379 0.900919 0.085865
C27   C     C_R   0.500847 0.500207 0.046258 0.027270
C28   C     C_R   0.499158 0.499808 0.953742 0.027262
C29   C     C_R   0.601496 0.481805 0.086188 0.052399
C30   C     C_R   0.398509 0.518210 0.913811 0.052420
C31   C     C_R   0.302261 0.536792 0.059996 -0.253848
C32   C     C_R   0.697743 0.463224 0.940003 -0.253835
C33   C     C_3   0.045485 0.432814 0.252760 -0.819299
C34   C     C_R   0.700718 0.462643 0.032980 0.217085
C35   C     C_3   0.954519 0.567189 0.747241 -0.819307
C36   C     C_3   0.113422 0.614209 0.972827 -0.790857
C37   C     C_3   0.886618 0.385864 0.027155 -0.790873
C38   C     C_2   0.766416 0.020208 0.510362 0.895968
C39   C     C_2   0.233584 0.979792 0.489639 0.895968
C40   C     C_R   0.464092 0.188176 0.503216 -0.091200
C41   C     C_R   0.535908 0.811824 0.496785 -0.091199
C42   C     C_R   0.651389 0.970097 0.508272 -0.026292
C43   C     C_R   0.348611 0.029903 0.491729 -0.026292
C44   C     C_R   0.640380 0.862334 0.506947 -0.240441
H1    H     H_    0.674801 0.466094 0.211451 0.171712
H2    H     H_    0.713751 0.817864 0.511985 0.189613
H3    H     H_    0.185979 0.423797 0.405139 0.171890
H4    H     H_    0.814021 0.576202 0.594862 0.171889
H5    H     H_    0.212517 0.612595 0.631865 0.147252
H6    H     H_    0.787483 0.387406 0.368134 0.147251
H7    H     H_    0.956572 0.303756 0.309543 0.247780
H8    H     H_    0.973547 0.468772 0.224833 0.240055
H9    H     H_    0.088062 0.385593 0.200092 0.247252
H10   H     H_    0.106659 0.495091 0.272647 0.242549
H11   H     H_    0.043428 0.696247 0.690454 0.247779
H12   H     H_    0.325200 0.533911 0.788549 0.171725
H13   H     H_    0.026459 0.531235 0.775168 0.240057
H14   H     H_    0.893346 0.504911 0.727356 0.242551
H15   H     H_    0.911942 0.614411 0.799909 0.247253
H16   H     H_    0.166139 0.490896 0.891908 0.215914
H17   H     H_    0.051416 0.635668 0.925770 0.245647
H18   H     H_    0.152864 0.686914 0.999152 0.261307
H19   H     H_    0.068159 0.567881 0.028241 0.234542
H20   H     H_    0.833841 0.509112 0.108123 0.215909
H21   H     H_    0.948632 0.364407 0.074206 0.245645
H22   H     H_    0.931865 0.432230 0.971756 0.234546
H23   H     H_    0.326018 0.532800 0.231663 0.157568
H24   H     H_    0.847209 0.313157 0.000805 0.261300
H25   H     H_    0.881417 0.130654 0.460877 0.357073
H26   H     H_    0.118583 0.869345 0.539125 0.357073
H27   H     H_    0.673984 0.467207 0.768336 0.157569
H28   H     H_    0.227139 0.549138 0.102612 0.160373
H29   H     H_    0.772864 0.450876 0.897385 0.160372
H30   H     H_    0.636525 0.173951 0.527014 0.196854
H31   H     H_    0.363475 0.826049 0.472986 0.196853
H32   H     H_    0.286249 0.182136 0.488015 0.189613
N1    N     N_R   0.207800 0.519350 0.516680 -0.121586
N2    N     N_R   0.792200 0.480650 0.483320 -0.121586
N3    N     N_2   0.006217 0.366974 0.328299 -0.303617
N4    N     N_2   0.993783 0.633027 0.671700 -0.303618
N5    N     N_2   0.197657 0.554046 0.926125 -0.311409
N6    N     N_2   0.802351 0.445976 0.073874 -0.311390
O1    O     O_R   0.421700 0.658830 0.504450 -0.618467
O2    O     O_R   0.801040 0.104267 0.453791 -0.813883
O3    O     O_2   0.167432 0.015032 0.441048 -0.609884
O4    O     O_R   0.198961 0.895733 0.546211 -0.813885
O5    O     O_R   0.578300 0.341170 0.495550 -0.618467
O6    O     O_R   0.609310 0.646410 0.493750 -0.622719
O7    O     O_R   0.390690 0.353590 0.506250 -0.622719
O8    O     O_R   0.406180 0.506230 0.637500 -0.630838
O9    O     O_R   0.593820 0.493770 0.362500 -0.630839
O10   O     O_R   0.593800 0.493820 0.626800 -0.632540
O11   O     O_R   0.406200 0.506180 0.373200 -0.632540
O12   O     O_2   0.832567 0.984968 0.558954 -0.609884
Zn1   Zn    Zn3+2 0.374730 0.508290 0.507150 0.955723
Zn2   Zn    Zn3+2 0.625270 0.491710 0.492850 0.955723

loop_
_geom_bond_atom_site_label_1
_geom_bond_atom_site_label_2
_ccdc_geom_bond_type
C19   H12   S    
C25   C31   A    
O6    Zn2   S    
C26   C32   A    
C16   C21   S    
C27   C29   A    
C17   O9    A    
O8    Zn1   S    
C33   H8    S    
C16   O8    A    
C35   H14   S    
C1    O1    A    
C19   C21   A    
C24   C26   A    
C38   C42   S    
C5    C6    A    
C11   C14   A    
C37   H24   S    
C35   N4    S    
O10   Zn2   S    
C17   C20   S    
C35   H15   S    
C12   C40   S    
O9    Zn2   S    
C4    C40   A    
N2    Zn2   S    
C22   C25   A    
C37   H21   S    
C36   H19   S    
C3    H31   S    
C2    C43   A    
C4    H30   S    
C1    O6    A    
C7    C15   A    
C5    C43   A    
O11   Zn1   S    
O5    Zn2   S    
C11   H4    S    
C42   C44   A    
C36   H18   S    
C10   N1    A    
C44   H2    S    
C33   H9    S    
C13   N1    A    
C23   C30   A    
C12   O7    A    
C4    C6    A    
C32   H29   S    
C13   H3    S    
C33   N3    S    
C39   C43   S    
C29   C34   A    
N1    Zn1   S    
C32   C34   A    
O7    Zn1   S    
C11   N2    A    
H16   N5    S    
C36   N5    S    
O1    Zn1   S    
C37   H22   S    
C38   O12   D    
C18   C29   A    
H20   N6    S    
C1    C41   S    
C31   H28   S    
C20   C22   A    
C16   O10   A    
C13   C15   A    
C41   C44   A    
C37   N6    S    
C17   O11   A    
C39   O3    D    
C36   H17   S    
H26   O4    S    
C18   H1    S    
C2    H32   S    
C7    N3    S    
C33   H10   S    
C7    C9    A    
C3    C41   A    
C8    C14   A    
C23   N5    S    
C12   O5    A    
C38   O2    S    
C9    H6    S    
C3    C5    A    
C25   C27   A    
C26   C28   A    
C35   H13   S    
C28   C30   A    
H25   O2    S    
H11   N4    S    
C19   C30   A    
C18   C20   A    
C9    N2    A    
H7    N3    S    
C22   H23   S    
C2    C40   A    
C8    C10   A    
C6    C42   A    
C21   C24   A    
C27   C28   A    
C8    N4    S    
C14   C15   A    
C34   N6    S    
C39   O4    S    
C10   H5    S    
C24   H27   S    
C23   C31   A    
