data_mof_unit_33246.cif
_audit_creation_date              2012-12-10T17:10:58-0500
_audit_creation_method            fapswitch 2.2
_symmetry_space_group_name_H-M    P1
_symmetry_Int_Tables_number       1
_space_group_crystal_system       triclinic
_cell_length_a                    11.644398
_cell_length_b                    13.120131
_cell_length_c                    13.38321
_cell_angle_alpha                 91.265062
_cell_angle_beta                  76.30875
_cell_angle_gamma                 99.389337
_cell_volume                      1959.62976094

loop_
_atom_site_label
_atom_site_type_symbol
_atom_type_description
_atom_site_fract_x
_atom_site_fract_y
_atom_site_fract_z
_atom_type_partial_charge
C1    C     C_R   0.521358 0.700271 0.497839 0.813188
C2    C     C_R   0.433015 0.466703 0.980748 -0.004553
C3    C     C_R   0.463423 0.451369 0.872807 0.065557
C4    C     C_R   0.521545 0.458013 0.036735 0.067678
C5    C     C_R   0.622576 0.411939 0.990216 0.114641
C6    C     C_R   0.637393 0.378412 0.889338 -0.200749
C7    C     C_R   0.560247 0.399421 0.831020 -0.156963
C8    C     C_R   0.517473 0.500503 0.134341 -0.255199
C9    C     C_R   0.700785 0.438609 0.143909 -0.008717
C10   C     C_R   0.394504 0.485872 0.809963 -0.100938
C11   C     C_R   0.470557 0.186285 0.497561 -0.101791
C12   C     C_R   0.435476 0.492178 0.696567 0.797955
C13   C     C_R   0.532129 0.812648 0.496486 -0.095219
C14   C     C_R   0.631384 0.975178 0.543362 -0.180011
C15   C     C_R   0.620966 0.869459 0.538030 -0.186505
C16   C     C_R   0.453020 0.863049 0.457540 -0.093756
C17   C     C_R   0.453579 0.970281 0.473963 0.066252
C18   C     C_R   0.548434 0.027287 0.512869 0.082869
C19   C     C_R   0.558261 0.135154 0.522711 -0.045812
C20   C     C_R   0.373286 0.129159 0.466471 -0.247903
C21   C     C_R   0.363013 0.022905 0.455034 -0.031182
C22   C     C_R   0.946471 0.603214 0.589496 -0.129055
C23   C     C_R   0.479614 0.299279 0.499980 0.828031
C24   C     C_R   0.826983 0.591658 0.581074 0.060614
C25   C     C_R   0.856229 0.454949 0.463894 0.036477
C26   C     C_R   0.976924 0.463252 0.469217 0.055565
C27   C     C_R   0.023207 0.538292 0.532768 0.010436
C28   C     C_R   0.144675 0.545209 0.537183 0.056172
C29   C     C_R   0.171558 0.408583 0.419450 0.114399
C30   C     C_R   0.052032 0.398337 0.412422 -0.251609
C31   C     C_R   0.564237 0.501349 0.303381 0.792509
C32   C     C_R   0.710194 0.402429 0.043564 -0.158893
C33   C     C_R   0.599966 0.485026 0.191400 -0.142708
C34   C     C_R   0.287446 0.520897 0.856386 -0.229364
C35   C     C_R   0.246938 0.519292 0.962685 -0.092821
C36   C     C_R   0.316072 0.489366 0.026241 -0.003654
Cu1   Cu    Cu3+1 0.386470 0.492430 0.492410 0.964165
Cu2   Cu    Cu3+1 0.613530 0.507570 0.507590 0.958716
H1    H     H_    0.304170 0.167927 0.449947 0.165107
H2    H     H_    0.703224 0.014847 0.575285 0.147495
H3    H     H_    0.683130 0.831990 0.567098 0.164053
H4    H     H_    0.182956 0.601276 0.585673 0.132103
H5    H     H_    0.229027 0.358165 0.375723 0.114201
H6    H     H_    0.018709 0.340188 0.362941 0.159394
H7    H     H_    0.767752 0.641226 0.624147 0.133614
H8    H     H_    0.712169 0.340004 0.853692 0.168904
H9    H     H_    0.819695 0.397514 0.415569 0.124331
H10   H     H_    0.787607 0.368072 0.005876 0.171881
H11   H     H_    0.450426 0.547339 0.167633 0.169495
H12   H     H_    0.232872 0.547287 0.810145 0.165265
H13   H     H_    0.159102 0.539059 0.995258 0.187607
H14   H     H_    0.576326 0.372401 0.753356 0.223618
N1    N     N_R   0.215880 0.481050 0.481000 -0.186726
N2    N     N_R   0.784100 0.518950 0.519000 -0.191012
O1    O     O_R   0.419710 0.645650 0.494620 -0.578855
O2    O     O_R   0.611450 0.658430 0.507430 -0.589145
O3    O     O_R   0.357340 0.490460 0.641450 -0.581428
O4    O     O_R   0.549080 0.503250 0.654260 -0.585860
O5    O     O_R   0.388550 0.341570 0.492570 -0.598312
O6    O     O_R   0.580290 0.354350 0.505380 -0.574718
O7    O     O_R   0.450920 0.496750 0.345740 -0.572042
O8    O     O_R   0.642660 0.509540 0.358550 -0.605027
C37   C     C_2   0.799190 0.428839 0.194300 0.359881
H15   H     H_    0.825109 0.486416 0.247409 0.113256
O9    O     O_2   0.855833 0.357452 0.173969 -0.543626
C38   C     C_1   0.252830 0.971632 0.431783 0.251160
N3    N     N_1   0.164141 0.931405 0.413558 -0.253992
C39   C     C_1   0.382631 0.806330 0.391875 0.266170
N4    N     N_1   0.327341 0.760487 0.339284 -0.231578
C40   C     C_1   0.987395 0.682029 0.655912 0.205421
N5    N     N_1   0.020230 0.745212 0.709093 -0.265792
C41   C     C_2   0.255817 0.466233 0.136094 0.355262
H16   H     H_    0.287530 0.412823 0.179922 0.067724
O10   O     O_2   0.168713 0.505018 0.178401 -0.526422
C42   C     C_2   0.660799 0.192561 0.559407 0.377661
H17   H     H_    0.751190 0.197218 0.512062 0.055875
O11   O     O_2   0.644854 0.230459 0.644544 -0.562764

loop_
_geom_bond_atom_site_label_1
_geom_bond_atom_site_label_2
_ccdc_geom_bond_type
C37   O9    D    
C21   C38   S    
C31   O7    A    
C35   C36   A    
C4    C8    A    
C23   O5    A    
C11   C19   A    
C26   C27   A    
C29   C30   A    
C24   H7    S    
C1    O2    A    
C7    H14   S    
C34   C35   A    
C3    C7    A    
C5    C6    A    
C24   N2    A    
C18   C19   A    
C11   C23   S    
C14   C18   A    
C9    C32   A    
Cu2   O4    S    
C16   C17   A    
C31   C33   S    
C40   N5    T    
C16   C39   S    
C25   H9    S    
C5    C32   A    
C12   O4    A    
C38   N3    T    
C29   H5    S    
C9    C33   A    
C32   H10   S    
C31   O8    A    
C30   H6    S    
C23   O6    A    
C11   C20   A    
C34   H12   S    
C25   N2    A    
C15   H3    S    
C41   O10   D    
C20   H1    S    
C41   H16   S    
C25   C26   A    
C17   C21   A    
C2    C4    A    
C42   H17   S    
Cu1   Cu2   S    
Cu2   N2    S    
C17   C18   A    
C10   C34   A    
C42   O11   D    
Cu1   O5    S    
C10   C12   S    
Cu2   O6    S    
C12   O3    A    
C26   C30   A    
C22   C27   A    
C13   C15   A    
C35   H13   S    
C22   C24   A    
C1    C13   S    
C2    C36   A    
C6    H8    S    
C9    C37   S    
C39   N4    T    
C4    C5    A    
Cu1   O7    S    
C28   N1    A    
C6    C7    A    
C19   C42   S    
C2    C3    A    
C1    O1    A    
Cu1   N1    S    
C3    C10   A    
C29   N1    A    
C28   H4    S    
C8    C33   A    
C14   H2    S    
C37   H15   S    
Cu1   O1    S    
Cu2   O2    S    
C20   C21   A    
C13   C16   A    
C27   C28   A    
C14   C15   A    
C8    H11   S    
C22   C40   S    
Cu1   O3    S    
C36   C41   S    
Cu2   O8    S    
