data_mof_unit_9115.cif
_audit_creation_date              2012-12-11T14:07:41-0500
_audit_creation_method            fapswitch 2.2
_symmetry_space_group_name_H-M    P1
_symmetry_Int_Tables_number       1
_space_group_crystal_system       triclinic
_cell_length_a                    19.880778
_cell_length_b                    17.092583
_cell_length_c                    15.420254
_cell_angle_alpha                 90.183389
_cell_angle_beta                  53.397896
_cell_angle_gamma                 89.443361
_cell_volume                      4206.1990607

loop_
_atom_site_label
_atom_site_type_symbol
_atom_type_description
_atom_site_fract_x
_atom_site_fract_y
_atom_site_fract_z
_atom_type_partial_charge
C1    C     C_R   0.341824 0.177234 0.045962 0.537982
C2    C     C_R   0.648914 0.815357 0.074223 0.139411
C3    C     C_3   0.055005 0.122249 0.769680 -1.034354
C4    C     C_3   0.504770 0.347096 0.217307 0.123997
C5    C     C_3   0.551853 0.406909 0.236936 -0.313278
C6    C     C_3   0.645611 0.404590 0.145563 -0.943631
C7    C     C_3   0.408031 0.582717 0.246376 0.161821
C8    C     C_3   0.499968 0.606734 0.161588 -0.357615
C9    C     C_3   0.546945 0.551441 0.063663 -0.998557
C10   C     C_3   0.994066 0.869691 0.225366 0.138466
C11   C     C_3   0.022342 0.934487 0.266270 -0.325214
C12   C     C_3   0.116657 0.946858 0.188386 -0.962666
C13   C     C_R   0.155405 0.680643 0.065338 0.139910
C14   C     C_3   0.883026 0.123642 0.287933 0.177978
C15   C     C_3   0.961510 0.157911 0.185944 -0.305366
C16   C     C_3   0.030107 0.096381 0.117797 -1.047660
C17   C     C_R   0.149407 0.316003 0.073768 0.129485
C18   C     C_R   0.688057 0.856648 0.680028 0.075970
C19   C     C_R   0.618052 0.182650 0.695864 0.063466
C20   C     C_R   0.186036 0.353983 0.679169 0.084398
C21   C     C_R   0.175698 0.652385 0.678194 0.064867
C22   C     C_3   0.345204 0.191374 0.498176 0.333132
C23   C     C_3   0.347515 0.798400 0.492615 0.359140
C24   C     C_3   0.842776 0.691221 0.499063 0.356945
C25   C     C_R   0.350828 0.816000 0.029874 0.546114
C26   C     C_3   0.754977 0.352960 0.525188 0.343207
C27   C     C_3   0.288163 0.241715 0.600958 -0.543091
C28   C     C_3   0.282842 0.756475 0.598504 -0.536373
C29   C     C_3   0.782074 0.738649 0.603308 -0.499743
C30   C     C_3   0.684511 0.312881 0.628392 -0.506795
C31   C     C_3   0.388730 0.315614 0.392231 0.476355
C32   C     C_3   0.363573 0.678797 0.381379 0.486565
C33   C     C_3   0.887749 0.815248 0.391393 0.489056
C34   C     C_3   0.810492 0.225762 0.414779 0.488129
C35   C     C_3   0.761477 0.741105 0.429744 -0.422768
C36   C     C_R   0.842248 0.677712 0.045155 0.545390
C37   C     C_3   0.684200 0.295793 0.445077 -0.373057
C38   C     C_3   0.263734 0.239351 0.428064 -0.444334
C39   C     C_3   0.248681 0.780965 0.441144 -0.428189
C40   C     C_3   0.352736 0.232366 0.401228 0.051538
C41   C     C_3   0.340767 0.768384 0.401361 0.051694
C42   C     C_3   0.850509 0.732829 0.402140 0.019960
C43   C     C_3   0.770189 0.307571 0.424998 0.038110
C44   C     C_3   0.749056 0.812501 0.580225 0.232573
C45   C     C_3   0.669948 0.230175 0.600135 0.241669
C46   C     C_3   0.248610 0.310768 0.579449 0.270909
C47   C     C_R   0.874548 0.303786 0.995856 0.538481
C48   C     C_3   0.237304 0.693661 0.579001 0.279369
C49   C     C_3   0.824179 0.863873 0.495380 -0.489580
C50   C     C_3   0.755077 0.185452 0.524443 -0.489854
C51   C     C_3   0.319754 0.365057 0.492005 -0.499669
C52   C     C_3   0.304025 0.635724 0.489783 -0.510222
C53   C     C_R   0.398580 0.802002 0.209134 -0.133147
C54   C     C_R   0.405496 0.199175 0.208577 -0.098239
C55   C     C_R   0.856642 0.323195 0.222136 -0.122359
C56   C     C_R   0.903748 0.699344 0.208942 -0.090009
C57   C     C_3   0.701971 0.785425 0.534635 -0.387161
C58   C     C_R   0.632677 0.894131 0.105661 -0.106982
C59   C     C_3   0.629090 0.241607 0.541706 -0.342547
C60   C     C_3   0.201531 0.276906 0.537245 -0.428496
C61   C     C_3   0.188823 0.733882 0.541857 -0.393503
C62   C     C_2   0.201542 0.736278 0.079339 -0.149198
C63   C     C_2   0.186548 0.257589 0.101531 -0.156699
C64   C     C_2   0.758187 0.201952 0.998558 -0.190825
C65   C     C_2   0.686011 0.756768 0.102220 -0.100229
C66   C     C_2   0.796574 0.259212 0.926359 -0.214237
C67   C     C_2   0.716382 0.690338 0.043557 -0.215481
C68   C     C_2   0.240537 0.792698 0.005506 -0.217915
C69   C     C_R   0.661552 0.088733 0.064244 -0.093899
C70   C     C_2   0.217839 0.191840 0.041578 -0.187265
C71   C     C_R   0.339631 0.903722 0.933596 -0.222085
C72   C     C_R   0.331254 0.089569 0.949390 -0.230732
C73   C     C_R   0.861617 0.390844 0.901604 -0.240837
C74   C     C_R   0.829983 0.587359 0.952191 -0.212322
C75   C     C_R   0.409636 0.104862 0.302781 -0.103855
C76   C     C_R   0.406810 0.894011 0.303845 -0.109836
C77   C     C_R   0.910356 0.605914 0.302121 -0.131121
C78   C     C_R   0.864465 0.418624 0.315479 -0.032024
C79   C     C_R   0.289388 0.151122 0.022032 0.002572
C80   C     C_R   0.133101 0.394682 0.105264 -0.117115
C81   C     C_R   0.303035 0.838712 0.997347 0.004320
C82   C     C_R   0.788880 0.650282 0.022909 -0.009456
C83   C     C_R   0.840875 0.316179 0.941553 0.007993
C84   C     C_R   0.390107 0.816181 0.303479 0.080732
C85   C     C_R   0.398670 0.183592 0.302047 0.055040
C86   C     C_R   0.823769 0.351442 0.324864 -0.015763
C87   C     C_R   0.896825 0.684248 0.302527 0.064421
C88   C     C_R   0.652087 0.183996 0.968094 -0.129308
C89   C     C_R   0.622177 0.799949 0.012096 -0.157625
C90   C     C_R   0.123534 0.698500 0.009999 -0.174209
C91   C     C_R   0.137194 0.603357 0.100214 -0.078662
C92   C     C_R   0.122440 0.300291 0.011952 -0.142854
C93   C     C_R   0.648088 0.826550 0.782691 -0.157973
C94   C     C_R   0.603679 0.197713 0.792898 -0.140357
C95   C     C_R   0.147868 0.325998 0.782342 -0.163477
C96   C     C_R   0.141475 0.678748 0.781666 -0.151867
C97   C     C_R   0.596469 0.106250 0.694876 -0.156882
C98   C     C_R   0.641044 0.919680 0.685211 -0.122334
C99   C     C_R   0.129060 0.590537 0.683437 -0.133553
C100  C     C_R   0.137593 0.415004 0.683918 -0.137902
C101  C     C_3   0.397183 0.298805 0.011818 0.135794
C102  C     C_R   0.697299 0.156237 0.003064 0.123841
C103  C     C_3   0.376453 0.382315 0.057142 -0.240576
C104  C     C_3   0.438293 0.440510 0.972460 -1.062171
C105  C     C_3   0.433395 0.705133 0.983831 0.141385
C106  C     C_3   0.444240 0.682376 0.879627 -0.288983
C107  C     C_3   0.526097 0.637085 0.802026 -1.020357
C108  C     C_3   0.888155 0.802791 0.990743 0.183445
C109  C     C_3   0.968713 0.826831 0.974685 -0.309548
C110  C     C_3   0.024187 0.875595 0.873253 -1.027703
C111  C     C_3   0.967468 0.199477 0.944751 0.135767
C112  C     C_3   0.980303 0.177946 0.838823 -0.295460
H1    H     H_    0.312887 0.134652 0.513689 0.065383
H2    H     H_    0.311922 0.728994 0.634288 0.203146
H3    H     H_    0.923862 0.148353 0.856946 0.229478
H4    H     H_    0.991235 0.231784 0.792081 0.193239
H5    H     H_    0.111729 0.147487 0.755682 0.261297
H6    H     H_    0.066529 0.111958 0.690671 0.274113
H7    H     H_    0.042370 0.065234 0.810722 0.275454
H8    H     H_    0.519444 0.357217 0.136631 0.123444
H9    H     H_    0.528108 0.286816 0.214049 0.137550
H10   H     H_    0.526825 0.466504 0.243879 0.216621
H11   H     H_    0.543166 0.394744 0.313647 0.202425
H12   H     H_    0.672342 0.346406 0.142412 0.271384
H13   H     H_    0.810839 0.756556 0.643580 0.234801
H14   H     H_    0.677617 0.449965 0.159996 0.269933
H15   H     H_    0.657434 0.416075 0.066717 0.264971
H16   H     H_    0.384738 0.553582 0.204627 0.169134
H17   H     H_    0.403637 0.538794 0.302613 0.100919
H18   H     H_    0.502814 0.666626 0.132657 0.207388
H19   H     H_    0.533225 0.606983 0.199313 0.207455
H20   H     H_    0.531824 0.489679 0.088542 0.278281
H21   H     H_    0.615513 0.558953 0.018298 0.271028
H22   H     H_    0.530077 0.564520 0.008540 0.262423
H23   H     H_    0.007219 0.888705 0.147941 0.123197
H24   H     H_    0.700116 0.311213 0.686105 0.232212
H25   H     H_    0.031147 0.814748 0.207052 0.126140
H26   H     H_    0.988105 0.989365 0.277025 0.210356
H27   H     H_    0.007108 0.920180 0.346229 0.199776
H28   H     H_    0.150240 0.895388 0.190097 0.276917
H29   H     H_    0.133779 0.999234 0.213767 0.267580
H30   H     H_    0.136717 0.955501 0.104720 0.268795
H31   H     H_    0.864224 0.070914 0.265293 0.157649
H32   H     H_    0.896731 0.103738 0.344778 0.071776
H33   H     H_    0.943950 0.183389 0.136452 0.226248
H34   H     H_    0.986432 0.205697 0.207957 0.207533
H35   H     H_    0.440164 0.309543 0.400877 0.117215
H36   H     H_    0.003610 0.040324 0.115080 0.274173
H37   H     H_    0.065966 0.087238 0.150908 0.296414
H38   H     H_    0.074053 0.116620 0.033509 0.254614
H39   H     H_    0.447151 0.217237 0.604375 0.343903
H40   H     H_    0.462921 0.700276 0.550564 0.354563
H41   H     H_    0.015062 0.733779 0.521048 0.371377
H42   H     H_    0.887980 0.312192 0.616578 0.374833
H43   H     H_    0.429048 0.671791 0.354507 0.109676
H44   H     H_    0.943976 0.806168 0.389576 0.114290
H45   H     H_    0.873689 0.234837 0.394713 0.102875
H46   H     H_    0.855817 0.886949 0.529951 0.156329
H47   H     H_    0.787923 0.182503 0.562653 0.201200
H48   H     H_    0.347682 0.397257 0.526075 0.147053
H49   H     H_    0.329653 0.861425 0.509150 0.057932
H50   H     H_    0.340908 0.608765 0.515079 0.168151
H51   H     H_    0.764372 0.772785 0.364590 0.227342
H52   H     H_    0.692326 0.270033 0.372947 0.225304
H53   H     H_    0.266399 0.275444 0.366034 0.218174
H54   H     H_    0.241108 0.763389 0.377806 0.224651
H55   H     H_    0.735046 0.682301 0.436426 0.171537
H56   H     H_    0.651834 0.353430 0.461771 0.157624
H57   H     H_    0.239688 0.180787 0.427528 0.174875
H58   H     H_    0.230671 0.844093 0.459525 0.159012
H59   H     H_    0.648760 0.747272 0.593661 0.180712
H60   H     H_    0.813722 0.633031 0.511556 0.071627
H61   H     H_    0.565395 0.268056 0.597936 0.168424
H62   H     H_    0.155517 0.232886 0.594526 0.188785
H63   H     H_    0.138654 0.773276 0.606698 0.162889
H64   H     H_    0.675120 0.835985 0.518808 0.193585
H65   H     H_    0.622803 0.184443 0.512600 0.217790
H66   H     H_    0.165730 0.322592 0.528567 0.178734
H67   H     H_    0.157992 0.689673 0.523568 0.188212
H68   H     H_    0.392612 0.747393 0.180642 0.199577
H69   H     H_    0.404966 0.256424 0.180267 0.168525
H70   H     H_    0.836554 0.272875 0.201746 0.198349
H71   H     H_    0.731930 0.413245 0.528127 0.045544
H72   H     H_    0.901702 0.756272 0.180893 0.178381
H73   H     H_    0.801270 0.915303 0.475280 0.187580
H74   H     H_    0.745258 0.123706 0.511638 0.168209
H75   H     H_    0.293372 0.409594 0.466990 0.189362
H76   H     H_    0.273256 0.586956 0.478452 0.175300
H77   H     H_    0.208975 0.727367 0.142794 0.198273
H78   H     H_    0.198770 0.274066 0.158648 0.190093
H79   H     H_    0.761502 0.194427 0.065522 0.201186
H80   H     H_    0.699950 0.773797 0.157550 0.202108
H81   H     H_    0.789795 0.267964 0.862211 0.160784
H82   H     H_    0.729219 0.699726 0.660582 0.141604
H83   H     H_    0.699567 0.671818 0.991759 0.144135
H84   H     H_    0.233008 0.801730 0.942135 0.142220
H85   H     H_    0.202746 0.174317 0.987664 0.137152
H86   H     H_    0.324687 0.930891 0.883788 0.142670
H87   H     H_    0.312106 0.059408 0.906026 0.141298
H88   H     H_    0.854452 0.417119 0.843775 0.157194
H89   H     H_    0.809106 0.553356 0.913295 0.150092
H90   H     H_    0.412560 0.070488 0.359020 0.155239
H91   H     H_    0.412083 0.925551 0.360252 0.137703
H92   H     H_    0.916553 0.573103 0.356650 0.176765
H93   H     H_    0.625688 0.348526 0.668843 0.138230
H94   H     H_    0.854491 0.457335 0.377392 0.136978
H95   H     H_    0.657905 0.238347 0.928687 0.101784
H96   H     H_    0.613482 0.743888 0.987932 0.091654
H97   H     H_    0.114771 0.755469 0.987600 0.088103
H98   H     H_    0.113913 0.244379 0.987711 0.089176
H99   H     H_    0.665598 0.776653 0.808210 0.106556
H100  H     H_    0.603258 0.252899 0.827381 0.084088
H101  H     H_    0.166515 0.277373 0.808297 0.100806
H102  H     H_    0.157921 0.729006 0.807621 0.112354
H103  H     H_    0.594065 0.077781 0.634074 0.121019
H104  H     H_    0.239560 0.202499 0.664197 0.145145
H105  H     H_    0.652697 0.954035 0.618974 0.100588
H106  H     H_    0.131297 0.565295 0.617626 0.104059
H107  H     H_    0.145090 0.442647 0.616153 0.096031
H108  H     H_    0.636861 0.921082 0.165816 0.134671
H109  H     H_    0.678817 0.058116 0.109715 0.115296
H110  H     H_    0.137816 0.422077 0.164749 0.114991
H111  H     H_    0.145853 0.575441 0.155826 0.129038
H112  H     H_    0.397798 0.297585 0.938894 0.109839
H113  H     H_    0.460246 0.281795 0.988243 0.097087
H114  H     H_    0.312210 0.398603 0.084513 0.201940
H115  H     H_    0.236807 0.801101 0.657880 0.150267
H116  H     H_    0.378077 0.385717 0.127884 0.211210
H117  H     H_    0.502680 0.427114 0.946532 0.272274
H118  H     H_    0.420001 0.500498 0.007608 0.275549
H119  H     H_    0.437581 0.438439 0.901001 0.277539
H120  H     H_    0.435700 0.650822 0.020990 0.144332
H121  H     H_    0.486134 0.741458 0.966370 0.096128
H122  H     H_    0.390857 0.645666 0.899953 0.216667
H123  H     H_    0.444869 0.735799 0.838309 0.199953
H124  H     H_    0.580064 0.673011 0.780697 0.263282
H125  H     H_    0.532885 0.622539 0.726910 0.273819
H126  H     H_    0.321275 0.266165 0.632353 0.210300
H127  H     H_    0.526678 0.581881 0.839269 0.277969
H128  H     H_    0.849210 0.856155 0.009104 0.126986
H129  H     H_    0.903456 0.778064 0.913484 0.099395
H130  H     H_    0.952497 0.861531 0.045949 0.201444
H131  H     H_    0.004004 0.773656 0.967816 0.196127
H132  H     H_    0.043968 0.840873 0.800372 0.269487
H133  H     H_    0.081091 0.893322 0.865598 0.265495
H134  H     H_    0.989819 0.929038 0.878136 0.273007
H135  H     H_    0.973203 0.144312 0.977736 0.159200
H136  H     H_    0.017346 0.237673 0.930914 0.097771
N1    N     N_R   0.408680 0.130160 0.995800 -0.108229
N2    N     N_R   0.403730 0.078230 0.935950 -0.061269
N3    N     N_R   0.903730 0.421770 0.935950 -0.063745
N4    N     N_R   0.903730 0.578230 0.935950 -0.064945
N5    N     N_R   0.426630 0.075970 0.212960 -0.056287
N6    N     N_R   0.426630 0.924030 0.212960 -0.050677
N7    N     N_R   0.926630 0.575970 0.212960 -0.059125
N8    N     N_R   0.926630 0.424030 0.212960 -0.042771
N9    N     N_R   0.591320 0.134600 0.004200 -0.053477
N10   N     N_R   0.591320 0.865400 0.004200 -0.046239
N11   N     N_R   0.091320 0.634600 0.004200 -0.046993
N12   N     N_R   0.408680 0.869840 0.995800 -0.111013
N13   N     N_R   0.091320 0.365400 0.004200 -0.048303
N14   N     N_R   0.578320 0.867660 0.846880 -0.050112
N15   N     N_R   0.578320 0.132340 0.846880 -0.043214
N16   N     N_R   0.078320 0.367660 0.846880 -0.053643
N17   N     N_R   0.078320 0.632340 0.846880 -0.045519
N18   N     N_R   0.573370 0.074390 0.787040 -0.033348
N19   N     N_R   0.573370 0.925610 0.787040 -0.034248
N20   N     N_R   0.073370 0.574390 0.787040 -0.031895
N21   N     N_R   0.073370 0.425610 0.787040 -0.035272
N22   N     N_R   0.596270 0.927870 0.064040 -0.046155
N23   N     N_R   0.908680 0.630160 0.995800 -0.103194
N24   N     N_R   0.596270 0.072130 0.064040 -0.041951
N25   N     N_R   0.096270 0.427870 0.064040 -0.044207
N26   N     N_R   0.096270 0.572130 0.064040 -0.048716
N27   N     N_R   0.908680 0.369840 0.995800 -0.102416
N28   N     N_R   0.421680 0.867580 0.153120 -0.059366
N29   N     N_R   0.421680 0.132420 0.153120 -0.053809
N30   N     N_R   0.921680 0.367580 0.153120 -0.056162
N31   N     N_R   0.921680 0.632420 0.153120 -0.055904
N32   N     N_R   0.403730 0.921770 0.935950 -0.061709
Ni1   Ni    Ni4+2 0.500000 0.131190 0.000000 0.197632
Ni2   Ni    Ni4+2 0.500000 0.868810 0.000000 0.198839
Ni3   Ni    Ni4+2 0.000000 0.631190 0.000000 0.205903
Ni4   Ni    Ni4+2 0.000000 0.368810 0.000000 0.202382
Ni5   Ni    Ni4+2 0.488650 1.000000 0.862740 0.226044
Ni6   Ni    Ni4+2 0.988650 0.500000 0.862740 0.224138
Ni7   Ni    Ni4+2 0.511350 0.000000 0.137260 0.249768
Ni8   Ni    Ni4+2 0.011350 0.500000 0.137260 0.255448
O1    O     O_3   0.336277 0.248246 0.092592 -0.701181
O2    O     O_2   0.516089 0.165107 0.357859 -0.303920
O3    O     O_3   0.467724 0.238036 0.532698 -0.569509
O4    O     O_2   0.517826 0.810151 0.344722 -0.303013
O5    O     O_2   0.456382 0.845653 0.531701 -0.284138
O6    O     O_3   0.469798 0.698006 0.481478 -0.567137
O7    O     O_2   0.933185 0.601321 0.540757 -0.240060
O8    O     O_2   0.013575 0.663477 0.363597 -0.346476
O9    O     O_3   0.963018 0.749636 0.530381 -0.580669
O10   O     O_2   0.928442 0.355567 0.416978 -0.322666
O11   O     O_2   0.840599 0.441950 0.573639 -0.270535
O12   O     O_3   0.354393 0.740937 0.060537 -0.692597
O13   O     O_3   0.846209 0.294337 0.605718 -0.579627
O14   O     O_3   0.841975 0.752145 0.080394 -0.703788
O15   O     O_3   0.887199 0.231459 0.024884 -0.711359
O16   O     O_3   0.416445 0.354797 0.295327 -0.682904
O17   O     O_3   0.354410 0.648179 0.303229 -0.671488
O18   O     O_3   0.906757 0.856229 0.299342 -0.673508
O19   O     O_3   0.815520 0.178344 0.335180 -0.664960
O20   O     O_2   0.437802 0.091504 0.525557 -0.290267
S1    S     S_3+6 0.444498 0.169428 0.476139 -0.091265
S2    S     S_3+6 0.451178 0.789773 0.460431 -0.074088
S3    S     S_3+6 0.941355 0.674056 0.480821 -0.084628
S4    S     S_3+6 0.846169 0.362603 0.527258 -0.089591

loop_
_geom_bond_atom_site_label_1
_geom_bond_atom_site_label_2
_ccdc_geom_bond_type
N16   N21   A    
C60   H62   S    
C30   C45   S    
C61   H63   S    
C2    C65   S    
C64   H79   S    
C33   H44   S    
C39   C41   S    
C68   C81   S    
C6    H15   S    
C72   C79   A    
C5    C6    S    
C106  C107  S    
C10   O18   S    
C96   H102  S    
C108  C109  S    
C101  H113  S    
C35   C42   S    
N32   Ni5   S    
C32   C52   S    
O10   S4    D    
C25   N12   A    
C22   H1    S    
C100  H107  S    
C111  H136  S    
C93   H99   S    
C16   H37   S    
C47   C83   A    
C7    H16   S    
C21   C48   S    
C31   H35   S    
C101  C103  S    
C13   C91   A    
C25   C81   A    
C75   H90   S    
C37   H56   S    
C100  N21   A    
C39   C61   S    
C77   C87   A    
C14   H32   S    
C32   O17   S    
C56   H72   S    
N7    Ni8   S    
C35   H51   S    
C64   C66   D    
C3    H6    S    
C18   C44   S    
N13   Ni4   S    
C3    C112  S    
C1    O1    S    
N9    N24   A    
C24   S3    S    
C19   C94   A    
C88   N9    A    
O5    S2    D    
C27   C46   S    
C61   H67   S    
C30   H24   S    
C22   C27   S    
C29   C44   S    
C27   H104  S    
C1    C79   A    
N26   Ni8   S    
C77   H92   S    
N17   Ni3   S    
C38   H57   S    
H41   O9    S    
C45   C59   S    
C46   C60   S    
C70   C79   S    
C4    C5    S    
C88   C102  A    
C74   H89   S    
C58   N22   A    
C23   C41   S    
C62   C68   D    
C55   C86   A    
C17   C63   S    
C30   H93   S    
N18   Ni5   S    
C104  H117  S    
N28   Ni2   S    
C45   C50   S    
C5    H10   S    
C25   O12   S    
C69   H109  S    
C48   C52   S    
O2    S1    D    
C60   H66   S    
C73   C83   A    
C27   H126  S    
C9    H21   S    
C38   H53   S    
C94   H100  S    
C29   H13   S    
C92   H98   S    
C14   O19   S    
C19   C97   A    
C7    C8    S    
C64   C102  S    
N1    N2    A    
C53   C84   A    
C33   C42   S    
C109  H130  S    
C11   H26   S    
C21   C99   A    
C1    N1    A    
C57   H64   S    
C12   H29   S    
N11   N26   A    
C58   H108  S    
C108  H129  S    
C32   C41   S    
C65   H80   S    
C76   N6    A    
N5    N29   A    
N9    Ni1   S    
C99   N20   A    
C105  H120  S    
N21   Ni6   S    
C10   H23   S    
N14   N19   A    
C104  H119  S    
H42   O13   S    
C41   C84   S    
C46   C51   S    
C17   C80   A    
N23   Ni3   S    
C99   H106  S    
O8    S3    D    
C8    H19   S    
C54   H69   S    
C23   C28   S    
C37   C59   S    
C3    H7    S    
C37   H52   S    
C38   C60   S    
C110  H133  S    
C26   C30   S    
N31   Ni3   S    
C50   H74   S    
C112  H4    S    
C101  H112  S    
C71   H86   S    
C93   N14   A    
C28   C48   S    
C106  H122  S    
C91   N26   A    
C34   C43   S    
C31   C51   S    
C75   N5    A    
C90   H97   S    
C19   C45   S    
N4    N23   A    
C63   H78   S    
C69   N24   A    
C80   N25   A    
C55   H70   S    
C22   S1    S    
C24   H60   S    
C10   C11   S    
C80   H110  S    
C34   H45   S    
O11   S4    D    
C49   H73   S    
C7    O17   S    
C111  H135  S    
C18   C93   A    
C14   C15   S    
C16   H38   S    
C42   C87   S    
C52   H76   S    
C33   O18   S    
C20   C46   S    
C52   H50   S    
C73   N3    A    
C107  H124  S    
C13   C90   A    
O3    S1    S    
C24   C42   S    
C77   N7    A    
N22   Ni7   S    
C76   C84   A    
C101  O1    S    
C76   H91   S    
N6    Ni7   S    
N24   Ni7   S    
N1    Ni1   S    
C33   C49   S    
C73   H88   S    
C51   H48   S    
C31   C40   S    
N8    Ni8   S    
C23   S2    S    
C4    O16   S    
C11   H27   S    
C24   C29   S    
C3    H5    S    
C66   C83   S    
C75   C85   A    
C53   N28   A    
C13   C62   S    
C111  C112  S    
O13   S4    S    
C65   C67   D    
C26   S4    S    
C12   H28   S    
C105  O12   S    
C92   N13   A    
N7    N31   A    
C26   H71   S    
C94   N15   A    
C56   N31   A    
C74   C82   A    
C90   N11   A    
C28   H115  S    
C62   H77   S    
C89   N10   A    
C6    H14   S    
C103  H116  S    
C107  H127  S    
C40   C85   S    
C37   C43   S    
C2    C89   A    
C78   H94   S    
C15   H34   S    
C104  H118  S    
C20   C100  A    
N10   Ni2   S    
C34   O19   S    
C95   N16   A    
C54   N29   A    
C8    H18   S    
N16   Ni4   S    
C88   H95   S    
C91   H111  S    
C66   H81   S    
C9    H20   S    
C96   N17   A    
N29   Ni1   S    
C14   H31   S    
C23   H49   S    
C43   C86   S    
C74   N4    A    
C2    C58   A    
C36   O14   S    
C50   H47   S    
C105  C106  S    
C35   C57   S    
C78   N8    A    
C39   H54   S    
C109  C110  S    
C38   C40   S    
N14   Ni2   S    
N2    Ni5   S    
C12   H30   S    
C4    H9    S    
H39   O3    S    
N10   N22   A    
C7    H17   S    
C51   H75   S    
C97   N18   A    
C55   N30   A    
C97   H103  S    
C98   H105  S    
C103  C104  S    
N25   Ni8   S    
C72   N2    A    
C15   C16   S    
C72   H87   S    
C44   C49   S    
N15   N18   A    
C6    H12   S    
C69   C102  A    
C103  H114  S    
C107  H125  S    
N8    N30   A    
N3    N27   A    
C39   H58   S    
C31   O16   S    
N12   N32   A    
C47   N27   A    
C89   H96   S    
N13   N25   A    
C109  H131  S    
C29   H82   S    
O9    S3    S    
O7    S3    D    
C108  H128  S    
C36   C82   A    
C8    C9    S    
C35   H55   S    
N3    Ni6   S    
C44   C57   S    
C9    H22   S    
C110  H134  S    
N30   Ni4   S    
C17   C92   A    
C67   H83   S    
C26   C43   S    
C34   C50   S    
C106  H123  S    
C59   H65   S    
C68   H84   S    
C15   H33   S    
N6    N28   A    
C56   C87   A    
H40   O6    S    
C32   H43   S    
O6    S2    S    
C63   C70   D    
C98   N19   A    
C22   C40   S    
N27   Ni4   S    
N19   Ni5   S    
C28   H2    S    
C10   H25   S    
C20   C95   A    
C70   H85   S    
C95   H101  S    
C49   H46   S    
C53   H68   S    
O20   S1    D    
N20   Ni6   S    
C105  H121  S    
C47   O15   S    
C59   H61   S    
N4    Ni6   S    
C54   C85   A    
N12   Ni2   S    
C11   C12   S    
N5    Ni7   S    
C21   C96   A    
C5    H11   S    
C71   N32   A    
N15   Ni1   S    
C16   H36   S    
N11   Ni3   S    
C78   C86   A    
C48   C61   S    
C111  O15   S    
C36   N23   A    
N17   N20   A    
O4    S2    D    
C110  H132  S    
C67   C82   S    
C4    H8    S    
C18   C98   A    
C71   C81   A    
C112  H3    S    
C57   H59   S    
C108  O14   S    
