data_mof_unit_21505.cif
_audit_creation_date              2012-12-10T18:23:19-0500
_audit_creation_method            fapswitch 2.2
_symmetry_space_group_name_H-M    P1
_symmetry_Int_Tables_number       1
_space_group_crystal_system       triclinic
_cell_length_a                    27.802502
_cell_length_b                    10.60374
_cell_length_c                    9.431309
_cell_angle_alpha                 89.816762
_cell_angle_beta                  89.55231
_cell_angle_gamma                 90.184108
_cell_volume                      2780.33527099

loop_
_atom_site_label
_atom_site_type_symbol
_atom_type_description
_atom_site_fract_x
_atom_site_fract_y
_atom_site_fract_z
_atom_type_partial_charge
C1    C     C_R   0.500001 0.259471 0.500288 0.798736
C2    C     C_R   0.499999 0.740528 0.499712 0.798599
C3    C     C_R   0.102049 0.500200 0.514150 -0.063966
C4    C     C_R   0.898083 0.512532 0.488046 -0.063639
C5    C     C_R   0.126860 0.383591 0.512488 -0.046862
C6    C     C_R   0.872530 0.626810 0.506713 -0.046826
C7    C     C_R   0.099780 0.270158 0.518097 0.000792
C8    C     C_R   0.898907 0.740691 0.520746 0.000352
C9    C     C_R   0.128465 0.613798 0.520136 -0.014401
C10   C     C_R   0.872386 0.399620 0.464289 -0.015805
C11   C     C_R   0.354536 0.498872 0.502366 -0.037461
C12   C     C_R   0.645462 0.502394 0.497693 -0.037443
C13   C     C_R   0.973952 0.393724 0.479876 0.056500
C14   C     C_R   0.026502 0.621497 0.515111 0.057074
C15   C     C_R   0.975227 0.623926 0.513695 0.043957
C16   C     C_R   0.024671 0.389921 0.496353 0.044252
C17   C     C_R   0.949250 0.510270 0.493591 0.067064
C18   C     C_R   0.050905 0.503828 0.508932 0.067184
C19   C     C_R   0.946988 0.284344 0.447974 -0.209318
C20   C     C_R   0.054526 0.732993 0.521812 -0.202876
C21   C     C_R   0.897259 0.287314 0.441309 -0.140040
C22   C     C_R   0.104327 0.728855 0.524361 -0.138463
C23   C     C_R   0.407525 0.499719 0.500547 0.790279
C24   C     C_R   0.592475 0.500446 0.499457 0.790407
C25   C     C_R   0.049821 0.274852 0.506246 -0.274929
C26   C     C_R   0.948989 0.736997 0.529082 -0.270455
C27   C     C_3   0.500283 0.040139 0.635004 -0.092035
C28   C     C_3   0.499717 0.959860 0.364997 -0.091974
C29   C     C_3   0.539664 0.957981 0.565281 -0.145208
C30   C     C_3   0.460336 0.042017 0.434719 -0.144903
C31   C     C_3   0.499994 0.877490 0.498954 -0.017455
C32   C     C_3   0.500006 0.122509 0.501047 -0.017448
C33   C     C_3   0.460611 0.957338 0.568526 -0.164319
C34   C     C_3   0.539389 0.042660 0.431474 -0.164540
C35   C     C_3   0.482199 0.604298 0.050902 -0.020216
C36   C     C_3   0.517800 0.395701 0.949099 -0.020222
C37   C     C_3   0.456646 0.511668 0.950196 -0.139252
C38   C     C_3   0.543354 0.488331 0.049805 -0.139339
C39   C     C_3   0.525274 0.591416 0.949897 0.122670
C40   C     C_3   0.474726 0.408583 0.050104 0.122673
C41   C     C_R   0.177724 0.386115 0.502079 0.565007
C42   C     C_R   0.821630 0.620965 0.515495 0.562948
C43   C     C_R   0.178791 0.610248 0.520352 0.537643
C44   C     C_R   0.822063 0.401164 0.463372 0.536151
C45   C     C_R   0.279144 0.503550 0.634055 -0.095635
C46   C     C_R   0.720896 0.501315 0.366070 -0.094245
C47   C     C_R   0.329263 0.504191 0.631965 -0.207021
C48   C     C_R   0.670781 0.498611 0.368108 -0.208277
C49   C     C_R   0.328668 0.492536 0.375004 -0.216601
C50   C     C_R   0.671274 0.508976 0.625116 -0.217833
C51   C     C_R   0.278483 0.491587 0.377505 -0.097634
C52   C     C_R   0.721445 0.511981 0.622698 -0.096353
C53   C     C_R   0.253676 0.497237 0.507005 0.358289
C54   C     C_R   0.746349 0.508172 0.493193 0.355146
Cu1   Cu    Cu3+1 0.500010 0.499990 0.643150 0.947154
Cu2   Cu    Cu3+1 0.499990 0.500010 0.356850 0.947180
H1    H     H_    0.347125 0.488290 0.273600 0.146504
H2    H     H_    0.652783 0.512024 0.726525 0.146582
H3    H     H_    0.428428 0.919098 0.624490 0.153799
H4    H     H_    0.571572 0.080898 0.375510 0.153726
H5    H     H_    0.420168 0.520702 0.904467 0.127258
H6    H     H_    0.579832 0.479294 0.095537 0.127240
H7    H     H_    0.467452 0.691941 0.098161 0.144231
H8    H     H_    0.532548 0.308057 0.901840 0.144152
H9    H     H_    0.651954 0.493521 0.268237 0.150314
H10   H     H_    0.348126 0.509183 0.731782 0.150288
H11   H     H_    0.740033 0.498298 0.265700 0.140838
H12   H     H_    0.260017 0.508051 0.734366 0.139617
H13   H     H_    0.878321 0.200286 0.418621 0.203489
H14   H     H_    0.123947 0.817217 0.528480 0.193055
H15   H     H_    0.963349 0.194775 0.424278 0.140292
H16   H     H_    0.039477 0.826280 0.522241 0.132506
H17   H     H_    0.030975 0.185997 0.514158 0.123088
H18   H     H_    0.966530 0.826275 0.545618 0.121480
H19   H     H_    0.572069 0.920227 0.618572 0.161329
H20   H     H_    0.427930 0.079769 0.381429 0.161298
N1    N     N_R   0.202168 0.497833 0.509840 -0.478599
N2    N     N_R   0.797905 0.510238 0.490479 -0.477435
N3    N     N_3   0.500040 0.499970 0.858290 -0.193319
N4    N     N_3   0.499960 0.500030 0.141710 -0.193310
O1    O     O_R   0.500020 0.316850 0.620870 -0.586382
O2    O     O_R   0.499980 0.683150 0.379130 -0.586433
O3    O     O_R   0.500000 0.316860 0.379090 -0.567467
O4    O     O_R   0.500000 0.683140 0.620910 -0.567578
O5    O     O_R   0.430270 0.500020 0.620880 -0.580333
O6    O     O_R   0.569730 0.499980 0.379120 -0.580373
O7    O     O_R   0.430250 0.500030 0.379090 -0.603638
O8    O     O_R   0.569750 0.499970 0.620910 -0.603698
O9    O     O_2   0.202740 0.279234 0.479745 -0.485897
O10   O     O_2   0.795833 0.723252 0.552550 -0.488698
O11   O     O_2   0.797305 0.293870 0.438341 -0.515081
O12   O     O_2   0.204315 0.718466 0.528795 -0.516129
H21   H     H_    0.500520 0.075626 0.745642 0.177668
H22   H     H_    0.499480 0.924372 0.254359 0.177685
C55   C     C_2   0.555249 0.696166 0.889391 0.386992
H23   H     H_    0.586601 0.674826 0.824891 0.062452
O13   O     O_2   0.544689 0.805790 0.912703 -0.562894
C56   C     C_2   0.444751 0.303839 0.110627 0.387603
H24   H     H_    0.413364 0.325192 0.174973 0.062092
O14   O     O_2   0.455351 0.194210 0.087502 -0.562820
H25   H     H_    0.258829 0.486905 0.278983 0.138203
H26   H     H_    0.741025 0.516904 0.721336 0.139893
C57   C     C_2   0.120694 0.144078 0.545956 0.476413
H27   H     H_    0.106696 0.062129 0.491040 0.024027
O15   O     O_2   0.150845 0.129063 0.637863 -0.481870
C58   C     C_2   0.877045 0.868076 0.518173 0.462818
H28   H     H_    0.889797 0.940112 0.590413 0.038927
O16   O     O_2   0.847610 0.896621 0.428282 -0.480969

loop_
_geom_bond_atom_site_label_1
_geom_bond_atom_site_label_2
_ccdc_geom_bond_type
C41   O9    S    
Cu1   Cu2   S    
C27   C29   S    
C8    C26   A    
C14   C18   A    
C19   H15   S    
C55   H23   S    
C12   C48   A    
C49   H1    S    
C27   C33   S    
C37   N3    S    
C52   H26   S    
C58   O16   D    
C11   C49   A    
C35   C37   S    
C37   C40   S    
C40   C56   S    
C38   C39   S    
C41   N1    A    
C9    C22   A    
C58   H28   S    
C1    O1    A    
C35   N4    S    
C30   H20   S    
C3    C18   A    
C28   H22   S    
C11   C23   S    
Cu1   O8    S    
C2    O4    A    
C49   C51   A    
C50   C52   A    
C40   N4    S    
C48   H9    S    
Cu1   O1    S    
C47   H10   S    
C35   H7    S    
C11   C47   A    
C28   C34   S    
C33   H3    S    
C7    C57   S    
C34   H4    S    
C52   C54   A    
C45   C47   A    
C10   C21   A    
C46   C48   A    
C9    C43   A    
C13   C19   A    
C10   C44   A    
C50   H2    S    
C14   C20   A    
C36   C40   S    
C4    C6    A    
C5    C7    A    
C15   C26   A    
C6    C8    A    
C3    C5    A    
C29   C34   S    
C1    C32   S    
C21   H13   S    
C2    C31   S    
C42   O10   S    
C39   N3    S    
Cu1   O5    S    
C53   N1    S    
C3    C9    A    
Cu1   N3    S    
Cu2   O6    S    
Cu2   N4    S    
C46   C54   A    
C45   H12   S    
C31   C33   S    
C57   O15   D    
C24   O8    A    
C39   C55   S    
C44   O11   S    
C4    C17   A    
C20   C22   A    
C42   N2    A    
C56   O14   D    
C23   O5    A    
C27   H21   S    
C1    O3    A    
C4    C10   A    
C37   H5    S    
Cu2   O3    S    
C16   C25   A    
C15   C17   A    
C5    C41   A    
C30   C33   S    
C19   C21   A    
C27   C32   S    
C28   C31   S    
Cu2   O7    S    
C36   N3    S    
C8    C58   S    
C12   C50   A    
C55   O13   D    
Cu2   O2    S    
C29   H19   S    
C43   N1    A    
C12   C24   S    
C43   O12   S    
C7    C25   A    
C13   C17   A    
C44   N2    A    
C28   C30   S    
C29   C31   S    
C30   C32   S    
C38   N4    S    
C35   C39   S    
C36   C38   S    
C26   H18   S    
C54   N2    S    
C25   H17   S    
C2    O2    A    
C45   C53   A    
C46   H11   S    
C16   C18   A    
C56   H24   S    
C6    C42   A    
C13   C16   A    
C57   H27   S    
C14   C15   A    
C20   H16   S    
C23   O7    A    
C51   C53   A    
Cu1   O4    S    
C36   H8    S    
C24   O6    A    
C22   H14   S    
C51   H25   S    
C32   C34   S    
C38   H6    S    
