data_mof_unit_56337.cif
_audit_creation_date              2012-12-10T18:02:49-0500
_audit_creation_method            fapswitch 2.2
_symmetry_space_group_name_H-M    P1
_symmetry_Int_Tables_number       1
_space_group_crystal_system       triclinic
_cell_length_a                    10.826074
_cell_length_b                    9.60516
_cell_length_c                    27.786391
_cell_angle_alpha                 89.999534
_cell_angle_beta                  92.476559
_cell_angle_gamma                 89.999941
_cell_volume                      2886.70171258

loop_
_atom_site_label
_atom_site_type_symbol
_atom_type_description
_atom_site_fract_x
_atom_site_fract_y
_atom_site_fract_z
_atom_type_partial_charge
C1    C     C_R   0.262398 0.500344 0.500666 0.772265
C2    C     C_R   0.737602 0.500344 0.499334 0.772261
C3    C     C_R   0.511589 0.542949 0.102002 -0.079743
C4    C     C_R   0.488478 0.542967 0.897999 -0.079746
C5    C     C_R   0.402968 0.567972 0.126892 -0.003442
C6    C     C_R   0.597104 0.567961 0.873110 -0.003440
C7    C     C_R   0.290565 0.589468 0.101215 -0.158060
C8    C     C_R   0.709511 0.589421 0.898787 -0.158056
C9    C     C_R   0.624717 0.516093 0.128152 -0.048670
C10   C     C_R   0.375343 0.516149 0.871849 -0.048667
C11   C     C_R   0.503378 0.504981 0.354671 -0.154917
C12   C     C_R   0.496637 0.504980 0.645330 -0.154925
C13   C     C_R   0.384158 0.537459 0.974394 0.005724
C14   C     C_R   0.615907 0.537420 0.025608 0.005722
C15   C     C_R   0.610226 0.553438 0.974749 0.064858
C16   C     C_R   0.389842 0.553467 0.025252 0.064857
C17   C     C_R   0.494126 0.544485 0.949127 0.067225
C18   C     C_R   0.505940 0.544475 0.050875 0.067224
C19   C     C_R   0.271976 0.513147 0.948235 -0.236393
C20   C     C_R   0.728082 0.513068 0.051766 -0.236392
C21   C     C_R   0.265234 0.500808 0.897873 0.165426
C22   C     C_R   0.734822 0.500718 0.102127 0.165423
C23   C     C_R   0.499681 0.500525 0.407589 0.798839
C24   C     C_R   0.500321 0.500524 0.592411 0.798838
C25   C     C_R   0.283488 0.579981 0.051371 -0.217179
C26   C     C_R   0.716587 0.579924 0.948630 -0.217180
C27   C     C_R   0.063673 0.376224 0.502013 -0.202471
C28   C     C_R   0.935963 0.628587 0.499734 -0.183876
C29   C     C_R   0.936327 0.376225 0.497986 -0.202471
C30   C     C_R   0.064037 0.628587 0.500267 -0.183876
C31   C     C_R   0.871543 0.501846 0.498681 -0.013276
C32   C     C_R   0.128457 0.501846 0.501319 -0.013278
C33   C     C_R   0.425477 0.074303 0.467825 0.243314
C34   C     C_R   0.572371 0.924775 0.532936 0.242595
C35   C     C_R   0.574522 0.074302 0.532175 0.243319
C36   C     C_R   0.427628 0.924776 0.467064 0.242589
C37   C     C_R   0.408680 0.571451 0.177190 0.533533
C38   C     C_R   0.591392 0.571448 0.822811 0.533529
C39   C     C_R   0.620848 0.503969 0.179069 0.512630
C40   C     C_R   0.379210 0.504024 0.820932 0.512638
C41   C     C_R   0.587156 0.617904 0.284241 0.205719
C42   C     C_R   0.412892 0.617927 0.715761 0.205711
C43   C     C_R   0.584526 0.600060 0.334229 -0.281862
C44   C     C_R   0.415493 0.600059 0.665773 -0.281823
C45   C     C_R   0.422474 0.424860 0.324570 0.225323
C46   C     C_R   0.577557 0.424871 0.675428 0.225305
C47   C     C_R   0.435656 0.431577 0.274473 -0.153884
C48   C     C_R   0.564396 0.431602 0.725526 -0.153874
C49   C     C_R   0.514868 0.528433 0.254036 0.269988
C50   C     C_R   0.485193 0.528464 0.745964 0.269950
Cu1   Cu    Cu3+1 0.500000 0.640660 0.500000 0.967489
Cu2   Cu    Cu3+1 0.500000 0.359340 0.500000 0.983397
H1    H     H_    0.380100 0.366839 0.250201 0.158995
H2    H     H_    0.619959 0.366867 0.749798 0.159010
H3    H     H_    0.206504 0.611106 0.119625 0.178539
H4    H     H_    0.793578 0.611036 0.880377 0.178539
H5    H     H_    0.356163 0.663992 0.642396 0.165920
H6    H     H_    0.643842 0.664006 0.357607 0.165912
H7    H     H_    0.187619 0.498394 0.966880 0.132111
H8    H     H_    0.812435 0.498291 0.033120 0.132114
H9    H     H_    0.194061 0.599404 0.034007 0.136138
H10   H     H_    0.806018 0.599318 0.965995 0.136134
H11   H     H_    0.110969 0.277790 0.505430 0.156105
H12   H     H_    0.887833 0.727435 0.499826 0.139693
H13   H     H_    0.889031 0.277791 0.494567 0.156106
H14   H     H_    0.112167 0.727434 0.500176 0.139694
N1    N     N_R   0.515773 0.537618 0.202253 -0.454624
N2    N     N_R   0.484292 0.537646 0.797748 -0.454629
N3    N     N_R   0.500000 0.852070 0.500000 -0.215600
N4    N     N_R   0.500000 0.147930 0.500000 -0.214336
O1    O     O_R   0.319640 0.618740 0.500000 -0.578739
O2    O     O_R   0.680360 0.381260 0.500000 -0.557398
O3    O     O_R   0.680360 0.618740 0.500000 -0.578743
O4    O     O_R   0.319640 0.381260 0.500000 -0.557398
O5    O     O_R   0.500020 0.618770 0.430260 -0.548402
O6    O     O_R   0.499980 0.381230 0.569740 -0.556423
O7    O     O_R   0.499980 0.618770 0.569740 -0.548398
O8    O     O_R   0.500020 0.381230 0.430260 -0.556415
O9    O     O_2   0.307271 0.606812 0.201069 -0.564233
O10   O     O_2   0.692808 0.606787 0.798933 -0.564233
O11   O     O_2   0.280556 0.458080 0.794372 -0.562978
O12   O     O_2   0.719493 0.458001 0.205630 -0.562979
N5    N     N_2   0.324444 0.347191 0.344892 -0.429563
H15   H     H_    0.288850 0.391488 0.375127 0.256857
C51   C     C_3   0.231377 0.281324 0.313501 -0.699971
H16   H     H_    0.161487 0.229501 0.335402 0.226303
H17   H     H_    0.274262 0.200078 0.291209 0.231982
H18   H     H_    0.183250 0.360375 0.290293 0.247911
N6    N     N_2   0.675581 0.347199 0.655103 -0.429564
H19   H     H_    0.711158 0.391485 0.624863 0.256861
C52   C     C_3   0.768665 0.281349 0.686492 -0.699954
H20   H     H_    0.838544 0.229516 0.664589 0.226298
H21   H     H_    0.725796 0.200112 0.708793 0.231979
H22   H     H_    0.816802 0.360412 0.709691 0.247913
N7    N     N_2   0.351872 0.148813 0.433187 -0.353633
H23   H     H_    0.386748 0.147079 0.399350 0.275891
C53   C     C_3   0.219119 0.131102 0.433992 -0.695639
H24   H     H_    0.185429 0.061804 0.404349 0.206749
H25   H     H_    0.174026 0.233471 0.428012 0.237273
H26   H     H_    0.190997 0.086739 0.468807 0.204208
N8    N     N_2   0.647869 0.848797 0.566904 -0.367564
H27   H     H_    0.741272 0.850662 0.561330 0.236315
C54   C     C_3   0.615426 0.855945 0.616922 -0.635567
H28   H     H_    0.665731 0.941156 0.636095 0.201740
H29   H     H_    0.642970 0.757433 0.635228 0.238810
H30   H     H_    0.514312 0.870684 0.619891 0.222836
N9    N     N_2   0.648132 0.148810 0.566812 -0.353636
H31   H     H_    0.613258 0.147083 0.600648 0.275890
C55   C     C_3   0.780884 0.131094 0.566005 -0.695645
H32   H     H_    0.814573 0.061792 0.595649 0.206753
H33   H     H_    0.825981 0.233459 0.571986 0.237272
H34   H     H_    0.809003 0.086732 0.531190 0.204210
N10   N     N_2   0.352126 0.848799 0.433098 -0.367568
H35   H     H_    0.258723 0.850672 0.438672 0.236312
C56   C     C_3   0.384570 0.855941 0.383080 -0.635542
H36   H     H_    0.334269 0.941154 0.363905 0.201739
H37   H     H_    0.357022 0.757429 0.364775 0.238808
H38   H     H_    0.485685 0.870675 0.380111 0.222817
C57   C     C_3   0.334432 0.734016 0.735352 -0.364603
C58   C     C_3   0.379074 0.877084 0.719504 -0.852812
H39   H     H_    0.479360 0.889560 0.728736 0.266747
H40   H     H_    0.361949 0.891240 0.680163 0.240710
H41   H     H_    0.327629 0.959496 0.738252 0.253527
H42   H     H_    0.236647 0.719067 0.722571 0.209894
H43   H     H_    0.336376 0.734724 0.775203 0.211251
C59   C     C_3   0.665630 0.733984 0.264651 -0.364647
C60   C     C_3   0.620912 0.877061 0.280458 -0.852735
H44   H     H_    0.520648 0.889508 0.271175 0.266758
H45   H     H_    0.637908 0.891260 0.319803 0.240714
H46   H     H_    0.672408 0.959461 0.261724 0.253513
H47   H     H_    0.763396 0.719085 0.277465 0.209858
H48   H     H_    0.663771 0.734629 0.224801 0.211268
C61   C     C_3   0.137029 0.477665 0.874558 -0.344800
C62   C     C_3   0.085496 0.610939 0.851269 -0.763468
H49   H     H_    0.071917 0.691073 0.879381 0.229726
H50   H     H_    0.148482 0.653674 0.824542 0.265454
H51   H     H_    0.994766 0.588633 0.832715 0.251959
H52   H     H_    0.136124 0.389586 0.848830 0.244486
H53   H     H_    0.070538 0.444989 0.901807 0.168141
C63   C     C_3   0.863020 0.477522 0.125441 -0.344804
C64   C     C_3   0.914599 0.610775 0.148730 -0.763451
H54   H     H_    0.928205 0.690901 0.120617 0.229714
H55   H     H_    0.851627 0.653539 0.175456 0.265461
H56   H     H_    0.005322 0.588430 0.167284 0.251954
H57   H     H_    0.863897 0.389442 0.151170 0.244480
H58   H     H_    0.929498 0.444816 0.098192 0.168149

loop_
_geom_bond_atom_site_label_1
_geom_bond_atom_site_label_2
_ccdc_geom_bond_type
N8    H27   S    
C5    C37   A    
C27   C29   A    
C8    C26   A    
C14   C18   A    
N7    H23   S    
C7    H3    S    
C8    H4    S    
C62   H51   S    
C60   H45   S    
C53   H24   S    
C47   C49   A    
C46   N6    S    
C57   H42   S    
C58   H39   S    
C48   H2    S    
C37   O9    S    
C1    O1    A    
Cu1   O1    S    
C59   C60   S    
Cu2   O2    S    
C1    O4    A    
C19   C21   A    
Cu1   O5    S    
Cu2   O4    S    
C64   H55   S    
Cu2   O8    S    
C9    C22   A    
C56   H36   S    
C22   C63   S    
C9    C39   A    
C33   C36   A    
C3    C18   A    
C10   C40   A    
C34   C35   A    
C45   C47   A    
C41   C49   A    
C11   C23   S    
C43   H6    S    
C35   N4    A    
C56   H37   S    
N9    H31   S    
C6    C38   A    
C11   C43   A    
N6    C52   S    
C41   C43   A    
C58   H41   S    
C47   H1    S    
C48   C50   A    
C61   H52   S    
N8    C54   S    
N9    C55   S    
C45   N5    S    
C42   C44   A    
C2    O2    A    
C36   N10   S    
C33   N7    S    
C21   C61   S    
C53   H25   S    
C58   H40   S    
C51   H17   S    
C10   C21   A    
C41   C59   S    
C46   C48   A    
C34   N8    S    
C13   C19   A    
Cu1   Cu2   S    
C14   C20   A    
C35   N9    S    
C63   C64   S    
C12   C46   A    
C64   H56   S    
C63   H58   S    
C52   H20   S    
C5    C7    A    
C24   O6    A    
C15   C26   A    
C6    C8    A    
C19   H7    S    
C51   H16   S    
C1    C32   S    
C2    C31   S    
Cu1   O7    S    
C3    C9    A    
C52   H21   S    
N5    H15   S    
C59   H48   S    
C44   H5    S    
C56   H38   S    
C54   H29   S    
C25   H9    S    
C34   N3    A    
C30   H14   S    
C2    O3    A    
C27   H11   S    
C33   N4    A    
C42   C50   A    
C29   H13   S    
C4    C17   A    
C28   H12   S    
C4    C6    A    
N5    C51   S    
C38   N2    A    
C61   H53   S    
Cu2   O6    S    
C61   C62   S    
C55   H34   S    
C20   H8    S    
C4    C10   A    
C60   H44   S    
C57   H43   S    
C53   H26   S    
C23   O5    A    
C36   N3    A    
N10   H35   S    
C51   H18   S    
C16   C25   A    
C15   C17   A    
C49   N1    S    
C27   C32   A    
C39   N1    A    
C40   O11   S    
C28   C31   A    
Cu1   O3    S    
C39   O12   S    
C20   C22   A    
C3    C5    A    
C63   H57   S    
C62   H50   S    
C57   C58   S    
N7    C53   S    
C62   H49   S    
C12   C24   S    
C7    C25   A    
C13   C17   A    
C55   H33   S    
C26   H10   S    
C60   H46   S    
C29   C31   A    
C64   H54   S    
C52   H22   S    
C30   C32   A    
C38   O10   S    
C59   H47   S    
C11   C45   A    
C37   N1    A    
C28   C30   A    
C54   H30   S    
C23   O8    A    
C42   C57   S    
Cu2   N4    S    
C24   O7    A    
C16   C18   A    
C40   N2    A    
C13   C16   A    
C54   H28   S    
C14   C15   A    
C12   C44   A    
Cu1   N3    S    
N6    H19   S    
C55   H32   S    
C50   N2    S    
N10   C56   S    
