data_mof_unit_21735.cif
_audit_creation_date              2012-10-26T20:56:16-0400
_audit_creation_method            fapswitch 2.2
_symmetry_space_group_name_H-M    P1
_symmetry_Int_Tables_number       1
_space_group_crystal_system       triclinic
_cell_length_a                    27.835457
_cell_length_b                    10.949637
_cell_length_c                    26.486105
_cell_angle_alpha                 91.19153
_cell_angle_beta                  89.643813
_cell_angle_gamma                 91.854702
_cell_volume                      8066.55302669

loop_
_atom_site_label
_atom_site_type_symbol
_atom_type_description
_atom_site_fract_x
_atom_site_fract_y
_atom_site_fract_z
_atom_type_partial_charge
C1    C     C_R   0.503100 0.262319 0.499385 0.532941
C2    C     C_R   0.899067 0.715130 0.506548 -0.116433
C3    C     C_R   0.618761 0.998749 0.381574 -0.078688
C4    C     C_R   0.413817 0.903782 0.604177 0.062537
C5    C     C_R   0.393191 0.825874 0.566952 -0.103891
C6    C     C_R   0.348169 0.849994 0.546913 -0.126180
C7    C     C_R   0.323348 0.951853 0.563872 -0.084691
C8    C     C_R   0.343185 0.028918 0.601436 -0.101779
C9    C     C_R   0.387995 0.004627 0.621813 -0.057189
C10   C     C_3   0.615987 0.273512 0.307697 -0.060194
C11   C     C_3   0.421504 0.919986 0.748123 -0.097217
C12   C     C_R   0.462319 0.869382 0.412976 0.062499
C13   C     C_R   0.128305 0.612179 0.508901 0.024631
C14   C     C_R   0.414886 0.825245 0.420260 -0.080327
C15   C     C_R   0.389909 0.764844 0.381052 -0.100188
C16   C     C_R   0.411874 0.749207 0.333952 -0.083476
C17   C     C_R   0.459033 0.792731 0.326196 -0.098547
C18   C     C_R   0.484332 0.851643 0.365589 -0.079548
C19   C     C_R   0.539586 0.133641 0.586943 0.065282
C20   C     C_R   0.516199 0.156825 0.633118 -0.049758
C21   C     C_R   0.541185 0.213626 0.673231 -0.103317
C22   C     C_R   0.589175 0.251954 0.667005 -0.079306
C23   C     C_R   0.612459 0.231593 0.620915 -0.097052
C24   C     C_R   0.871890 0.383919 0.488282 0.024830
C25   C     C_R   0.587909 0.171707 0.581271 -0.093731
C26   C     C_3   0.343573 0.301197 0.408920 -0.129538
C27   C     C_3   0.659210 0.686099 0.596101 -0.125205
C28   C     C_R   0.416472 0.775020 0.034472 0.019887
C29   C     C_R   0.368677 0.806858 0.044136 -0.109280
C30   C     C_R   0.350842 0.913759 0.024425 -0.108366
C31   C     C_R   0.380481 0.989808 0.995078 -0.100825
C32   C     C_R   0.428077 0.959375 0.985531 -0.115999
C33   C     C_R   0.446186 0.853076 0.005436 -0.087941
C34   C     C_R   0.576665 0.227141 0.964189 0.018071
C35   C     C_R   0.354179 0.500363 0.501210 0.001275
C36   C     C_R   0.546566 0.149232 0.992878 -0.089149
C37   C     C_R   0.564261 0.042360 0.012696 -0.112061
C38   C     C_R   0.611803 0.011128 0.003360 -0.098504
C39   C     C_R   0.641817 0.086992 0.974340 -0.109139
C40   C     C_R   0.624415 0.194520 0.954758 -0.110380
C41   C     C_R   0.645783 0.497521 0.499032 0.000272
C42   C     C_R   0.973721 0.384647 0.494144 0.017907
C43   C     C_R   0.026363 0.611446 0.505003 0.018102
C44   C     C_R   0.975260 0.609824 0.503707 0.018171
C45   C     C_R   0.024615 0.385748 0.498719 0.018128
C46   C     C_R   0.949293 0.496516 0.497614 0.032689
C47   C     C_R   0.497667 0.738133 0.500633 0.521471
C48   C     C_R   0.050684 0.499261 0.503192 0.032698
C49   C     C_R   0.946133 0.275156 0.485823 -0.142421
C50   C     C_R   0.054308 0.721821 0.507864 -0.141901
C51   C     C_R   0.407256 0.499476 0.500167 0.556075
C52   C     C_R   0.592739 0.500096 0.499860 0.548716
C53   C     C_R   0.896318 0.275053 0.483126 -0.115973
C54   C     C_R   0.104147 0.721862 0.509857 -0.115569
C55   C     C_R   0.050609 0.276740 0.499374 -0.142415
C56   C     C_R   0.948907 0.717979 0.508540 -0.142565
C57   C     C_R   0.460287 0.171859 0.326547 -0.184847
C58   C     C_R   0.253319 0.504169 0.506004 0.195692
C59   C     C_R   0.550582 0.845205 0.672443 -0.190294
C60   C     C_R   0.459122 0.139677 0.377141 -0.097787
C61   C     C_R   0.548575 0.868686 0.621072 -0.110961
C62   C     C_R   0.501733 0.115441 0.402522 0.024302
C63   C     C_R   0.504381 0.886941 0.597688 0.018362
C64   C     C_R   0.546555 0.128123 0.376805 0.017563
C65   C     C_R   0.461157 0.877217 0.626469 0.027572
C66   C     C_R   0.547302 0.163408 0.325646 0.282696
C67   C     C_R   0.463496 0.852530 0.678529 0.295376
C68   C     C_R   0.504019 0.182729 0.300872 -0.072003
C69   C     C_R   0.746596 0.490028 0.494851 0.195012
C70   C     C_R   0.508463 0.835764 0.700950 -0.099044
C71   C     C_R   0.487992 0.933439 0.455840 -0.041678
C72   C     C_R   0.514509 0.068142 0.544027 -0.033711
C73   C     C_R   0.495343 0.872724 0.501710 -0.028840
C74   C     C_R   0.506764 0.128355 0.498315 -0.024948
C75   C     C_R   0.435824 0.661841 0.055527 -0.031237
C76   C     C_R   0.557794 0.341165 0.943352 -0.031585
C77   C     C_R   0.505115 0.941713 0.546674 -0.038249
C78   C     C_R   0.498169 0.059528 0.453245 -0.037000
C79   C     C_R   0.461623 0.570942 0.187817 0.400406
C80   C     C_R   0.101746 0.500590 0.505702 -0.028172
C81   C     C_R   0.533621 0.435305 0.811416 0.393196
C82   C     C_R   0.528025 0.439586 0.186952 0.389338
C83   C     C_R   0.465683 0.561715 0.811533 0.387809
C84   C     C_R   0.536536 0.546659 0.293876 -0.103717
C85   C     C_R   0.464005 0.438897 0.704278 -0.089901
C86   C     C_R   0.538801 0.542986 0.346950 0.390850
C87   C     C_R   0.463804 0.438614 0.650706 0.417117
C88   C     C_R   0.458983 0.462248 0.349844 -0.010710
C89   C     C_R   0.537008 0.556496 0.651085 0.001463
C90   C     C_R   0.455640 0.465277 0.296951 -0.133579
C91   C     C_R   0.898226 0.495017 0.495159 -0.028187
C92   C     C_R   0.538616 0.555858 0.703951 -0.118191
C93   C     C_R   0.495012 0.506883 0.268228 0.162905
C94   C     C_R   0.501149 0.499249 0.731068 0.181950
C95   C     C_R   0.495976 0.506212 0.106984 -0.033107
C96   C     C_R   0.497782 0.496909 0.891823 -0.032286
C97   C     C_R   0.462369 0.574327 0.134381 0.010622
C98   C     C_R   0.532048 0.430290 0.864685 0.009721
C99   C     C_R   0.176832 0.393653 0.506162 0.395636
C100  C     C_R   0.822928 0.600931 0.498415 0.395826
C101  C     C_R   0.433003 0.652367 0.108293 -0.117847
C102  C     C_R   0.126415 0.390316 0.504742 0.025045
C103  C     C_R   0.561308 0.352096 0.890753 -0.120388
C104  C     C_R   0.529986 0.441249 0.133774 0.028338
C105  C     C_R   0.463499 0.560643 0.864796 0.018807
C106  C     C_R   0.462138 0.566345 0.972438 0.008016
C107  C     C_R   0.531198 0.436047 0.026289 0.007904
C108  C     C_R   0.529635 0.425195 0.972336 0.002062
C109  C     C_R   0.463782 0.577470 0.026463 0.001803
C110  C     C_R   0.496976 0.497344 0.945785 0.018257
C111  C     C_R   0.496492 0.505376 0.052997 0.017921
C112  C     C_R   0.424645 0.614597 0.943896 -0.141059
C113  C     C_R   0.873333 0.604579 0.499845 0.024964
C114  C     C_R   0.568640 0.387294 0.054676 -0.141116
C115  C     C_R   0.426278 0.616115 0.891366 -0.127097
C116  C     C_R   0.566953 0.385026 0.107107 -0.117698
C117  C     C_R   0.178740 0.611473 0.510136 0.400599
C118  C     C_R   0.821433 0.384258 0.487136 0.399903
C119  C     C_R   0.280594 0.536816 0.548573 -0.091080
C120  C     C_R   0.719486 0.462964 0.451595 -0.092204
C121  C     C_R   0.330600 0.535080 0.546183 -0.219456
C122  C     C_R   0.669507 0.466263 0.453692 -0.210674
C123  C     C_R   0.326392 0.465289 0.458498 0.245759
C124  C     C_R   0.100417 0.279274 0.502166 -0.116007
C125  C     C_R   0.673377 0.526830 0.542540 0.244154
C126  C     C_R   0.276238 0.470251 0.461033 -0.045988
C127  C     C_R   0.723496 0.519480 0.540263 -0.050139
C128  C     C_3   0.384891 0.361008 0.644493 -0.146330
C129  C     C_3   0.594448 0.689975 0.370509 -0.125504
C130  C     C_R   0.592258 0.096135 0.401061 0.038103
C131  C     C_R   0.612079 0.170365 0.439964 -0.125411
C132  C     C_R   0.657335 0.146335 0.459457 -0.124750
C133  C     C_R   0.682865 0.047398 0.440694 -0.081093
C134  C     C_R   0.663624 0.973750 0.401677 -0.118599
Cu1   Cu    Cu3+1 0.500000 0.500020 0.550150 1.022231
Cu2   Cu    Cu3+1 0.500000 0.499980 0.449850 0.994606
H1    H     H_    0.961823 0.187256 0.480517 0.105923
H2    H     H_    0.581761 0.879657 0.599889 0.109424
H3    H     H_    0.397458 0.658639 0.871611 0.158784
H4    H     H_    0.595705 0.341858 0.126722 0.165861
H5    H     H_    0.392599 0.648792 0.961374 0.136334
H6    H     H_    0.600673 0.353128 0.037164 0.136921
H7    H     H_    0.428758 0.426430 0.370810 0.189158
H8    H     H_    0.565389 0.602664 0.630426 0.171552
H9    H     H_    0.422984 0.432298 0.278530 0.135438
H10   H     H_    0.568285 0.601471 0.723656 0.123613
H11   H     H_    0.410589 0.714511 0.129511 0.162459
H12   H     H_    0.039018 0.810788 0.507852 0.104916
H13   H     H_    0.584045 0.290687 0.869554 0.160288
H14   H     H_    0.254923 0.446072 0.428017 0.132367
H15   H     H_    0.744713 0.538899 0.573795 0.131197
H16   H     H_    0.118517 0.193134 0.502147 0.162213
H17   H     H_    0.880726 0.800601 0.510627 0.162327
H18   H     H_    0.436706 0.389354 0.725512 0.099661
H19   H     H_    0.567953 0.576160 0.272505 0.129428
H20   H     H_    0.649432 0.443239 0.419765 0.171732
H21   H     H_    0.350860 0.562404 0.579522 0.148856
H22   H     H_    0.737169 0.439903 0.416302 0.144038
H23   H     H_    0.033646 0.187023 0.498449 0.104650
H24   H     H_    0.263028 0.563375 0.583511 0.146084
H25   H     H_    0.876967 0.188571 0.477087 0.162823
H26   H     H_    0.123739 0.808954 0.511861 0.163186
H27   H     H_    0.373797 0.451080 0.660146 0.127931
H28   H     H_    0.382966 0.289913 0.673794 0.093093
H29   H     H_    0.358675 0.332791 0.614776 0.146726
H30   H     H_    0.593985 0.729562 0.332195 0.080606
H31   H     H_    0.631485 0.703191 0.385247 0.137497
H32   H     H_    0.570301 0.739491 0.396718 0.151993
H33   H     H_    0.593371 0.249078 0.454003 0.122971
H34   H     H_    0.965474 0.807090 0.514752 0.105155
H35   H     H_    0.672796 0.204949 0.488924 0.133783
H36   H     H_    0.717828 0.028868 0.455894 0.154288
H37   H     H_    0.683848 0.898573 0.386429 0.112257
H38   H     H_    0.605121 0.944165 0.350033 0.112282
H39   H     H_    0.411418 0.745507 0.554024 0.129118
H40   H     H_    0.332430 0.789624 0.518220 0.131733
H41   H     H_    0.288561 0.970403 0.548239 0.150702
H42   H     H_    0.323657 0.106971 0.615071 0.107842
H43   H     H_    0.402180 0.064010 0.651617 0.097993
H44   H     H_    0.632469 0.273592 0.345701 0.118965
H45   H     H_    0.504267 0.205212 0.261285 0.176287
H46   H     H_    0.593851 0.355026 0.303930 0.169176
H47   H     H_    0.645691 0.281246 0.279733 0.156323
H48   H     H_    0.435421 0.013291 0.738468 0.074557
H49   H     H_    0.442457 0.883066 0.779579 0.147315
H50   H     H_    0.384015 0.929057 0.761779 0.148075
H51   H     H_    0.397312 0.837969 0.456323 0.094812
H52   H     H_    0.353460 0.730628 0.387149 0.131685
H53   H     H_    0.392343 0.702944 0.303594 0.169183
H54   H     H_    0.476121 0.780406 0.289726 0.149389
H55   H     H_    0.520813 0.883822 0.358960 0.086225
H56   H     H_    0.510936 0.813556 0.740436 0.132539
H57   H     H_    0.478877 0.130854 0.638099 0.110625
H58   H     H_    0.523178 0.228662 0.709017 0.137792
H59   H     H_    0.608366 0.297304 0.697826 0.168612
H60   H     H_    0.649657 0.261107 0.616036 0.130341
H61   H     H_    0.606582 0.153773 0.546313 0.096441
H62   H     H_    0.305307 0.268738 0.407292 0.132789
H63   H     H_    0.362406 0.256451 0.440201 0.123864
H64   H     H_    0.360703 0.272510 0.372874 0.119142
H65   H     H_    0.643152 0.739083 0.565370 0.118273
H66   H     H_    0.698035 0.711372 0.600205 0.131330
H67   H     H_    0.427073 0.186879 0.306928 0.111263
H68   H     H_    0.641446 0.712508 0.632072 0.118103
H69   H     H_    0.345133 0.748258 0.066407 0.108778
H70   H     H_    0.313966 0.937446 0.031772 0.112006
H71   H     H_    0.366552 0.072264 0.979695 0.111191
H72   H     H_    0.450901 0.017999 0.962576 0.107339
H73   H     H_    0.483167 0.830723 0.997772 0.113476
H74   H     H_    0.509606 0.172126 0.000350 0.114726
H75   H     H_    0.541166 0.983932 0.035442 0.113370
H76   H     H_    0.625403 0.928212 0.018668 0.114307
H77   H     H_    0.678656 0.062712 0.967171 0.112325
H78   H     H_    0.584965 0.833458 0.690245 0.110249
H79   H     H_    0.648274 0.253019 0.932797 0.108944
H80   H     H_    0.424787 0.127418 0.396055 0.108072
N1    N     N_R   0.201852 0.503194 0.508282 -0.392618
N2    N     N_R   0.798094 0.491711 0.492692 -0.391546
N3    N     N_R   0.494135 0.503847 0.213301 -0.383637
N4    N     N_R   0.500812 0.500797 0.785788 -0.387292
N5    N     N_R   0.500000 0.499970 0.374520 -0.213057
N6    N     N_R   0.500000 0.500030 0.625480 -0.213289
O1    O     O_R   0.500000 0.319660 0.542350 -0.453991
O2    O     O_2   0.559893 0.373628 0.211980 -0.532578
O3    O     O_2   0.200742 0.288307 0.505263 -0.515017
O4    O     O_2   0.798840 0.705716 0.502783 -0.516553
O5    O     O_2   0.795890 0.278046 0.481362 -0.518051
O6    O     O_2   0.204503 0.718005 0.512379 -0.513586
O7    O     O_2   0.429239 0.636400 0.213892 -0.544727
O8    O     O_2   0.567182 0.373265 0.785538 -0.545458
O9    O     O_3   0.431151 0.367302 0.622397 -0.534112
O10   O     O_3   0.582745 0.564082 0.369698 -0.567969
O11   O     O_3   0.589367 0.164141 0.297480 -0.561138
O12   O     O_R   0.500000 0.680340 0.457650 -0.496151
O13   O     O_3   0.421110 0.838742 0.705995 -0.532013
O14   O     O_3   0.347925 0.429621 0.413724 -0.579555
O15   O     O_3   0.651570 0.559284 0.587668 -0.568574
O16   O     O_R   0.500000 0.319630 0.457650 -0.513945
O17   O     O_R   0.500000 0.680370 0.542350 -0.516797
O18   O     O_R   0.430260 0.500030 0.542340 -0.472396
O19   O     O_R   0.569740 0.499970 0.457660 -0.465302
O20   O     O_R   0.430270 0.500010 0.457650 -0.475404
O21   O     O_R   0.569730 0.499990 0.542350 -0.469869
O22   O     O_2   0.432888 0.623233 0.785757 -0.495318

loop_
_geom_bond_atom_site_label_1
_geom_bond_atom_site_label_2
_ccdc_geom_bond_type
C8    C9    A    
C66   C68   A    
C96   C105  A    
C63   C65   A    
C117  O6    S    
C14   H51   S    
C134  H37   S    
C49   H1    S    
C27   H66   S    
C19   C20   A    
C53   H25   S    
C133  C134  A    
C59   H78   S    
C70   H56   S    
Cu1   Cu2   S    
C106  C112  A    
C11   H50   S    
C129  O10   S    
C67   O13   S    
C50   C54   A    
Cu2   O19   S    
C34   C40   A    
C1    C74   S    
C114  H6    S    
C28   C29   A    
C133  H36   S    
C84   C86   A    
C90   H9    S    
Cu2   O16   S    
C109  C111  A    
C63   C77   S    
C5    C6    A    
C58   N1    S    
C87   O9    S    
C61   H2    S    
C82   O2    S    
C81   C98   A    
C50   H12   S    
C15   C16   A    
C3    C130  A    
C62   C78   S    
C128  H28   S    
C29   H69   S    
Cu1   O18   S    
C7    H41   S    
C60   C62   A    
C42   C46   A    
Cu1   O21   S    
C61   C63   A    
C73   C77   A    
C4    C65   S    
C37   H75   S    
C62   C64   A    
C72   C77   A    
C127  H15   S    
C104  C116  A    
C33   H73   S    
C79   O7    S    
Cu2   N5    S    
C99   N1    A    
C44   C46   A    
C119  H24   S    
C65   C67   A    
Cu2   O12   S    
C23   H60   S    
C118  N2    A    
C107  C108  A    
C117  N1    A    
C51   O18   A    
C86   N5    A    
C71   C78   A    
C21   H58   S    
C32   H72   S    
C26   H64   S    
C43   C48   A    
C88   H7    S    
C9    H43   S    
C85   H18   S    
C47   O12   A    
C76   C103  A    
C55   H23   S    
C124  H16   S    
C13   C80   A    
C100  N2    A    
C76   C108  A    
C11   H49   S    
C21   C22   A    
C120  H22   S    
C10   H47   S    
C5    H39   S    
C19   C72   S    
C122  H20   S    
C102  C124  A    
C92   C94   A    
C120  C122  A    
C85   C87   A    
C11   O13   S    
C17   H54   S    
C18   H55   S    
C68   H45   S    
C75   C109  A    
C131  H33   S    
C59   C61   A    
C82   N3    A    
C66   O11   S    
C92   H10   S    
C69   N2    S    
C87   N6    A    
C41   C125  A    
C7    C8    A    
C47   C73   S    
C72   C74   A    
C52   O21   A    
C89   N6    A    
C71   C73   A    
C39   H77   S    
C132  C133  A    
C57   C60   A    
C46   C91   A    
C59   C70   A    
C36   H74   S    
C24   C53   A    
C81   N4    A    
C96   C110  A    
C83   O22   S    
C128  H27   S    
C27   H68   S    
C129  H31   S    
C80   C102  A    
C42   C45   A    
C64   C66   A    
C112  H5    S    
C37   C38   A    
C43   C44   A    
C107  C114  A    
C31   H71   S    
C29   C30   A    
C8    H42   S    
C85   C94   A    
C44   C56   A    
C3    H38   S    
C79   N3    A    
C31   C32   A    
C96   C98   A    
C35   C121  A    
C30   C31   A    
C115  H3    S    
C57   H67   S    
C94   N4    S    
C17   C18   A    
C19   C25   A    
C54   H26   S    
C89   C92   A    
C100  O4    S    
C26   H63   S    
C45   C55   A    
C99   O3    S    
C119  C121  A    
C2    C56   A    
C47   O17   A    
C129  H30   S    
C41   C122  A    
C132  H35   S    
C12   C71   S    
C88   C90   A    
C28   C33   A    
C58   C126  A    
C2    H17   S    
C81   O8    S    
C35   C51   S    
C128  H29   S    
C10   H46   S    
C22   H59   S    
C51   O20   A    
C93   N3    S    
C57   C68   A    
C131  C132  A    
C24   C91   A    
C20   H57   S    
C39   C40   A    
C125  O15   S    
C95   C104  A    
C27   O15   S    
C90   C93   A    
C75   C101  A    
C13   C54   A    
C106  C110  A    
C45   C48   A    
C26   O14   S    
Cu1   N6    S    
C55   C124  A    
C101  H11   S    
C10   O11   S    
C91   C113  A    
C41   C52   S    
C129  H32   S    
C56   H34   S    
C27   H65   S    
C107  C111  A    
C105  C115  A    
C22   C23   A    
C11   H48   S    
C14   C15   A    
C64   C130  S    
C4    C5    A    
C123  C126  A    
C114  C116  A    
C95   C97   A    
C43   C50   A    
C79   C97   A    
C6    C7    A    
C1    O16   A    
C128  O9    S    
C89   H8    S    
Cu1   O1    S    
C15   H52   S    
C69   C120  A    
C24   C118  A    
Cu2   O20   S    
C1    O1    A    
C3    C134  A    
C10   H44   S    
C32   C33   A    
C67   C70   A    
C35   C123  A    
C130  C131  A    
C12   C14   A    
C86   O10   S    
Cu1   O17   S    
C95   C111  A    
C52   O19   A    
C83   N4    A    
C126  H14   S    
C84   H19   S    
C48   C80   A    
C38   C39   A    
C6    H40   S    
C49   C53   A    
C40   H79   S    
C58   C119  A    
C2    C113  A    
C108  C110  A    
C34   C36   A    
C84   C93   A    
C23   C25   A    
C60   H80   S    
C26   H62   S    
C118  O5    S    
C25   H61   S    
C16   H53   S    
C103  H13   S    
C42   C49   A    
C123  O14   S    
C83   C105  A    
C99   C102  A    
C20   C21   A    
C69   C127  A    
C36   C37   A    
C74   C78   A    
C12   C18   A    
C13   C117  A    
C125  C127  A    
C82   C104  A    
C88   N5    A    
C121  H21   S    
C38   H76   S    
C4    C9    A    
C100  C113  A    
C28   C75   S    
C112  C115  A    
C97   C101  A    
C98   C103  A    
C16   C17   A    
C34   C76   S    
C116  H4    S    
C106  C109  A    
C30   H70   S    
