data_mof_unit_63116.cif
_audit_creation_date              2012-12-10T20:07:54-0500
_audit_creation_method            fapswitch 2.2
_symmetry_space_group_name_H-M    P1
_symmetry_Int_Tables_number       1
_space_group_crystal_system       triclinic
_cell_length_a                    13.20853
_cell_length_b                    18.536202
_cell_length_c                    19.177924
_cell_angle_alpha                 89.337518
_cell_angle_beta                  90.776911
_cell_angle_gamma                 69.492403
_cell_volume                      4396.80404249

loop_
_atom_site_label
_atom_site_type_symbol
_atom_type_description
_atom_site_fract_x
_atom_site_fract_y
_atom_site_fract_z
_atom_type_partial_charge
C1    C     C_R   0.499345 0.499798 0.634084 0.976539
C2    C     C_R   0.963833 0.482224 0.528777 -0.028202
C3    C     C_R   0.874293 0.483149 0.488113 -0.190782
C4    C     C_R   0.016145 0.534347 0.510845 -0.087320
C5    C     C_R   0.959697 0.602175 0.471742 -0.187259
C6    C     C_R   0.868185 0.603925 0.431842 0.427828
C7    C     C_R   0.834981 0.539877 0.434177 0.355527
C8    C     C_R   0.127727 0.515101 0.522324 0.480951
C9    C     C_R   0.110255 0.646982 0.492132 0.302308
C10   C     C_R   0.822544 0.430464 0.505215 -0.141467
C11   C     C_R   0.385084 0.544783 0.261301 0.320297
C12   C     C_R   0.704554 0.457173 0.498585 0.990900
C13   C     C_R   0.371783 0.551054 0.189083 0.366079
C14   C     C_R   0.460082 0.514158 0.146993 -0.088256
C15   C     C_R   0.561386 0.469619 0.175637 0.495709
C16   C     C_R   0.575304 0.462334 0.248423 0.326866
C17   C     C_R   0.487326 0.503047 0.290814 -0.339545
C18   C     C_R   0.416018 0.464737 0.035967 0.291204
C19   C     C_R   0.417499 0.464168 0.962649 0.410356
C20   C     C_R   0.451425 0.518137 0.927233 -0.024361
C21   C     C_R   0.478319 0.574887 0.962758 0.315983
C22   C     C_R   0.475949 0.575837 0.035301 0.351037
C23   C     C_R   0.499087 0.500402 0.365876 1.013870
C24   C     C_R   0.447314 0.519768 0.071456 -0.082921
C25   C     C_R   0.377546 0.558537 0.809090 0.461298
C26   C     C_R   0.387496 0.552935 0.736509 0.301694
C27   C     C_R   0.485382 0.502699 0.708660 -0.301237
C28   C     C_R   0.570830 0.456987 0.752138 0.242028
C29   C     C_R   0.559006 0.461490 0.824870 0.412788
C30   C     C_R   0.462916 0.512752 0.851963 -0.003985
C31   C     C_R   0.434311 0.290524 0.453669 0.473219
C32   C     C_R   0.432253 0.215191 0.452526 -0.273677
C33   C     C_R   0.497027 0.158582 0.498885 0.010167
C34   C     C_R   0.295189 0.542845 0.503457 0.974468
C35   C     C_R   0.563002 0.179373 0.546567 0.407264
C36   C     C_R   0.564188 0.255205 0.546377 0.417647
C37   C     C_R   0.580810 0.019958 0.463915 0.441458
C38   C     C_R   0.582913 0.942596 0.463060 0.344411
C39   C     C_R   0.500154 0.923080 0.496682 -0.070181
C40   C     C_R   0.416023 0.981794 0.529298 0.376159
C41   C     C_R   0.413878 0.058486 0.529004 0.281814
C42   C     C_R   0.496308 0.077826 0.496712 -0.115451
C43   C     C_R   0.431363 0.820630 0.452938 0.343749
C44   C     C_R   0.432017 0.743538 0.455144 0.332349
C45   C     C_R   0.002261 0.662412 0.469744 0.544062
C46   C     C_R   0.568053 0.709760 0.544172 0.382109
C47   C     C_R   0.569408 0.785642 0.543885 0.248153
C48   C     C_R   0.500500 0.841676 0.498066 -0.098473
C49   C     C_R   0.176345 0.570077 0.508581 -0.313042
C50   C     C_R   0.874609 0.366467 0.549219 0.365630
C51   C     C_R   0.961006 0.367964 0.592553 0.211245
C52   C     C_R   0.996899 0.431128 0.587275 0.408832
H1    H     H_    0.380238 0.200791 0.415250 0.229793
N1    N     N_R   0.499990 0.310560 0.500020 -0.215535
N2    N     N_R   0.500140 0.689420 0.500040 -0.196808
O1    O     O_R   0.500000 0.439160 0.601820 -0.617732
O2    O     O_R   0.500040 0.560780 0.601820 -0.572104
O3    O     O_R   0.653580 0.409000 0.499980 -0.610106
O4    O     O_R   0.653630 0.530610 0.499980 -0.579647
O5    O     O_R   0.499960 0.439220 0.398180 -0.592873
O6    O     O_R   0.500000 0.560840 0.398180 -0.529268
O7    O     O_R   0.346370 0.469390 0.500020 -0.524742
O8    O     O_R   0.346420 0.591000 0.500020 -0.590735
Zn1   Zn    Zn3+2 0.499970 0.418800 0.500000 1.075092
Zn2   Zn    Zn3+2 0.500030 0.581200 0.500000 1.100611
O9    O     O_3   0.149786 0.706582 0.493885 -0.667471
H2    H     H_    0.198643 0.697975 0.535228 0.375493
Cl1   Cl    Cl    0.244428 0.604708 0.151041 -0.339828
O10   O     O_3   0.644170 0.433411 0.130539 -0.668445
H3    H     H_    0.711570 0.405655 0.157168 0.416897
O11   O     O_3   0.674483 0.415172 0.275459 -0.683478
H4    H     H_    0.670497 0.407387 0.326241 0.363471
Cl2   Cl    Cl    0.380538 0.395323 0.084333 -0.440345
O12   O     O_3   0.389577 0.411395 0.923553 -0.672173
H5    H     H_    0.362323 0.379190 0.953993 0.406909
Cl3   Cl    Cl    0.518897 0.642893 0.916338 -0.349897
Cl4   Cl    Cl    0.512886 0.645389 0.081200 -0.346805
O13   O     O_3   0.285286 0.607113 0.840335 -0.668083
H6    H     H_    0.232110 0.636922 0.804438 0.416775
O14   O     O_3   0.300750 0.596946 0.694986 -0.717891
H7    H     H_    0.307820 0.576688 0.647207 0.327548
Cl5   Cl    Cl    0.693450 0.397775 0.714696 -0.480704
Cl6   Cl    Cl    0.803919 0.678666 0.370352 -0.373720
O15   O     O_3   0.638866 0.418365 0.871464 -0.664147
H8    H     H_    0.699008 0.381016 0.846357 0.412591
Cl7   Cl    Cl    0.349593 0.357335 0.393438 -0.477481
Cl8   Cl    Cl    0.645354 0.110878 0.607302 -0.345633
O16   O     O_3   0.631494 0.271130 0.594242 -0.625555
H9    H     H_    0.634803 0.321800 0.582686 0.414346
O17   O     O_3   0.660071 0.041437 0.432737 -0.675015
H10   H     H_    0.715598 0.996036 0.412599 0.416112
O18   O     O_3   0.666685 0.888399 0.428951 -0.666262
H11   H     H_    0.655111 0.838609 0.427202 0.387117
Cl9   Cl    Cl    0.313261 0.958956 0.572284 -0.351623
Cl10  Cl    Cl    0.308372 0.130625 0.570876 -0.379138
O19   O     O_3   0.365280 0.876889 0.407915 -0.667148
H12   H     H_    0.323103 0.855275 0.377089 0.406358
O20   O     O_3   0.936540 0.735516 0.448190 -0.629751
H13   H     H_    0.977889 0.770875 0.447555 0.413226
Cl11  Cl    Cl    0.343727 0.716796 0.400674 -0.413036
Cl12  Cl    Cl    0.654718 0.641594 0.603045 -0.431472
Cl13  Cl    Cl    0.657123 0.810671 0.601289 -0.367080
O21   O     O_3   0.192280 0.440311 0.539797 -0.655499
H14   H     H_    0.167301 0.404776 0.511919 0.357324
O22   O     O_3   0.832222 0.308150 0.553254 -0.676581
H15   H     H_    0.881401 0.263813 0.580382 0.420097
O23   O     O_3   0.060694 0.446358 0.638822 -0.650292
H16   H     H_    0.061075 0.415782 0.681449 0.402622
Cl14  Cl    Cl    0.020618 0.293814 0.655366 -0.402735
Cl15  Cl    Cl    0.753409 0.527771 0.364557 -0.495728
Cl16  Cl    Cl    0.271325 0.584924 0.314612 -0.389654

loop_
_geom_bond_atom_site_label_1
_geom_bond_atom_site_label_2
_ccdc_geom_bond_type
O8    Zn2   S    
C9    C45   A    
C44   Cl11  S    
C41   C42   A    
C35   C36   A    
C4    C8    A    
C20   C30   S    
C36   O16   S    
C21   Cl3   S    
C26   C27   A    
C29   C30   A    
N1    Zn1   S    
C37   O17   S    
C18   C24   A    
C33   C42   S    
C28   C29   A    
C1    O1    A    
C3    C7    A    
C45   O20   S    
C5    C6    A    
C31   C32   A    
C15   C16   A    
C38   O18   S    
C34   O7    A    
C18   C19   A    
C14   C24   S    
C37   C42   A    
C9    O9    S    
O18   H11   S    
O7    Zn1   S    
C12   O4    A    
C35   Cl8   S    
C19   C20   A    
C52   O23   S    
C16   C17   A    
C46   N2    A    
C50   O22   S    
O23   H16   S    
O1    Zn1   S    
C43   C48   A    
C12   O3    A    
O9    H2    S    
C51   Cl14  S    
C47   Cl13  S    
C21   C22   A    
C41   Cl10  S    
C16   O11   S    
C10   C12   S    
N2    Zn2   S    
C50   C51   A    
O3    Zn1   S    
C23   O5    A    
C15   O10   S    
C46   Cl12  S    
O12   H5    S    
C28   Cl5   S    
C51   C52   A    
C9    C49   A    
O15   H8    S    
C29   O15   S    
O2    Zn2   S    
C39   C40   A    
O13   H6    S    
C4    C5    A    
C25   C26   A    
C11   Cl16  S    
C26   O14   S    
C25   O13   S    
C2    C4    A    
C43   C44   A    
C37   C38   A    
C1    O2    A    
C47   C48   A    
O19   H12   S    
C43   O19   S    
C17   C23   S    
C20   C21   A    
C2    C52   A    
C40   C41   A    
C18   Cl2   S    
C22   C24   A    
C10   C50   A    
C32   H1    S    
O21   H14   S    
C1    C27   S    
C25   C30   A    
C46   C47   A    
C11   C17   A    
C34   C49   S    
C6    Cl6   S    
C19   O12   S    
C22   Cl4   S    
C40   Cl9   S    
O14   H7    S    
C6    C7    A    
O22   H15   S    
C7    Cl15  S    
O5    Zn1   S    
C32   C33   A    
C2    C3    A    
O11   H4    S    
C3    C10   A    
O4    Zn2   S    
C11   C13   A    
C44   N2    A    
O17   H10   S    
C38   C39   A    
C5    C45   A    
C34   O8    A    
C33   C35   A    
C31   N1    A    
O10   H3    S    
C8    O21   S    
C36   N1    A    
O6    Zn2   S    
C23   O6    A    
O16   H9    S    
O20   H13   S    
C27   C28   A    
C31   Cl7   S    
C14   C15   A    
C13   C14   A    
C8    C49   A    
C39   C48   S    
C13   Cl1   S    
