data_mof_unit_14374.cif
_audit_creation_date              2012-12-10T20:31:51-0500
_audit_creation_method            fapswitch 2.2
_symmetry_space_group_name_H-M    P1
_symmetry_Int_Tables_number       1
_space_group_crystal_system       triclinic
_cell_length_a                    9.958226
_cell_length_b                    10.686296
_cell_length_c                    15.464288
_cell_angle_alpha                 90.58208
_cell_angle_beta                  67.4471
_cell_angle_gamma                 90.380653
_cell_volume                      1519.72081867

loop_
_atom_site_label
_atom_site_type_symbol
_atom_type_description
_atom_site_fract_x
_atom_site_fract_y
_atom_site_fract_z
_atom_type_partial_charge
Br1   Br    Br    0.501400 0.683876 0.198782 -0.517340
Br2   Br    Br    0.718565 0.694400 0.735205 -0.476208
Br3   Br    Br    0.845290 0.281119 0.251434 -0.480167
Br4   Br    Br    0.871168 0.209367 0.887504 -0.464985
C1    C     C_R   0.499337 0.739369 0.501837 0.882547
C2    C     C_R   0.692060 0.367265 0.045494 -0.011149
C3    C     C_R   0.576830 0.452336 0.090029 0.017566
C4    C     C_R   0.408200 0.498696 0.676027 0.862619
C5    C     C_R   0.779774 0.328885 0.092756 -0.193906
C6    C     C_R   0.750610 0.369797 0.183896 0.225322
C7    C     C_R   0.573246 0.515049 0.171283 0.164767
C8    C     C_R   0.434797 0.933658 0.452134 0.127648
C9    C     C_R   0.496117 0.871320 0.505988 -0.093153
C10   C     C_R   0.548458 0.936978 0.565299 -0.181903
C11   C     C_R   0.548716 0.066742 0.564086 -0.179428
C12   C     C_R   0.399035 0.464311 0.918396 0.116259
C13   C     C_R   0.496649 0.128358 0.503589 -0.081333
C14   C     C_R   0.434229 0.061804 0.450736 0.158145
C15   C     C_3   0.476764 0.062479 0.346590 -0.447620
C16   C     C_R   0.499999 0.260440 0.499681 0.901448
C17   C     C_3   0.476118 0.921796 0.349292 -0.435305
C18   C     C_R   0.886230 0.553432 0.572401 0.167959
C19   C     C_R   0.964709 0.437626 0.434037 -0.084089
C20   C     C_R   0.107645 0.435354 0.433170 0.033438
C21   C     C_R   0.029312 0.558576 0.569770 0.079502
C22   C     C_3   0.013238 0.695065 0.596936 -0.303408
C23   C     C_R   0.259583 0.513731 0.973351 0.064445
C24   C     C_3   0.855493 0.685223 0.606071 0.020440
C25   C     C_R   0.591617 0.494527 0.324010 0.962590
C26   C     C_R   0.349136 0.493729 0.778168 -0.057174
C27   C     C_R   0.647637 0.465450 0.223516 -0.171154
C28   C     C_R   0.160577 0.535768 0.929744 -0.114324
C29   C     C_R   0.205666 0.526815 0.832629 -0.151668
C30   C     C_R   0.441797 0.457843 0.821354 -0.182430
C31   C     C_2   0.083270 0.593298 0.132522 0.940075
C32   C     C_2   0.211698 0.359365 0.356266 0.919736
C33   C     C_2   0.094772 0.786637 0.520920 0.950990
C34   C     C_R   0.496735 0.429951 0.960397 0.031761
C35   C     C_R   0.468993 0.470374 0.052442 0.070777
C36   C     C_R   0.329798 0.517608 0.106983 -0.152712
C37   C     C_R   0.224272 0.538353 0.069544 -0.049819
C38   C     C_R   0.619032 0.353300 0.913872 -0.216828
C39   C     C_R   0.713484 0.319597 0.956353 0.286196
H1    H     H_    0.863487 0.259210 0.062764 0.226120
H2    H     H_    0.825824 0.744981 0.557647 0.157658
H3    H     H_    0.048999 0.561823 0.969185 0.192398
H4    H     H_    0.130236 0.550222 0.800147 0.173212
H5    H     H_    0.551765 0.432872 0.777287 0.174118
H6    H     H_    0.299770 0.535390 0.180816 0.228112
H7    H     H_    0.638275 0.310657 0.846625 0.173114
H8    H     H_    0.924581 0.719697 0.151552 0.361928
H9    H     H_    0.264676 0.284334 0.226939 0.348124
H10   H     H_    0.136194 0.968333 0.486445 0.343047
H11   H     H_    0.591333 0.888377 0.610267 0.189632
H12   H     H_    0.591749 0.118650 0.608367 0.172742
H13   H     H_    0.390188 0.096573 0.324490 0.251766
H14   H     H_    0.586344 0.103184 0.308205 0.240015
H15   H     H_    0.387063 0.880050 0.332061 0.279097
H16   H     H_    0.585612 0.879898 0.312740 0.233917
H17   H     H_    0.938713 0.388171 0.381561 0.239836
H18   H     H_    0.027444 0.712806 0.663883 0.189008
N1    N     N_R   0.856900 0.500860 0.500610 -0.135685
N2    N     N_R   0.142540 0.500820 0.500610 -0.114711
O1    O     O_R   0.385310 0.683210 0.499990 -0.591148
O2    O     O_R   0.019658 0.690353 0.101681 -0.787995
O3    O     O_2   0.309986 0.304163 0.366777 -0.630941
O4    O     O_R   0.189249 0.341191 0.273095 -0.791940
O5    O     O_2   0.158861 0.751642 0.439934 -0.600215
O6    O     O_R   0.087630 0.914011 0.543431 -0.773999
O7    O     O_R   0.614650 0.683240 0.500000 -0.618950
O8    O     O_R   0.319830 0.499970 0.632240 -0.624233
O9    O     O_R   0.549170 0.500000 0.632250 -0.599036
O10   O     O_R   0.385350 0.316760 0.500000 -0.563153
O11   O     O_R   0.614690 0.316790 0.500010 -0.615420
O12   O     O_R   0.450830 0.500000 0.367750 -0.564795
O13   O     O_R   0.680170 0.500030 0.367760 -0.567739
O14   O     O_2   0.026078 0.557533 0.213416 -0.572277
Zn1   Zn    Zn3+2 0.346870 0.499980 0.499990 1.032381
Zn2   Zn    Zn3+2 0.653130 0.500020 0.500010 1.007884

loop_
_geom_bond_atom_site_label_1
_geom_bond_atom_site_label_2
_ccdc_geom_bond_type
C15   H13   S    
C33   O6    S    
Br1   C7    S    
O13   Zn2   S    
H10   O6    S    
C2    C5    A    
C32   O4    S    
C25   O13   A    
C15   H14   S    
C3    C7    A    
C20   C32   S    
C15   C17   S    
C22   H18   S    
C34   C38   A    
O9    Zn2   S    
C21   N2    A    
C34   C35   A    
C32   O3    D    
C31   O2    S    
C36   H6    S    
C33   O5    D    
C13   C16   S    
C14   C15   S    
H8    O2    S    
C12   C30   A    
C6    C27   A    
C19   N1    A    
C4    O8    A    
C18   C21   A    
C19   C20   A    
C5    C6    A    
C1    C9    S    
C12   C23   A    
O7    Zn2   S    
C7    C27   A    
C18   C24   S    
C9    C10   A    
O1    Zn1   S    
C19   H17   S    
C24   H2    S    
C4    O9    A    
C26   C30   A    
N1    Zn2   S    
C35   C36   A    
C21   C22   S    
C8    C17   S    
C31   O14   D    
C1    O1    A    
C11   H12   S    
C1    O7    A    
C18   N1    A    
C23   C37   A    
O10   Zn1   S    
C13   C14   A    
C16   O11   A    
H9    O4    S    
C38   H7    S    
C36   C37   A    
C10   H11   S    
C20   N2    A    
C2    C39   A    
C29   H4    S    
C30   H5    S    
C38   C39   A    
C11   C13   A    
C5    H1    S    
C26   C29   A    
C23   C28   A    
C28   H3    S    
C22   C33   S    
C17   H16   S    
C2    C3    A    
C25   O12   A    
Br4   C39   S    
C22   C24   S    
O11   Zn2   S    
C4    C26   S    
C28   C29   A    
C17   H15   S    
C25   C27   S    
Br3   C6    S    
C16   O10   A    
C31   C37   S    
O12   Zn1   S    
C8    C9    A    
C8    C14   A    
C3    C35   A    
C10   C11   A    
Br2   C24   S    
O8    Zn1   S    
C12   C34   A    
N2    Zn1   S    
