data_mof_unit_36834.cif
_audit_creation_date              2012-10-26T20:03:00-0400
_audit_creation_method            fapswitch 2.2
_symmetry_space_group_name_H-M    P1
_symmetry_Int_Tables_number       1
_space_group_crystal_system       triclinic
_cell_length_a                    10.807056
_cell_length_b                    12.298263
_cell_length_c                    13.249329
_cell_angle_alpha                 116.570485
_cell_angle_beta                  77.65067
_cell_angle_gamma                 100.882224
_cell_volume                      1529.7532186

loop_
_atom_site_label
_atom_site_type_symbol
_atom_type_description
_atom_site_fract_x
_atom_site_fract_y
_atom_site_fract_z
_atom_type_partial_charge
C1    C     C_R   0.511463 0.854902 0.286817 0.518142
C2    C     C_R   0.513599 0.565438 0.011182 0.039278
C3    C     C_R   0.471276 0.648198 0.124257 0.016402
C4    C     C_R   0.739592 0.998214 0.498193 0.530181
C5    C     C_R   0.478170 0.437830 0.978131 -0.013200
C6    C     C_R   0.404108 0.395002 0.058604 0.027077
C7    C     C_R   0.350517 0.480021 0.163865 -0.084934
C8    C     C_R   0.379714 0.604047 0.194119 -0.131136
C9    C     C_R   0.511563 0.351517 0.866459 -0.167701
C10   C     C_R   0.414889 0.185290 0.916448 -0.056735
C11   C     C_R   0.521239 0.773104 0.164237 -0.002112
C12   C     C_3   0.122254 0.006786 0.501723 0.043733
C13   C     C_R   0.721923 0.354628 0.344888 0.210471
C14   C     C_R   0.325419 0.758235 0.643595 0.059099
C15   C     C_R   0.288483 0.660740 0.673734 -0.145810
C16   C     C_R   0.486464 0.144944 0.712979 0.603743
C17   C     C_R   0.355433 0.558141 0.619663 -0.126098
C18   C     C_R   0.461207 0.551792 0.534232 0.011422
C19   C     C_R   0.494814 0.653718 0.506186 0.168346
C20   C     C_R   0.534632 0.448815 0.475998 -0.044944
C21   C     C_R   0.639965 0.448954 0.390132 0.026684
C22   C     C_R   0.659358 0.543389 0.353812 -0.023737
C23   C     C_3   0.044153 0.033179 0.624797 0.146049
C24   C     C_R   0.595756 0.647086 0.418074 -0.090891
C25   C     C_R   0.507726 0.344752 0.499687 0.021336
C26   C     C_R   0.680678 0.250135 0.363853 0.065040
C27   C     C_R   0.260171 0.001649 0.500194 0.610735
C28   C     C_3   0.954864 0.092344 0.454269 -0.187223
C29   C     C_3   0.099725 0.099332 0.452991 -0.012770
C30   C     C_3   0.900678 0.043628 0.627416 -0.121516
C31   C     C_3   0.922044 0.873412 0.424451 -0.273636
C32   C     C_3   0.876827 0.001888 0.502104 -0.005284
C33   C     C_3   0.728758 0.530187 0.237679 -0.341323
C34   C     C_3   0.065731 0.875746 0.423164 -0.294154
C35   C     C_3   0.165626 0.065040 0.327343 -0.325997
C36   C     C_3   0.146044 0.235810 0.522309 -0.330283
C37   C     C_3   0.851394 0.168440 0.711434 -0.350851
C38   C     C_R   0.380247 0.267739 0.028872 0.242470
C39   C     C_R   0.473660 0.227425 0.834318 -0.041683
C40   C     C_R   0.595310 0.817419 0.087066 -0.111703
C41   C     C_R   0.627731 0.738490 0.973819 -0.126623
C42   C     C_R   0.590984 0.613796 0.936482 -0.112354
Cu1   Cu    Cu3+1 0.529690 0.098270 0.475420 0.954408
Cu2   Cu    Cu3+1 0.470310 0.901730 0.524580 0.952024
H1    H     H_    0.920024 0.184163 0.505081 0.159013
H2    H     H_    0.686575 0.773536 0.915439 0.134579
H3    H     H_    0.932435 0.063992 0.366991 0.154256
H4    H     H_    0.328052 0.664525 0.272871 0.155822
H5    H     H_    0.738745 0.174939 0.326531 0.172697
H6    H     H_    0.435861 0.340545 0.567965 0.139290
H7    H     H_    0.273111 0.837482 0.685995 0.174177
H8    H     H_    0.321882 0.485522 0.646416 0.108785
H9    H     H_    0.207669 0.664657 0.739207 0.124525
H10   H     H_    0.625708 0.719195 0.392194 0.184433
H11   H     H_    0.867687 0.805250 0.455658 0.153805
H12   H     H_    0.078158 0.807316 0.452750 0.150266
H13   H     H_    0.903360 0.842892 0.335815 0.125309
H14   H     H_    0.117055 0.842681 0.334591 0.128404
H15   H     H_    0.447723 0.280578 0.237757 0.342150
H16   H     H_    0.672987 0.564037 0.198153 0.110228
H17   H     H_    0.823167 0.585049 0.244938 0.185321
H18   H     H_    0.737520 0.433227 0.177841 0.189986
H19   H     H_    0.049372 0.352922 0.353515 0.385219
H20   H     H_    0.269993 0.064782 0.316115 0.197196
H21   H     H_    0.125420 0.975247 0.266789 0.128207
H22   H     H_    0.148814 0.132456 0.298922 0.240152
H23   H     H_    0.841518 0.976198 0.657676 0.132764
H24   H     H_    0.100037 0.271116 0.611675 0.176057
H25   H     H_    0.249540 0.253594 0.519155 0.187872
H26   H     H_    0.121251 0.293699 0.486399 0.129487
H27   H     H_    0.922402 0.246746 0.714587 0.165601
H28   H     H_    0.764023 0.182080 0.689561 0.121315
H29   H     H_    0.823368 0.172147 0.798392 0.184799
H30   H     H_    0.246154 0.307790 0.799006 0.366567
H31   H     H_    0.039313 0.946896 0.634442 0.121746
H32   H     H_    0.389953 0.088175 0.891678 0.192592
H33   H     H_    0.282377 0.452137 0.222792 0.212169
H34   H     H_    0.561754 0.378477 0.800652 0.131937
H35   H     H_    0.632873 0.912796 0.115085 0.150654
H36   H     H_    0.626280 0.558770 0.848866 0.106557
N1    N     N_R   0.574690 0.246280 0.438200 -0.278211
N2    N     N_R   0.426100 0.754320 0.561190 -0.247637
O1    O     O_R   0.537340 0.972510 0.318130 -0.506545
O2    O     O_2   0.326633 0.075751 0.083486 -0.314743
O3    O     O_3   0.355144 0.288122 0.254191 -0.577636
O4    O     O_2   0.910904 0.320669 0.167270 -0.221996
O5    O     O_2   0.935934 0.508658 0.342918 -0.331541
O6    O     O_3   0.966118 0.303006 0.339790 -0.540963
O7    O     O_2   0.029510 0.198729 0.852106 -0.263364
O8    O     O_2   0.194297 0.062172 0.774232 -0.287051
O9    O     O_3   0.228335 0.245273 0.722782 -0.567731
O10   O     O_R   0.487200 0.806530 0.359650 -0.541157
O11   O     O_R   0.707380 0.082980 0.479220 -0.521770
O12   O     O_R   0.657240 0.917000 0.520740 -0.530320
O13   O     O_R   0.512800 0.193470 0.640350 -0.494797
O14   O     O_R   0.462660 0.027490 0.681870 -0.480770
O15   O     O_R   0.342760 0.083000 0.479260 -0.491536
O16   O     O_R   0.292620 0.917020 0.520780 -0.503651
O17   O     O_2   0.162555 0.213175 0.142137 -0.189292
S1    S     S_3+6 0.303074 0.207009 0.127311 -0.031963
S2    S     S_3+6 0.887016 0.375147 0.295403 -0.009724
S3    S     S_3+6 0.122961 0.137596 0.747815 -0.015481

loop_
_geom_bond_atom_site_label_1
_geom_bond_atom_site_label_2
_ccdc_geom_bond_type
C27   O16   A    
C34   H12   S    
C12   C29   S    
Cu1   O1    S    
C41   C42   A    
C1    C11   S    
H15   O3    S    
O6    S2    S    
C7    C8    A    
C28   H3    S    
C42   H36   S    
C29   C36   S    
C15   H9    S    
C28   C29   S    
Cu2   N2    S    
C5    C6    A    
O7    S3    D    
C23   S3    S    
C20   C25   A    
C35   H21   S    
C24   H10   S    
C9    C39   A    
C18   C19   A    
C25   H6    S    
O8    S3    D    
C1    O10   A    
O5    S2    D    
Cu2   O16   S    
C14   H7    S    
C33   H18   S    
Cu1   O13   S    
C41   H2    S    
C6    C38   A    
C35   H20   S    
C19   N2    A    
C30   H23   S    
Cu2   O10   S    
C7    H33   S    
C21   C22   A    
C25   N1    A    
C10   H32   S    
C17   H8    S    
C36   H26   S    
C28   H1    S    
C16   O14   A    
C12   C27   S    
O2    S1    D    
C23   C30   S    
C28   C32   S    
C3    C11   A    
C38   S1    S    
C3    C8    A    
C26   H5    S    
C35   H22   S    
C30   C37   S    
C10   C39   A    
H30   O9    S    
Cu1   Cu2   S    
C8    H4    S    
C5    C9    A    
Cu2   O14   S    
H19   O6    S    
O17   S1    D    
C12   C23   S    
C17   C18   A    
C40   H35   S    
C13   C21   A    
C33   H16   S    
C4    C32   S    
C4    O12   A    
C40   C41   A    
C26   N1    A    
C37   H27   S    
Cu1   N1    S    
C22   C24   A    
C13   C26   A    
C2    C5    A    
C14   N2    A    
O9    S3    S    
C12   C34   S    
C31   C34   S    
C36   H25   S    
C15   C17   A    
C22   C33   S    
C37   H29   S    
C27   O15   A    
C16   O13   A    
C31   C32   S    
Cu1   O15   S    
C23   H31   S    
C36   H24   S    
C6    C7    A    
C1    O1    A    
C29   C35   S    
C10   C38   A    
C31   H13   S    
C2    C3    A    
O3    S1    S    
C30   C32   S    
C2    C42   A    
Cu1   O11   S    
C19   C24   A    
C18   C20   A    
C9    H34   S    
C11   C40   A    
Cu2   O12   S    
C16   C39   S    
C4    O11   A    
C20   C21   A    
C33   H17   S    
C37   H28   S    
C34   H14   S    
C14   C15   A    
C31   H11   S    
O4    S2    D    
C13   S2    S    
