data_mof_unit_49670.cif
_audit_creation_date              2013-03-05T16:32:25-0500
_audit_creation_method            fapswitch 2.2
_symmetry_space_group_name_H-M    P1
_symmetry_Int_Tables_number       1
_space_group_crystal_system       triclinic
_cell_length_a                    10.627857
_cell_length_b                    10.884684
_cell_length_c                    9.546685
_cell_angle_alpha                 89.569971
_cell_angle_beta                  90.545593
_cell_angle_gamma                 90.245348
_cell_volume                      1104.2778151

loop_
_atom_site_label
_atom_site_type_symbol
_atom_site_description
_atom_site_fract_x
_atom_site_fract_y
_atom_site_fract_z
_atom_type_partial_charge
O1    O     O_R   0.500000 0.319640 0.618810 -0.586862
O2    O     O_R   0.500010 0.319680 0.381230 -0.598838
C1    C     C_R   0.500237 0.262885 0.500282 0.820883
O3    O     O_R   0.316850 0.499950 0.618770 -0.571637
O4    O     O_R   0.316860 0.499990 0.381190 -0.576423
C2    C     C_R   0.259304 0.500114 0.499271 0.798214
Cu1   Cu    Cu3+1 0.499990 0.499980 0.640670 0.972004
Cu2   Cu    Cu3+1 0.500010 0.500020 0.359330 0.984180
O5    O     O_R   0.499990 0.680320 0.618770 -0.572761
O6    O     O_R   0.500000 0.680360 0.381190 -0.537197
O7    O     O_R   0.683140 0.500010 0.618810 -0.594348
O8    O     O_R   0.683150 0.500050 0.381230 -0.594457
C3    C     C_R   0.495742 0.737364 0.498729 0.830148
C4    C     C_R   0.740765 0.500057 0.500628 0.779210
C5    C     C_3   0.042721 0.398052 0.563712 -0.169320
C6    C     C_3   0.956775 0.400496 0.432108 -0.172252
H1    H     H_    0.918160 0.318909 0.377095 0.141298
H2    H     H_    0.080721 0.314484 0.616073 0.144065
C7    C     C_3   0.877748 0.500036 0.501530 0.008474
C8    C     C_3   0.961546 0.497571 0.633170 -0.134100
C9    C     C_3   0.043492 0.599852 0.567037 -0.136656
C10   C     C_3   0.957540 0.602275 0.435379 -0.167739
C11   C     C_3   0.038873 0.502726 0.365955 -0.125163
C12   C     C_3   0.122460 0.500283 0.497812 0.011837
H3    H     H_    0.929360 0.494693 0.743178 0.139284
H4    H     H_    0.082106 0.681440 0.622085 0.178313
H5    H     H_    0.919442 0.685755 0.382915 0.144072
H6    H     H_    0.073142 0.504860 0.256454 0.155923
C13   C     C_R   0.497891 0.060688 0.620014 0.050853
C14   C     C_R   0.500540 0.130647 0.498435 -0.127772
C15   C     C_R   0.498948 0.067838 0.369939 -0.263015
H7    H     H_    0.498002 0.118314 0.271660 0.193825
C16   C     C_R   0.491826 0.939021 0.365990 0.337334
C17   C     C_R   0.491982 0.870421 0.494129 -0.216036
C18   C     C_R   0.493480 0.936910 0.617621 -0.018122
C19   C     C_3   0.479741 0.926048 0.772579 0.236739
C20   C     C_3   0.485728 0.067793 0.775278 -0.463120
H8    H     H_    0.560262 0.879274 0.825296 0.113891
H9    H     H_    0.396988 0.113033 0.807086 0.217151
H10   H     H_    0.572530 0.104308 0.826053 0.179886
C21   C     C_R   0.562481 0.589721 0.073593 0.391501
N1    N     N_R   0.500800 0.500930 0.147930 -0.203569
C22   C     C_R   0.428601 0.418758 0.074357 -0.073241
H11   H     H_    0.372737 0.351419 0.130159 0.145234
C23   C     C_R   0.428604 0.418742 0.925455 -0.058242
H12   H     H_    0.372708 0.351459 0.869597 0.139976
N2    N     N_R   0.500800 0.500890 0.852020 -0.196421
C24   C     C_R   0.562576 0.589610 0.926277 0.334110
C25   C     C_3   0.699956 0.617057 0.921934 -0.542574
C26   C     C_3   0.699867 0.617584 0.080821 -0.518181
H13   H     H_    0.754964 0.539900 0.878885 0.211289
H14   H     H_    0.720162 0.708618 0.874838 0.208376
H15   H     H_    0.756033 0.541414 0.127441 0.212732
H16   H     H_    0.719338 0.709665 0.125825 0.232511
N3    N     N_R   0.476355 0.882094 0.231962 0.131838
O9    O     O_R   0.372490 0.823133 0.203852 -0.306382
O10   O     O_R   0.549731 0.913757 0.129402 -0.408670
N4    N     N_R   0.356410 0.876643 0.811345 0.170289
O11   O     O_R   0.349330 0.784565 0.898427 -0.312361
O12   O     O_R   0.253604 0.919328 0.754240 -0.369980

loop_
_geom_bond_atom_site_label_1
_geom_bond_atom_site_label_2
_geom_bond_distance
_ccdc_geom_bond_type
C16   N3    1.433595 S    
C5    H2    1.110333 S    
C11   C12   1.533893 S    
C15   C16   1.404618 A    
C13   C14   1.383827 A    
C1    C14   1.439629 S    
C21   N1    1.364019 A    
C13   C18   1.348263 A    
C7    C8    1.533500 S    
C14   C15   1.408750 A    
Cu2   O8    1.955601 S    
C25   H14   1.111203 S    
C2    C12   1.454306 S    
N3    O9    1.301260 A    
C19   H8    1.111985 S    
C16   C17   1.428384 A    
C3    C17   1.449327 S    
C20   H9    1.111680 S    
C5    C12   1.530938 S    
C23   H12   1.081539 S    
Cu1   O7    1.959620 S    
C22   C23   1.421520 A    
C26   H16   1.111292 S    
O3    Cu1   1.955601 S    
O4    C2    1.287676 A    
C9    C10   1.546869 S    
C24   C25   1.489961 S    
C9    H4    1.110417 S    
Cu2   N1    2.018217 S    
O6    C3    1.287568 A    
O2    C1    1.289703 A    
C6    C11   1.545952 S    
C19   N4    1.464380 S    
C10   H5    1.110360 S    
N3    O10   1.301053 A    
C22   H11   1.081656 S    
C6    C7    1.532227 S    
C5    C8    1.545011 S    
C17   C18   1.387895 A    
O7    C4    1.288861 A    
C9    C12   1.531261 S    
C26   H15   1.111496 S    
C8    H3    1.107786 S    
N4    O12   1.302329 A    
C20   H10   1.111399 S    
N2    C24   1.364599 A    
C21   C26   1.491066 S    
Cu1   Cu2   2.685862 S    
C7    C10   1.532295 S    
C8    C9    1.545358 S    
Cu2   O6    1.975564 S    
C25   C26   1.516912 S    
N1    C22   1.369446 A    
C23   N2    1.369192 A    
C13   C20   1.491723 S    
Cu1   O5    1.972485 S    
C25   H13   1.109030 S    
O4    Cu2   1.959621 S    
C10   C11   1.546045 S    
C19   C20   1.544287 S    
O5    C3    1.299781 A    
O1    Cu1   1.975564 S    
N4    O11   1.299734 A    
C11   H6    1.110312 S    
O3    C2    1.289262 A    
C4    C7    1.455787 S    
C21   C24   1.406393 A    
C15   H7    1.083691 S    
O2    Cu2   1.972487 S    
C5    C6    1.546407 S    
O8    C4    1.288762 A    
C6    H1    1.110257 S    
O1    C1    1.293291 A    
C18   C19   1.491668 S    
Cu1   N2    2.017728 S    
