data_mof_unit_26370.cif
_audit_creation_date              2012-12-11T14:49:53-0500
_audit_creation_method            fapswitch 2.2
_symmetry_space_group_name_H-M    P1
_symmetry_Int_Tables_number       1
_space_group_crystal_system       triclinic
_cell_length_a                    16.893934
_cell_length_b                    16.788273
_cell_length_c                    19.439
_cell_angle_alpha                 117.896976
_cell_angle_beta                  62.652395
_cell_angle_gamma                 100.556632
_cell_volume                      4324.47277641

loop_
_atom_site_label
_atom_site_type_symbol
_atom_type_description
_atom_site_fract_x
_atom_site_fract_y
_atom_site_fract_z
_atom_type_partial_charge
C1    C     C_R   0.042368 0.758779 0.009356 -0.208573
C2    C     C_R   0.251432 0.518326 0.826898 -0.117175
C3    C     C_R   0.183723 0.490330 0.087815 -0.114334
C4    C     C_R   0.766913 0.415456 0.161667 0.359545
C5    C     C_R   0.982617 0.347178 0.762453 0.388383
C6    C     C_R   0.258172 0.539714 0.064508 0.057716
C7    C     C_R   0.935097 0.270205 0.759024 -0.051202
C8    C     C_R   0.256071 0.456193 0.745995 0.025374
C9    C     C_R   0.038562 0.224096 0.997485 0.038207
C10   C     C_R   0.844576 0.140745 0.704831 -0.220297
C11   C     C_R   0.901001 0.211134 0.694276 0.139919
C12   C     C_R   0.768724 0.434442 0.238461 -0.158445
C13   C     C_R   0.933948 0.217582 0.616269 -0.172541
C14   C     C_R   0.915508 0.153430 0.548458 0.096094
C15   C     C_R   0.868769 0.077302 0.555805 0.037006
C16   C     C_R   0.805092 0.563770 0.965009 -0.059232
C17   C     C_R   0.830802 0.072006 0.635017 0.122011
C18   C     C_R   0.951823 0.159490 0.470189 -0.130164
C19   C     C_R   0.950162 0.086025 0.396852 -0.188442
C20   C     C_R   0.914524 0.005459 0.401113 0.130867
C21   C     C_R   0.869818 0.002160 0.481401 0.038247
C22   C     C_R   0.835604 0.920729 0.485760 0.126475
C23   C     C_R   0.724246 0.552817 0.025882 -0.016213
C24   C     C_R   0.790230 0.918476 0.566012 -0.173286
C25   C     C_R   0.787228 0.994169 0.640551 -0.172456
C26   C     C_R   0.932763 0.925946 0.325735 -0.237189
C27   C     C_R   0.912707 0.842965 0.329764 0.113013
C28   C     C_R   0.950261 0.673857 0.247745 -0.079892
C29   C     C_R   0.856606 0.841252 0.409427 -0.234642
C30   C     C_R   0.419832 0.414736 0.663913 -0.182392
C31   C     C_R   0.335641 0.412264 0.665273 0.105601
C32   C     C_R   0.328128 0.377382 0.587714 -0.234108
C33   C     C_R   0.402990 0.362188 0.511711 0.155462
C34   C     C_R   0.959434 0.759923 0.253304 0.034252
C35   C     C_R   0.488164 0.374551 0.511141 0.057835
C36   C     C_R   0.497845 0.395316 0.586202 -0.015380
C37   C     C_R   0.392533 0.344759 0.438661 -0.195503
C38   C     C_R   0.464789 0.350359 0.368414 -0.180716
C39   C     C_R   0.548439 0.368699 0.369346 0.136436
C40   C     C_R   0.739200 0.486451 0.042159 -0.077888
C41   C     C_R   0.562134 0.373951 0.437586 -0.009908
C42   C     C_R   0.648139 0.386330 0.434887 -0.056195
C43   C     C_R   0.660007 0.393894 0.505142 0.416430
C44   C     C_R   0.584759 0.401032 0.581941 -0.239049
C45   C     C_R   0.250448 0.568335 0.011628 -0.131954
C46   C     C_R   0.616456 0.389538 0.306508 -0.178903
C47   C     C_R   0.702154 0.404153 0.302894 0.131446
C48   C     C_R   0.718935 0.395886 0.363839 -0.119086
C49   C     C_R   0.637635 0.596996 0.061431 0.110236
C50   C     C_R   0.325952 0.566860 0.097936 0.122854
C51   C     C_R   0.405276 0.538221 0.161451 -0.193881
C52   C     C_R   0.022943 0.752780 0.173217 -0.115978
C53   C     C_R   0.330044 0.528603 0.146946 -0.153757
C54   C     C_R   0.392931 0.624150 0.073123 -0.244014
C55   C     C_R   0.470547 0.629454 0.082677 0.150732
C56   C     C_R   0.917840 0.265434 0.834146 -0.173041
C57   C     C_R   0.478085 0.582902 0.123965 0.177438
C58   C     C_R   0.561168 0.571378 0.117006 -0.250057
C59   C     C_R   0.628363 0.653453 0.030127 -0.117648
C60   C     C_R   0.544493 0.670990 0.042139 -0.160460
C61   C     C_R   0.864007 0.195765 0.168882 0.160712
C62   C     C_R   0.959019 0.863527 0.999734 0.152058
C63   C     C_R   0.835384 0.953744 0.034201 -0.114272
C64   C     C_R   0.844226 0.484730 0.238801 0.366632
C65   C     C_R   0.878539 0.870028 0.997557 -0.183097
C66   C     C_R   0.997730 0.943217 0.038207 -0.245624
C67   C     C_R   0.170193 0.448449 0.752603 -0.050963
C68   C     C_R   0.954565 0.027603 0.078199 0.192759
C69   C     C_R   0.872198 0.033784 0.077436 0.063221
C70   C     C_R   0.827511 0.119204 0.124054 -0.195356
C71   C     C_R   0.945363 0.189187 0.168175 -0.159402
C72   C     C_R   0.990830 0.105707 0.122777 -0.228120
C73   C     C_R   0.966947 0.689480 0.930651 0.399135
C74   C     C_R   0.993541 0.774007 0.975180 -0.022940
C75   C     C_2   0.932102 0.164416 0.929464 0.994866
C76   C     C_2   0.598457 0.416413 0.657205 1.120643
C77   C     C_2   0.750772 0.953564 0.028180 1.021217
C78   C     C_R   0.057902 0.309456 0.047332 -0.120148
C79   C     C_R   0.978478 0.238434 0.973340 -0.059224
Cl1   Cl    Cl    0.978167 0.418891 0.720860 -0.612365
Cl2   Cl    Cl    0.717333 0.321439 0.106393 -0.657926
Cl3   Cl    Cl    0.768220 0.403694 0.501089 -0.562317
Cl4   Cl    Cl    0.901971 0.498609 0.299179 -0.684365
Cl5   Cl    Cl    0.954124 0.659653 0.836705 -0.577971
H1    H     H_    0.083582 0.806762 0.037241 0.118908
H2    H     H_    0.983424 0.089738 0.335710 0.135586
H3    H     H_    0.970901 0.928875 0.264601 0.118186
H4    H     H_    0.836076 0.778066 0.413424 0.136257
H5    H     H_    0.762230 0.856639 0.570382 0.151049
H6    H     H_    0.756628 0.989521 0.701193 0.146378
H7    H     H_    0.423689 0.436416 0.724031 0.143924
H8    H     H_    0.264118 0.372046 0.586441 0.129943
H9    H     H_    0.327307 0.334302 0.438593 0.143292
H10   H     H_    0.454625 0.343975 0.314922 0.144706
H11   H     H_    0.599859 0.400129 0.263852 0.164207
H12   H     H_    0.867063 0.225828 0.860479 0.167243
H13   H     H_    0.816205 0.609300 0.937518 0.153722
H14   H     H_    0.785576 0.400240 0.358162 0.233057
H15   H     H_    0.566234 0.532590 0.146301 0.123341
H16   H     H_    0.685688 0.678447 0.990857 0.150732
H17   H     H_    0.409837 0.503302 0.194451 0.135796
H18   H     H_    0.539112 0.708899 0.012019 0.155876
H19   H     H_    0.278349 0.486319 0.169302 0.126510
H20   H     H_    0.389864 0.657345 0.038311 0.123973
H21   H     H_    0.763106 0.128027 0.129082 0.197126
H22   H     H_    0.904784 0.654327 0.297333 0.156267
H23   H     H_    0.147768 0.403488 0.704231 0.125118
H24   H     H_    0.973054 0.249063 0.203065 0.161750
H25   H     H_    0.053546 0.101915 0.123889 0.134064
H26   H     H_    0.846774 0.809220 0.969876 0.175248
H27   H     H_    0.059565 0.939662 0.040854 0.120397
H28   H     H_    0.691923 0.460868 0.086480 0.146112
H29   H     H_    0.050100 0.807315 0.156255 0.094457
H30   H     H_    0.288761 0.618382 0.990928 0.100298
H31   H     H_    0.815997 0.114921 0.924533 0.351220
H32   H     H_    0.651533 0.369657 0.706152 0.336284
H33   H     H_    0.673861 0.009869 0.006767 0.335575
H34   H     H_    0.100886 0.324508 0.078934 0.119876
H35   H     H_    0.306019 0.539899 0.845132 0.116790
H36   H     H_    0.161030 0.469190 0.138319 0.116763
H37   H     H_    0.817622 0.134413 0.764302 0.131524
H38   H     H_    0.981709 0.266468 0.603187 0.179969
H39   H     H_    0.986151 0.218894 0.464561 0.156593
N1    N     N_R   0.036080 0.671900 0.995420 -0.065078
N2    N     N_R   0.867430 0.509300 0.948100 -0.035275
N3    N     N_R   0.003360 0.617250 0.167070 -0.034602
N4    N     N_R   0.825450 0.461270 0.995400 -0.038484
N5    N     N_R   0.045340 0.665280 0.119770 -0.046845
N6    N     N_R   0.883740 0.497640 0.167070 -0.109540
N7    N     N_R   0.987050 0.628910 0.948110 -0.079541
N8    N     N_R   0.174550 0.538730 0.004600 -0.049205
N9    N     N_R   0.954660 0.334720 0.880230 -0.072909
N10   N     N_R   0.116260 0.502360 0.832930 -0.029395
N11   N     N_R   0.012950 0.371090 0.051890 -0.047950
N12   N     N_R   0.963920 0.328100 0.004580 -0.062764
N13   N     N_R   0.165290 0.545350 0.880240 -0.048894
N14   N     N_R   0.132570 0.490700 0.051900 -0.041447
N15   N     N_R   0.996640 0.382750 0.832930 -0.087415
N16   N     N_R   0.834710 0.454650 0.119760 -0.108019
Ni1   Ni    Ni4+2 0.104370 0.604370 0.000010 0.209718
Ni2   Ni    Ni4+2 0.895630 0.395630 0.999990 0.281376
Ni3   Ni    Ni4+2 0.991920 0.505780 0.891500 0.326882
Ni4   Ni    Ni4+2 0.008080 0.494220 0.108500 0.261176
O1    O     O_2   0.974172 0.095300 0.868746 -0.625217
O2    O     O_R   0.839756 0.170102 0.960715 -0.729460
O3    O     O_2   0.570564 0.486611 0.723458 -0.645796
O4    O     O_R   0.645554 0.351318 0.651153 -0.746644
O5    O     O_2   0.697696 0.894584 0.035856 -0.651146
O6    O     O_R   0.733137 0.018020 0.010149 -0.786371

loop_
_geom_bond_atom_site_label_1
_geom_bond_atom_site_label_2
_ccdc_geom_bond_type
C61   C70   A    
C66   C68   A    
C63   C65   A    
C6    C45   A    
C27   C29   A    
N16   Ni2   S    
C41   C42   A    
C14   C18   A    
C35   C36   A    
N13   Ni1   S    
C19   H2    S    
C24   H5    S    
C52   N5    A    
C5    N15   A    
C40   H28   S    
C52   H29   S    
C75   O2    S    
C7    C11   S    
C25   H6    S    
C50   C54   A    
C1    C74   A    
C54   H20   S    
C22   C29   A    
C73   N7    A    
C9    C79   A    
C30   C31   A    
C12   C64   A    
C16   H13   S    
C23   C49   S    
C10   C17   A    
N9    N15   A    
C23   C40   A    
N3    Ni4   S    
C3    H36   S    
C56   H12   S    
C18   C19   A    
N4    Ni2   S    
C44   C76   S    
C29   H4    S    
N8    Ni1   S    
N11   Ni4   S    
C72   H25   S    
C45   H30   S    
C46   H11   S    
C63   C69   A    
C76   O4    S    
C28   H22   S    
C26   H3    S    
N10   N13   A    
C3    N14   A    
C66   H27   S    
C4    C12   A    
C16   N2    A    
C73   Cl5   S    
C75   O1    D    
C18   H39   S    
C55   C60   A    
C61   C71   A    
N14   Ni4   S    
C76   O3    D    
C59   C60   A    
C13   C14   A    
C59   H16   S    
C7    C56   A    
C12   C47   S    
C60   H18   S    
C28   N3    A    
C27   C34   S    
C1    H1    S    
C38   C39   A    
C50   C53   A    
C62   C66   A    
N1    N7    A    
C24   C25   A    
C39   C41   A    
N15   Ni3   S    
C77   O6    S    
C5    C7    A    
C68   C69   A    
C40   N4    A    
C33   C37   A    
C49   C58   A    
C51   C53   A    
C43   C44   A    
C64   Cl4   S    
C37   C38   A    
N8    N14   A    
C47   C48   A    
N6    N16   A    
N12   Ni2   S    
N2    Ni3   S    
C68   C72   A    
C38   H10   S    
N10   Ni3   S    
C37   H9    S    
C42   C48   A    
C6    C50   S    
C5    Cl1   S    
C78   N11   A    
C77   O5    D    
C56   N9    A    
C35   C41   A    
C39   C46   A    
C51   C57   A    
C78   H34   S    
C45   N8    A    
C16   C23   A    
C55   C57   A    
C26   C27   A    
C22   C24   A    
C36   C44   A    
C42   C43   A    
C73   C74   A    
C48   H14   S    
C63   C77   S    
N9    Ni2   S    
C15   C17   A    
C46   C47   A    
N3    N5    A    
C54   C55   A    
C62   C65   A    
C67   N10   A    
C8    C31   S    
N1    Ni1   S    
C31   C32   A    
C2    C8    A    
C58   H15   S    
C30   H7    S    
C70   H21   S    
H32   O4    S    
C2    H35   S    
N11   N12   A    
N6    Ni4   S    
C64   N6    A    
C51   H17   S    
C79   N12   A    
H31   O2    S    
C34   C52   A    
C49   C59   A    
C30   C36   A    
C17   C25   A    
C32   C33   A    
C19   C20   A    
N5    Ni1   S    
C1    N1    A    
C71   C72   A    
C4    N16   A    
C13   H38   S    
C11   C13   A    
C67   H23   S    
C57   C58   A    
C32   H8    S    
C20   C26   A    
C53   H19   S    
C4    Cl2   S    
C33   C35   A    
C10   H37   S    
C9    C78   A    
C69   C70   A    
N7    Ni3   S    
C2    N13   A    
C65   H26   S    
C10   C11   A    
C28   C34   A    
C15   C21   A    
C20   C21   A    
C8    C67   A    
C3    C6    A    
N2    N4    A    
C43   Cl3   S    
C14   C15   A    
C62   C74   S    
H33   O6    S    
C21   C22   A    
C75   C79   S    
C71   H24   S    
