data_mof_unit_54619.cif
_audit_creation_date              2012-12-11T18:11:11-0500
_audit_creation_method            fapswitch 2.2
_symmetry_space_group_name_H-M    P1
_symmetry_Int_Tables_number       1
_space_group_crystal_system       triclinic
_cell_length_a                    8.344934
_cell_length_b                    12.736723
_cell_length_c                    18.64948
_cell_angle_alpha                 99.080457
_cell_angle_beta                  90.722232
_cell_angle_gamma                 98.856616
_cell_volume                      1932.63588086

loop_
_atom_site_label
_atom_site_type_symbol
_atom_type_description
_atom_site_fract_x
_atom_site_fract_y
_atom_site_fract_z
_atom_type_partial_charge
Ba1   Ba    Ba6+2 0.852780 0.548340 0.465070 1.680137
Ba2   Ba    Ba6+2 0.337060 0.451750 0.534940 1.687894
C1    C     C_3   0.684824 0.932574 0.294379 0.290646
C2    C     C_3   0.653368 0.816617 0.309960 0.383078
C3    C     C_3   0.463709 0.287495 0.314337 0.300705
C4    C     C_3   0.438975 0.255733 0.232279 -0.401075
C5    C     C_3   0.022983 0.233673 0.728009 0.392068
C6    C     C_3   0.988680 0.199846 0.801655 -0.363585
C7    C     C_3   0.521891 0.211659 0.775072 0.898774
C8    C     C_3   0.473640 0.169205 0.845156 -0.244340
C9    C     C_R   0.000059 0.441071 0.047602 0.024371
C10   C     C_R   0.907633 0.382323 0.095332 -0.080680
C11   C     C_R   0.770529 0.421949 0.958049 -0.104042
C12   C     C_3   0.125495 0.827526 0.257503 0.888422
C13   C     C_R   0.936952 0.451871 0.978225 0.019740
C14   C     C_R   0.712494 0.427038 0.888610 -0.085442
C15   C     C_R   0.818098 0.457714 0.835313 -0.003804
C16   C     C_R   0.980911 0.502246 0.856782 0.014557
C17   C     C_R   0.040715 0.499895 0.928627 0.026136
C18   C     C_R   0.765809 0.447599 0.761633 0.016187
C19   C     C_R   0.872543 0.487854 0.711878 -0.230421
C20   C     C_R   0.026748 0.544081 0.733766 0.029155
C21   C     C_R   0.082093 0.552078 0.807175 -0.047411
C22   C     C_R   0.162098 0.487764 0.069562 0.039743
C23   C     C_3   0.048832 0.880579 0.199532 -0.311338
C24   C     C_R   0.220138 0.486683 0.141861 0.041099
C25   C     C_R   0.117406 0.437384 0.191443 -0.007246
C26   C     C_R   0.965767 0.379647 0.165245 -0.027207
C27   C     C_R   0.233751 0.609687 0.833188 -0.012205
C28   C     C_R   0.294296 0.605331 0.902385 -0.083324
C29   C     C_R   0.202920 0.546521 0.950414 0.000695
C30   C     C_R   0.265126 0.538252 0.020624 0.016889
C31   C     C_R   0.428524 0.577114 0.043416 -0.118281
C32   C     C_R   0.378771 0.538558 0.165441 -0.025579
C33   C     C_R   0.483575 0.577665 0.114178 -0.119129
C34   C     C_3   0.239273 0.782197 0.615149 0.266744
C35   C     C_R   0.426821 0.551195 0.239768 -0.018159
C36   C     C_R   0.318704 0.511731 0.289151 -0.249521
C37   C     C_R   0.166789 0.452492 0.266240 0.085042
C38   C     C_R   0.772221 0.179189 0.516875 -0.285422
C39   C     C_R   0.439517 0.804924 0.464195 -0.294428
C40   C     C_R   0.413099 0.981267 0.438466 -0.098332
C41   C     C_R   0.351515 0.872683 0.433971 0.027069
C42   C     C_R   0.585870 0.845869 0.503358 0.046881
C43   C     C_R   0.653705 0.956896 0.505981 -0.079923
C44   C     C_R   0.563987 0.025188 0.473488 -0.087066
C45   C     C_3   0.313475 0.900097 0.632861 -0.351090
C46   C     C_R   0.623698 0.136926 0.480259 0.042387
C47   C     C_R   0.865903 0.112986 0.545115 -0.030163
C48   C     C_R   0.805238 0.003285 0.541424 -0.105429
C49   C     C_3   0.981564 0.204482 0.376181 0.251436
C50   C     C_3   0.074047 0.110755 0.363183 -0.340157
C51   C     C_3   0.798701 0.770236 0.689473 0.563241
C52   C     C_3   0.912721 0.875629 0.713595 -0.317682
H1    H     H_    0.722981 0.816257 0.361136 0.019728
H2    H     H_    0.436913 0.907180 0.657516 0.145948
H3    H     H_    0.319613 0.936683 0.582794 0.083022
H4    H     H_    0.240703 0.945618 0.672076 0.173138
H5    H     H_    0.851675 0.172461 0.379999 -0.010226
H6    H     H_    0.027244 0.255837 0.428209 0.068628
H7    H     H_    0.034976 0.060981 0.310527 0.120744
H8    H     H_    0.056459 0.062995 0.408063 0.111980
H9    H     H_    0.203178 0.139443 0.357064 0.139881
H10   H     H_    0.862445 0.708124 0.658869 -0.009072
H11   H     H_    0.597051 0.978641 0.324084 0.022183
H12   H     H_    0.968571 0.905202 0.665838 0.071529
H13   H     H_    0.009734 0.864164 0.751505 0.125503
H14   H     H_    0.844470 0.937371 0.741687 0.125279
H15   H     H_    0.522479 0.795575 0.319582 -0.040495
H16   H     H_    0.349622 0.310536 0.337058 -0.001826
H17   H     H_    0.562709 0.357525 0.325903 0.070812
H18   H     H_    0.347256 0.181760 0.219044 0.126723
H19   H     H_    0.396345 0.320990 0.208239 0.049755
H20   H     H_    0.555241 0.241156 0.207426 0.098641
H21   H     H_    0.806779 0.968152 0.316821 -0.007027
H22   H     H_    0.064935 0.841606 0.143156 0.072193
H23   H     H_    0.120770 0.304795 0.735392 0.078416
H24   H     H_    0.910450 0.256785 0.707088 -0.106865
H25   H     H_    0.098552 0.176961 0.824775 0.123039
H26   H     H_    0.952476 0.267313 0.839760 0.073781
H27   H     H_    0.888882 0.130285 0.796061 0.110899
H28   H     H_    0.655882 0.238787 0.781459 -0.285524
H29   H     H_    0.486146 0.235074 0.892342 0.032511
H30   H     H_    0.552847 0.110331 0.855753 0.067372
H31   H     H_    0.346294 0.127518 0.840313 0.098251
H32   H     H_    0.830676 0.481413 0.655955 0.068022
H33   H     H_    0.583465 0.407327 0.877463 0.087091
H34   H     H_    0.887611 0.333840 0.198787 0.087875
H35   H     H_    0.308862 0.658788 0.800512 0.148785
H36   H     H_    0.608722 0.611960 0.128372 0.129233
H37   H     H_    0.356828 0.522839 0.345887 0.054270
H38   H     H_    0.680950 0.397151 0.995755 0.073188
H39   H     H_    0.789439 0.336188 0.079662 0.051784
H40   H     H_    0.412631 0.651499 0.917243 0.098910
H41   H     H_    0.517865 0.608092 0.007672 0.090626
H42   H     H_    0.339995 0.030693 0.415310 0.094477
H43   H     H_    0.876960 0.956776 0.567763 0.110156
H44   H     H_    0.817323 0.264498 0.522092 0.058007
H45   H     H_    0.387525 0.721104 0.461574 0.060814
H46   H     H_    0.917616 0.871694 0.205396 0.183536
H47   H     H_    0.101578 0.966962 0.204740 0.068017
H48   H     H_    0.329862 0.736621 0.587453 0.033693
H49   H     H_    0.131011 0.774060 0.578607 0.072717
O1    O     O_2   0.873090 0.425890 0.325140 -0.447748
O2    O     O_3   0.665141 0.790840 0.650793 -0.626164
O3    O     O_3   0.067513 0.869961 0.325586 -0.619344
O4    O     O_2   0.316610 0.574140 0.674900 -0.414553
O5    O     O_3   0.067290 0.565720 0.585630 -0.508250
O6    O     O_3   0.530210 0.372990 0.631200 -0.456960
O7    O     O_3   0.194964 0.745531 0.679932 -0.635785
O8    O     O_3   0.611340 0.366290 0.463630 -0.475479
O9    O     O_3   0.108550 0.314140 0.595200 -0.490997
O10   O     O_2   0.205157 0.123388 0.555886 -0.458982
O11   O     O_3   0.072698 0.147930 0.681047 -0.585369
O12   O     O_3   0.122420 0.434370 0.414380 -0.501685
O13   O     O_3   0.578370 0.633800 0.536380 -0.460843
O14   O     O_2   0.341510 0.231850 0.465510 -0.476707
O15   O     O_3   0.503933 0.199352 0.343286 -0.657776
O16   O     O_2   0.467812 0.492515 0.753261 -0.438617
O17   O     O_3   0.435193 0.295781 0.766737 -0.620732
O18   O     O_3   0.659500 0.627100 0.368810 -0.483116
O19   O     O_2   0.751873 0.538451 0.241858 -0.435312
O20   O     O_3   0.996581 0.254745 0.314801 -0.658713
O21   O     O_3   0.701092 0.741162 0.253475 -0.580156
O22   O     O_2   0.848200 0.768190 0.534530 -0.501686
O23   O     O_3   0.081160 0.685950 0.404810 -0.438288
O24   O     O_2   0.042760 0.878275 0.462965 -0.498620
P1    P     P_3+3 0.041040 0.394770 0.336330 0.981919
P2    P     P_3+3 0.672880 0.754030 0.556100 0.975254
P3    P     P_3+3 0.140696 0.823524 0.402458 1.003672
P4    P     P_3+3 0.148670 0.605320 0.663680 0.988725
P5    P     P_3+3 0.063056 0.174163 0.591819 0.978650
P6    P     P_3+3 0.633037 0.612688 0.275059 0.984826
P7    P     P_3+3 0.520243 0.231490 0.438110 0.934097
P8    P     P_3+3 0.554440 0.396366 0.727221 0.996250
Br1   Br    Br    0.717485 0.718967 0.776531 -0.637435
O25   O     O_3   0.670334 0.937385 0.219558 -0.645433
C53   C     C_3   0.722149 0.043632 0.207305 0.134031
H50   H     H_    0.856577 0.061712 0.208559 0.050483
H51   H     H_    0.674289 0.104284 0.247200 0.087064
H52   H     H_    0.677096 0.051218 0.152446 0.058855
O26   O     O_3   0.474648 0.126536 0.717360 -0.650471
C54   C     C_3   0.596520 0.121891 0.666617 0.214973
H53   H     H_    0.692793 0.080225 0.685428 0.008180
H54   H     H_    0.648699 0.202101 0.654088 -0.018729
H55   H     H_    0.539829 0.075347 0.615747 0.071709
Br2   Br    Br    0.049025 0.676256 0.236627 -0.585277
O27   O     O_3   0.297285 0.848225 0.256439 -0.690261
C55   C     C_3   0.354101 0.817516 0.185542 0.126156
H56   H     H_    0.381364 0.889465 0.158430 0.096466
H57   H     H_    0.271579 0.754198 0.149079 0.036286
H58   H     H_    0.464582 0.781665 0.189380 0.141151

loop_
_geom_bond_atom_site_label_1
_geom_bond_atom_site_label_2
_ccdc_geom_bond_type
C54   H55   S    
Ba2   O6    S    
C3    H17   S    
O10   P5    D    
C20   P4    S    
O6    P8    S    
C32   C35   A    
C49   O20   S    
Ba2   O4    S    
Ba1   P1    S    
C17   C29   A    
C27   H35   S    
C5    C6    S    
C8    H31   S    
C43   C44   A    
C4    H18   S    
Ba2   O9    S    
C24   C25   A    
C27   C28   A    
O21   P6    S    
C10   C26   A    
C34   H49   S    
C40   H42   S    
C3    C4    S    
C21   C27   A    
C5    O11   S    
C46   P7    S    
C35   C36   A    
C22   C24   A    
C16   C17   A    
Ba1   P2    S    
C50   H7    S    
C55   H57   S    
C38   H44   S    
C36   C37   A    
C51   H10   S    
C52   H14   S    
O23   P3    S    
C38   C47   A    
C12   O27   S    
C9    C22   A    
C15   C18   A    
C2    O21   S    
C34   C45   S    
C34   H48   S    
C32   C33   A    
C40   C44   A    
Ba2   O5    S    
C38   C46   A    
O5    P4    S    
Ba2   O13   S    
C24   C32   A    
C54   H54   S    
O13   P2    S    
C25   C37   A    
C14   C15   A    
C15   C16   A    
C26   H34   S    
C14   H33   S    
C39   H45   S    
C1    O25   S    
Ba1   O13   S    
C1    H21   S    
C7    C8    S    
O15   P7    S    
C7    H28   S    
C5    H23   S    
C18   P8    S    
C19   C20   A    
C39   C41   A    
C1    H11   S    
C51   Br1   S    
C9    C13   A    
O14   P7    D    
C31   H41   S    
C2    H15   S    
Ba2   O14   S    
C4    H20   S    
C47   P5    S    
C44   C46   A    
Ba2   O8    S    
C36   H37   S    
C16   C21   A    
Ba1   O23   S    
O4    P4    D    
C55   H58   S    
O2    P2    S    
C52   H13   S    
C42   P2    S    
C51   C52   S    
C12   Br2   S    
C53   H52   S    
O16   P8    D    
O12   P1    S    
C6    H27   S    
C13   C17   A    
C22   C30   A    
O19   P6    D    
C3    H16   S    
C51   O2    S    
C45   H3    S    
Ba2   O12   S    
C23   H46   S    
C29   C30   A    
O1    P1    D    
C7    O26   S    
Ba2   P4    S    
O7    P4    S    
O9    P5    S    
Ba1   O1    S    
C53   H51   S    
C5    H24   S    
C11   C13   A    
C11   H38   S    
C34   O7    S    
C39   C42   A    
C35   P6    S    
C10   H39   S    
C8    H29   S    
C49   H5    S    
C40   C41   A    
C1    C2    S    
C42   C43   A    
C4    H19   S    
O3    P3    S    
C19   H32   S    
C48   H43   S    
C37   P1    S    
C20   C21   A    
O11   P5    S    
C41   P3    S    
Ba1   O22   S    
C50   H9    S    
C9    C10   A    
O8    P7    S    
C52   H12   S    
O25   C53   S    
C3    O15   S    
O17   P8    S    
C30   C31   A    
C23   H22   S    
O24   P3    D    
C49   C50   S    
C2    H1    S    
C6    H25   S    
C50   H8    S    
C55   H56   S    
Ba1   O8    S    
C45   H4    S    
C23   H47   S    
O20   P1    S    
C28   C29   A    
C43   C48   A    
Ba1   Ba2   S    
C8    H30   S    
C31   C33   A    
O27   C55   S    
C12   C23   S    
Ba1   O18   S    
C53   H50   S    
Ba1   O5    S    
C33   H36   S    
O22   P2    D    
C12   O3    S    
C18   C19   A    
C28   H40   S    
C47   C48   A    
C11   C14   A    
C25   C26   A    
C6    H26   S    
C7    O17   S    
O26   C54   S    
C49   H6    S    
Ba1   O12   S    
O18   P6    S    
C54   H53   S    
C45   H2    S    
