data_mof_unit_15254.cif
_audit_creation_date              2013-03-05T15:53:28-0500
_audit_creation_method            fapswitch 2.2
_symmetry_space_group_name_H-M    P1
_symmetry_Int_Tables_number       1
_space_group_crystal_system       triclinic
_cell_length_a                    24.28888
_cell_length_b                    17.211963
_cell_length_c                    15.656579
_cell_angle_alpha                 89.999981
_cell_angle_beta                  128.356631
_cell_angle_gamma                 90.0
_cell_volume                      5132.64626824

loop_
_atom_site_label
_atom_site_type_symbol
_atom_site_description
_atom_site_fract_x
_atom_site_fract_y
_atom_site_fract_z
_atom_type_partial_charge
C1    C     C_R   0.852805 0.856410 0.247244 0.277990
C2    C     C_R   0.147194 0.856409 0.752754 0.277990
C3    C     C_R   0.352805 0.356410 0.247244 0.277990
C4    C     C_R   0.647195 0.356410 0.752757 0.277990
N1    N     N_R   0.888400 0.921830 0.294620 -0.106892
N2    N     N_R   0.111600 0.921830 0.705380 -0.106891
N3    N     N_R   0.388400 0.421830 0.294620 -0.106892
N4    N     N_R   0.611600 0.421830 0.705380 -0.106892
C5    C     C_R   0.117247 0.904797 0.409759 -0.081077
C6    C     C_R   0.882753 0.904797 0.590241 -0.081075
C7    C     C_R   0.617247 0.404797 0.409759 -0.081077
C8    C     C_R   0.382753 0.404797 0.590241 -0.081077
H1    H     H_    0.100708 0.919685 0.330180 0.156313
H2    H     H_    0.899291 0.919685 0.669820 0.156312
H3    H     H_    0.600708 0.419685 0.330179 0.156313
H4    H     H_    0.399291 0.419686 0.669820 0.156313
N5    N     N_R   0.079940 0.922160 0.443410 -0.056152
N6    N     N_R   0.920060 0.922160 0.556590 -0.056152
N7    N     N_R   0.579940 0.422160 0.443410 -0.056152
N8    N     N_R   0.420060 0.422160 0.556590 -0.056152
C9    C     C_R   0.189247 0.902053 0.588277 0.002127
C10   C     C_R   0.810753 0.902054 0.411723 0.002133
C11   C     C_R   0.689247 0.402054 0.588277 0.002135
C12   C     C_R   0.310753 0.402054 0.411722 0.002132
H5    H     H_    0.236466 0.909888 0.669293 0.201563
H6    H     H_    0.763534 0.909889 0.330707 0.201562
H7    H     H_    0.736466 0.409889 0.669293 0.201562
H8    H     H_    0.263534 0.409889 0.330707 0.201562
N9    N     N_R   0.125650 0.922400 0.556620 -0.069602
N10   N     N_R   0.874350 0.922400 0.443380 -0.069602
N11   N     N_R   0.625650 0.422400 0.556620 -0.069602
N12   N     N_R   0.374350 0.422400 0.443380 -0.069602
C13   C     C_R   0.057943 0.859317 0.759194 0.350825
C14   C     C_R   0.942056 0.859319 0.240804 0.350829
C15   C     C_R   0.557944 0.359319 0.759197 0.350832
C16   C     C_R   0.442056 0.359318 0.240804 0.350830
N13   N     N_R   0.054230 0.922730 0.705400 -0.102980
N14   N     N_R   0.945770 0.922730 0.294600 -0.102981
N15   N     N_R   0.554230 0.422730 0.705400 -0.102981
N16   N     N_R   0.445770 0.422730 0.294600 -0.102981
C17   C     C_R   0.886072 0.815010 0.214818 -0.222061
C18   C     C_R   0.113927 0.815008 0.785178 -0.222060
C19   C     C_R   0.386072 0.315010 0.214818 -0.222061
C20   C     C_R   0.613929 0.315010 0.785183 -0.222063
C21   C     C_R   0.185792 0.890244 0.498076 0.031944
C22   C     C_R   0.814208 0.890244 0.501924 0.031943
C23   C     C_R   0.685792 0.390244 0.498075 0.031942
C24   C     C_R   0.314208 0.390244 0.501924 0.031943
C25   C     C_R   0.837127 0.142465 0.407383 -0.119789
C26   C     C_R   0.162873 0.142465 0.592617 -0.119788
C27   C     C_R   0.337127 0.642465 0.407383 -0.119790
C28   C     C_R   0.662873 0.642464 0.592617 -0.119789
H9    H     H_    0.800452 0.158026 0.323285 0.141053
H10   H     H_    0.199548 0.158026 0.676715 0.141052
H11   H     H_    0.300452 0.658026 0.323285 0.141053
H12   H     H_    0.699548 0.658026 0.676715 0.141053
N17   N     N_R   0.873790 0.077030 0.443380 -0.050284
N18   N     N_R   0.126210 0.077030 0.556620 -0.050284
N19   N     N_R   0.373790 0.577030 0.443380 -0.050284
N20   N     N_R   0.626210 0.577030 0.556620 -0.050285
C29   C     C_R   0.926089 0.109565 0.202246 -0.110585
C30   C     C_R   0.073910 0.109565 0.797754 -0.110584
C31   C     C_R   0.426090 0.609567 0.202247 -0.110582
C32   C     C_R   0.573910 0.609565 0.797753 -0.110585
H13   H     H_    0.957047 0.109852 0.174151 0.124125
H14   H     H_    0.042952 0.109853 0.825849 0.124125
H15   H     H_    0.457048 0.609855 0.174152 0.124125
H16   H     H_    0.542952 0.609853 0.825849 0.124125
N21   N     N_R   0.945200 0.076700 0.294600 -0.051404
N22   N     N_R   0.054800 0.076700 0.705400 -0.051404
N23   N     N_R   0.445200 0.576700 0.294600 -0.051403
N24   N     N_R   0.554800 0.576700 0.705400 -0.051403
C33   C     C_R   0.165546 0.108315 0.798095 -0.081093
C34   C     C_R   0.834454 0.108315 0.201905 -0.081095
C35   C     C_R   0.665546 0.608316 0.798095 -0.081095
C36   C     C_R   0.334454 0.608317 0.201906 -0.081097
H17   H     H_    0.218691 0.107372 0.825176 0.139372
H18   H     H_    0.781309 0.107371 0.174823 0.139372
H19   H     H_    0.718691 0.607372 0.825176 0.139371
H20   H     H_    0.281309 0.607374 0.174825 0.139373
N25   N     N_R   0.111030 0.077600 0.705380 -0.054716
N26   N     N_R   0.888970 0.077600 0.294620 -0.054717
N27   N     N_R   0.611030 0.577600 0.705380 -0.054716
N28   N     N_R   0.388970 0.577600 0.294620 -0.054716
C37   C     C_R   0.909239 0.144082 0.589537 -0.098875
C38   C     C_R   0.090760 0.144082 0.410462 -0.098874
C39   C     C_R   0.409239 0.644082 0.589537 -0.098875
C40   C     C_R   0.590761 0.644082 0.410463 -0.098874
H21   H     H_    0.937057 0.161442 0.673222 0.108875
H22   H     H_    0.062943 0.161442 0.326777 0.108875
H23   H     H_    0.437056 0.661442 0.673222 0.108875
H24   H     H_    0.562944 0.661442 0.326778 0.108874
N29   N     N_R   0.919490 0.077280 0.556590 -0.051047
N30   N     N_R   0.080510 0.077280 0.443410 -0.051046
N31   N     N_R   0.419490 0.577280 0.556590 -0.051046
N32   N     N_R   0.580510 0.577280 0.443410 -0.051046
Ni1   Ni    Ni4+2 0.882160 0.999430 0.370180 0.264012
Ni2   Ni    Ni4+2 0.117840 0.999430 0.629820 0.264013
Ni3   Ni    Ni4+2 0.382160 0.499430 0.370180 0.264012
Ni4   Ni    Ni4+2 0.617840 0.499430 0.629820 0.264012
Ni5   Ni    Ni4+2 0.012460 0.999430 0.370180 0.238398
Ni6   Ni    Ni4+2 0.987540 0.999430 0.629820 0.238398
Ni7   Ni    Ni4+2 0.512460 0.499430 0.370180 0.238398
Ni8   Ni    Ni4+2 0.487540 0.499430 0.629820 0.238398
C41   C     C_R   0.857944 0.186527 0.496504 0.084642
C42   C     C_R   0.142056 0.186527 0.503496 0.084641
C43   C     C_R   0.357944 0.686527 0.496504 0.084641
C44   C     C_R   0.642056 0.686527 0.503496 0.084642
C45   C     C_R   0.856605 0.129741 0.142947 0.112903
C46   C     C_R   0.143395 0.129742 0.857052 0.112901
C47   C     C_R   0.356606 0.629745 0.142950 0.112899
C48   C     C_R   0.643394 0.629742 0.857051 0.112903
C49   C     C_R   0.776378 0.840567 0.606132 0.047141
C50   C     C_R   0.223622 0.840566 0.393867 0.047141
C51   C     C_R   0.276377 0.340568 0.606132 0.047141
C52   C     C_R   0.723622 0.340567 0.393867 0.047141
C53   C     C_R   0.757568 0.869953 0.507744 -0.044968
C54   C     C_R   0.242432 0.869952 0.492255 -0.044968
C55   C     C_R   0.257567 0.369953 0.507744 -0.044968
C56   C     C_R   0.742432 0.369953 0.492255 -0.044968
C57   C     C_R   0.685698 0.863131 0.415187 0.336335
C58   C     C_R   0.314302 0.863131 0.584813 0.336335
C59   C     C_R   0.185697 0.363130 0.415186 0.336335
C60   C     C_R   0.814302 0.363131 0.584813 0.336336
C61   C     C_R   0.143733 0.307255 0.416014 -0.199811
C62   C     C_R   0.856266 0.307256 0.583985 -0.199810
C63   C     C_R   0.643734 0.807255 0.416015 -0.199811
C64   C     C_R   0.356266 0.807255 0.583985 -0.199811
H25   H     H_    0.091630 0.295442 0.341507 0.170016
H26   H     H_    0.908370 0.295443 0.658491 0.170016
H27   H     H_    0.591630 0.795443 0.341508 0.170016
H28   H     H_    0.408370 0.795443 0.658491 0.170016
C65   C     C_R   0.171793 0.262360 0.509836 -0.035704
C66   C     C_R   0.828207 0.262360 0.490164 -0.035704
C67   C     C_R   0.671793 0.762360 0.509836 -0.035704
C68   C     C_R   0.328206 0.762360 0.490164 -0.035704
C69   C     C_R   0.233743 0.288978 0.607983 0.097499
C70   C     C_R   0.766256 0.288977 0.392016 0.097497
C71   C     C_R   0.733743 0.788977 0.607984 0.097498
C72   C     C_R   0.266256 0.788977 0.392016 0.097497
C73   C     C_3   0.795575 0.746753 0.704618 0.165817
C74   C     C_3   0.204424 0.746751 0.295383 0.165816
C75   C     C_3   0.295575 0.246754 0.704618 0.165818
C76   C     C_3   0.704424 0.246752 0.295382 0.165817
C77   C     C_3   0.841964 0.802138 0.700498 -0.433541
C78   C     C_3   0.158035 0.802137 0.299503 -0.433540
C79   C     C_3   0.341963 0.302139 0.700498 -0.433540
C80   C     C_3   0.658036 0.302138 0.299502 -0.433539
H29   H     H_    0.800802 0.685629 0.687516 0.129418
H30   H     H_    0.199197 0.685628 0.312487 0.129418
H31   H     H_    0.300802 0.185630 0.687516 0.129418
H32   H     H_    0.699198 0.185629 0.312485 0.129418
H33   H     H_    0.873496 0.841272 0.772254 0.261933
H34   H     H_    0.126502 0.841270 0.227746 0.261934
H35   H     H_    0.373496 0.341273 0.772254 0.261933
H36   H     H_    0.626503 0.341271 0.227745 0.261934
H37   H     H_    0.871771 0.772479 0.677544 0.216286
H38   H     H_    0.128229 0.772478 0.322459 0.216285
H39   H     H_    0.371771 0.272480 0.677544 0.216286
H40   H     H_    0.628229 0.272478 0.322457 0.216285
H41   H     H_    0.718028 0.124725 0.994413 0.180020
H42   H     H_    0.281971 0.124726 0.005587 0.180019
H43   H     H_    0.218030 0.624727 0.994414 0.180019
H44   H     H_    0.781971 0.624727 0.005586 0.180020
H45   H     H_    0.240460 0.792221 0.953200 0.166020
H46   H     H_    0.759536 0.792218 0.046803 0.166024
H47   H     H_    0.740465 0.292215 0.953194 0.166026
H48   H     H_    0.259536 0.292217 0.046803 0.166024
C81   C     C_2   0.139873 0.744080 0.849077 0.441200
C82   C     C_2   0.860126 0.744081 0.150919 0.441197
C83   C     C_2   0.639874 0.244081 0.849081 0.441197
C84   C     C_2   0.360126 0.244081 0.150920 0.441196
C85   C     C_2   0.208507 0.740106 0.928376 -0.118686
C86   C     C_2   0.791491 0.740104 0.071625 -0.118691
C87   C     C_2   0.708509 0.240102 0.928373 -0.118693
C88   C     C_2   0.291491 0.240103 0.071625 -0.118689
H49   H     H_    0.839779 0.210725 0.022567 0.180815
H50   H     H_    0.160221 0.210729 0.977430 0.180816
H51   H     H_    0.339779 0.710737 0.022576 0.180817
H52   H     H_    0.660220 0.710729 0.977429 0.180815
C89   C     C_2   0.814045 0.168773 0.039302 -0.161522
C90   C     C_2   0.185954 0.168776 0.960696 -0.161520
C91   C     C_2   0.314046 0.668781 0.039307 -0.161517
C92   C     C_2   0.685954 0.668776 0.960696 -0.161521
C93   C     C_2   0.744817 0.169190 0.983355 -0.036886
C94   C     C_2   0.255182 0.169193 0.016643 -0.036885
C95   C     C_2   0.244818 0.669196 0.983359 -0.036883
C96   C     C_2   0.755182 0.669193 0.016643 -0.036885
N33   N     N_R   0.784991 0.840540 0.216534 0.207531
O1    O     O_R   0.771399 0.772835 0.236526 -0.389370
O2    O     O_R   0.733926 0.889153 0.153453 -0.390766
N34   N     N_R   0.215010 0.840540 0.783468 0.207532
O3    O     O_R   0.228603 0.772836 0.763480 -0.389369
O4    O     O_R   0.266073 0.889156 0.846548 -0.390766
N35   N     N_R   0.284990 0.340540 0.216534 0.207531
O5    O     O_R   0.271399 0.272835 0.236525 -0.389371
O6    O     O_R   0.233926 0.389154 0.153453 -0.390765
N36   N     N_R   0.715009 0.340539 0.783465 0.207531
O7    O     O_R   0.728599 0.272835 0.763472 -0.389372
O8    O     O_R   0.766074 0.389152 0.846546 -0.390766
Br1   Br    Br    0.803318 0.761962 0.834998 -0.469484
Br2   Br    Br    0.196680 0.761959 0.165001 -0.469486
Br3   Br    Br    0.303317 0.261963 0.834998 -0.469483
Br4   Br    Br    0.696681 0.261961 0.165000 -0.469480
Br5   Br    Br    0.077120 0.657773 0.804862 -0.381148
Br6   Br    Br    0.922883 0.657779 0.195125 -0.381144
Br7   Br    Br    0.577115 0.157780 0.804879 -0.381141
Br8   Br    Br    0.422883 0.157779 0.195126 -0.381146
Br9   Br    Br    0.019229 0.850322 0.834023 -0.484117
Br10  Br    Br    0.980770 0.850326 0.165974 -0.484113
Br11  Br    Br    0.519229 0.350326 0.834026 -0.484110
Br12  Br    Br    0.480770 0.350325 0.165974 -0.484112
Br13  Br    Br    0.640725 0.926237 0.286983 -0.431627
Br14  Br    Br    0.359274 0.926237 0.713015 -0.431627
Br15  Br    Br    0.140725 0.426234 0.286980 -0.431625
Br16  Br    Br    0.859275 0.426236 0.713016 -0.431627

loop_
_geom_bond_atom_site_label_1
_geom_bond_atom_site_label_2
_geom_bond_distance
_ccdc_geom_bond_type
C21   C54   1.475968 S    
C75   Br3   1.947925 S    
C40   N32   1.345184 A    
C65   C69   1.402006 A    
C59   Br15  1.918520 S    
N19   Ni3   1.851466 S    
C74   C78   1.507529 S    
C7    C23   1.374560 A    
N18   Ni2   1.851463 S    
C8    C24   1.374560 A    
N7    N11   1.389961 A    
C36   N28   1.324541 A    
C34   C45   1.376190 A    
C90   C94   1.329174 D    
C73   H29   1.112128 S    
C76   C80   1.507527 S    
C48   C92   1.439197 S    
C2    N2    1.330276 A    
C5    C21   1.374558 A    
N10   Ni1   1.837691 S    
C7    N7    1.334356 A    
C35   C48   1.376191 A    
C26   H10   1.069211 S    
N3    Ni3   1.851747 S    
N9    Ni2   1.837689 S    
C1    N1    1.330277 A    
C13   C18   1.381880 A    
N2    Ni2   1.851749 S    
C60   C62   1.407263 A    
C38   N30   1.345184 A    
N23   N28   1.366048 A    
N14   Ni5   1.840643 S    
C3    N3    1.330277 A    
C64   C68   1.405996 A    
N6    Ni6   1.854035 S    
N13   Ni6   1.840645 S    
C40   C44   1.398323 A    
C52   C56   1.401425 A    
C59   C61   1.407263 A    
N25   Ni2   1.865477 S    
C62   H26   1.082351 S    
H45   C85   1.087957 S    
C51   C79   1.495651 S    
C25   N17   1.325219 A    
N21   Ni5   1.854369 S    
C30   N22   1.339104 A    
C2    N34   1.426871 S    
H43   C95   1.085765 S    
C80   H40   1.112138 S    
C49   C77   1.495650 S    
N33   O2    1.301376 A    
N22   N25   1.366043 A    
C5    H1    1.076205 S    
C16   N16   1.347028 A    
H41   C93   1.085765 S    
N21   N26   1.366048 A    
C28   N20   1.325219 A    
C86   C96   1.437433 S    
C76   Br4   1.947929 S    
C13   Br9   1.909981 S    
C68   C72   1.402006 A    
C25   H9    1.069212 S    
C42   C65   1.465000 S    
C85   C95   1.437433 S    
C40   H24   1.078779 S    
N30   Ni5   1.868149 S    
C39   N31   1.345185 A    
C6    C22   1.374559 A    
N3    N16   1.393736 A    
C49   C71   1.378005 A    
N36   O7    1.301223 A    
N6    N10   1.389958 A    
N4    N15   1.393733 A    
C11   H7    1.066276 S    
C79   H35   1.111091 S    
C9    C21   1.376851 A    
C4    N4    1.330281 A    
C77   H33   1.111090 S    
C4    N36   1.426870 S    
C69   C75   1.500896 S    
C29   C45   1.373387 A    
N17   N29   1.389957 A    
N1    N14   1.393736 A    
C58   C64   1.407263 A    
C38   C42   1.398323 A    
C14   C17   1.381881 A    
N19   N31   1.389957 A    
C34   N26   1.324540 A    
C37   C41   1.398324 A    
C64   H28   1.082351 S    
C33   N25   1.324540 A    
N15   Ni8   1.840647 S    
N8    N12   1.389958 A    
C24   C55   1.475969 S    
C52   C70   1.378006 A    
C31   H15   1.081403 S    
H46   C86   1.087960 S    
C11   C23   1.376852 A    
C39   H23   1.078779 S    
C30   H14   1.081404 S    
C28   H12   1.069211 S    
C12   C24   1.376851 A    
H51   C91   1.088097 S    
C8    H4    1.076205 S    
C33   C46   1.376191 A    
C50   C78   1.495651 S    
C44   C67   1.465000 S    
C14   Br10  1.909984 S    
C38   H22   1.078779 S    
H42   C94   1.085770 S    
C37   H21   1.078779 S    
C25   C41   1.379187 A    
N24   Ni8   1.854371 S    
H44   C96   1.085765 S    
N7    Ni7   1.854034 S    
C3    N35   1.426871 S    
C58   Br14  1.918516 S    
C22   C53   1.475969 S    
C56   C60   1.421774 A    
C11   N11   1.343205 A    
C16   C19   1.381879 A    
C15   N15   1.347031 A    
C12   N12   1.343203 A    
C54   C58   1.421772 A    
C51   C69   1.378006 A    
C43   C68   1.465001 S    
C18   C81   1.451184 S    
C15   Br11  1.909985 S    
C87   C93   1.437435 S    
C77   H37   1.112136 S    
C37   N29   1.345185 A    
C78   H34   1.111090 S    
C84   Br8   1.923441 S    
C2    C18   1.388332 A    
C83   Br7   1.923450 S    
N17   Ni1   1.851466 S    
C8    N8    1.334356 A    
C47   C91   1.439200 S    
C92   C96   1.329174 D    
N2    N13   1.393733 A    
C50   C54   1.401424 A    
N11   Ni4   1.837690 S    
C88   C94   1.437434 S    
C15   C20   1.381882 A    
C82   C86   1.325308 D    
H50   C90   1.088100 S    
C16   Br12  1.909983 S    
C49   C53   1.401424 A    
N20   N32   1.389959 A    
C5    N5    1.334356 A    
C26   N18   1.325219 A    
C10   C22   1.376850 A    
C31   N23   1.339106 A    
C75   C79   1.507528 S    
C7    H3    1.076205 S    
N27   Ni4   1.865475 S    
C61   H25   1.082351 S    
C6    H2    1.076207 S    
N26   Ni1   1.865473 S    
C27   N19   1.325219 A    
C53   C57   1.421774 A    
C32   H16   1.081402 S    
C74   Br2   1.947925 S    
N24   N27   1.366043 A    
C46   C90   1.439199 S    
N31   Ni8   1.868146 S    
C12   H8    1.066276 S    
H47   C87   1.087960 S    
C79   H39   1.112137 S    
C60   Br16  1.918514 S    
C61   C65   1.405996 A    
H48   C88   1.087961 S    
C9    H5    1.066279 S    
C57   Br13  1.918517 S    
C23   C56   1.475967 S    
C89   C93   1.329175 D    
C75   H31   1.112130 S    
C10   N10   1.343205 A    
C51   C55   1.401427 A    
C14   N14   1.347030 A    
N28   Ni3   1.865473 S    
N5    Ni5   1.854034 S    
C36   H20   1.080292 S    
C73   Br1   1.947926 S    
N20   Ni4   1.851462 S    
N29   Ni6   1.868148 S    
C66   C70   1.402006 A    
C1    C17   1.388334 A    
C19   C84   1.451186 S    
N22   Ni6   1.854372 S    
C57   C63   1.407263 A    
C78   H38   1.112137 S    
C55   C59   1.421774 A    
C4    C20   1.388338 A    
C17   C82   1.451187 S    
C67   C71   1.402006 A    
C50   C72   1.378004 A    
N12   Ni3   1.837691 S    
C29   N21   1.339103 A    
N34   O3    1.301220 A    
C74   H30   1.112129 S    
C63   H27   1.082350 S    
N4    Ni4   1.851749 S    
C20   C83   1.451187 S    
C81   C85   1.325303 D    
C76   H32   1.112131 S    
C70   C76   1.500898 S    
N5    N9    1.389961 A    
N16   Ni7   1.840644 S    
C81   Br5   1.923433 S    
C71   C73   1.500895 S    
C52   C80   1.495653 S    
C35   N27   1.324539 A    
C9    N9    1.343205 A    
C30   C46   1.373388 A    
C6    N6    1.334355 A    
C36   C47   1.376187 A    
H49   C89   1.088100 S    
C45   C89   1.439198 S    
C73   C77   1.507529 S    
C82   Br6   1.923445 S    
N1    Ni1   1.851747 S    
C27   H11   1.069210 S    
C32   N24   1.339104 A    
C29   H13   1.081403 S    
C31   C47   1.373390 A    
N33   O1    1.301223 A    
C63   C67   1.405995 A    
C13   N13   1.347029 A    
N23   Ni7   1.854369 S    
C32   C48   1.373387 A    
N8    Ni8   1.854036 S    
C10   H6    1.066278 S    
N35   O5    1.301223 A    
C84   C88   1.325309 D    
C39   C43   1.398323 A    
C62   C66   1.405995 A    
C27   C43   1.379187 A    
C3    C19   1.388335 A    
C34   H18   1.080291 S    
N32   Ni7   1.868149 S    
C26   C42   1.379187 A    
C33   H17   1.080291 S    
C28   C44   1.379187 A    
N36   O8    1.301375 A    
C80   H36   1.111093 S    
C72   C74   1.500895 S    
C35   H19   1.080292 S    
N18   N30   1.389959 A    
C91   C95   1.329176 D    
H52   C92   1.088099 S    
N34   O4    1.301374 A    
C41   C66   1.465000 S    
N35   O6    1.301375 A    
C83   C87   1.325312 D    
C1    N33   1.426871 S    
