data_mof_unit_55991.cif
_audit_creation_date              2012-12-10T17:35:33-0500
_audit_creation_method            fapswitch 2.2
_symmetry_space_group_name_H-M    P1
_symmetry_Int_Tables_number       1
_space_group_crystal_system       triclinic
_cell_length_a                    10.716006
_cell_length_b                    12.319234
_cell_length_c                    13.188713
_cell_angle_alpha                 116.682654
_cell_angle_beta                  77.487075
_cell_angle_gamma                 101.287551
_cell_volume                      1509.01498102

loop_
_atom_site_label
_atom_site_type_symbol
_atom_type_description
_atom_site_fract_x
_atom_site_fract_y
_atom_site_fract_z
_atom_type_partial_charge
C1    C     C_R   0.511393 0.854880 0.286577 0.765352
C2    C     C_3   0.122507 0.000868 0.499599 0.067014
C3    C     C_3   0.045913 0.022281 0.619881 -0.408849
C4    C     C_3   0.068748 0.876489 0.409495 -0.360876
C5    C     C_R   0.322917 0.276310 0.020326 -0.115141
C6    C     C_R   0.452701 0.228088 0.834543 -0.041487
C7    C     C_R   0.597491 0.814858 0.085313 -0.184148
C8    C     C_R   0.622702 0.735795 0.970310 -0.135741
C9    C     C_R   0.575792 0.612741 0.932510 -0.155278
C10   C     C_R   0.497739 0.566656 0.009316 0.079389
C11   C     C_R   0.459495 0.650659 0.123599 -0.007805
C12   C     C_R   0.739991 0.999773 0.499940 0.778720
C13   C     C_R   0.455303 0.440215 0.976136 -0.002336
C14   C     C_R   0.365228 0.401230 0.052955 0.027948
C15   C     C_R   0.316667 0.487640 0.160092 0.578808
C16   C     C_R   0.361879 0.610501 0.194165 -0.287154
C17   C     C_R   0.501015 0.350941 0.868971 -0.206599
C18   C     C_R   0.365690 0.190218 0.911244 -0.213218
C19   C     C_R   0.518887 0.773102 0.163508 -0.072168
C20   C     C_R   0.706981 0.346953 0.329227 0.523481
C21   C     C_R   0.325158 0.759182 0.645051 0.095630
C22   C     C_R   0.287316 0.662390 0.676389 -0.241526
C23   C     C_R   0.480636 0.145132 0.713431 0.797556
C24   C     C_R   0.353087 0.559065 0.621610 -0.175915
C25   C     C_R   0.458345 0.551263 0.534215 0.042736
C26   C     C_R   0.493659 0.653046 0.505187 0.319744
C27   C     C_R   0.529932 0.447025 0.474885 -0.097078
C28   C     C_R   0.634996 0.447151 0.388354 0.038709
C29   C     C_R   0.667517 0.547238 0.361654 -0.216525
C30   C     C_R   0.598664 0.647479 0.418661 -0.186591
C31   C     C_R   0.502410 0.341876 0.497338 -0.006784
C32   C     C_R   0.674881 0.247039 0.355849 -0.022003
C33   C     C_R   0.260254 0.000311 0.499785 0.771198
C34   C     C_3   0.960036 0.103519 0.469768 -0.465793
C35   C     C_3   0.103005 0.104050 0.469532 -0.378208
C36   C     C_3   0.901532 0.021951 0.620514 0.494280
C37   C     C_3   0.924650 0.876046 0.409590 -0.363725
C38   C     C_3   0.878262 0.999954 0.500103 0.044088
Cu1   Cu    Cu3+1 0.529690 0.098270 0.475420 0.929606
Cu2   Cu    Cu3+1 0.470310 0.901730 0.524580 0.957917
H1    H     H_    0.929361 0.194141 0.533280 0.182777
H2    H     H_    0.081044 0.800444 0.428927 0.200561
H3    H     H_    0.058919 0.949834 0.643966 0.208068
H4    H     H_    0.326887 0.095132 0.885409 0.151178
H5    H     H_    0.254063 0.245269 0.077848 0.195212
H6    H     H_    0.573841 0.374331 0.809376 0.144006
H7    H     H_    0.642224 0.908468 0.113491 0.160427
H8    H     H_    0.599907 0.556995 0.842120 0.129425
H9    H     H_    0.682411 0.769314 0.910501 0.164199
H10   H     H_    0.945674 0.090435 0.383671 0.205981
H11   H     H_    0.316432 0.673703 0.275550 0.194559
H12   H     H_    0.729808 0.169504 0.310767 0.149213
H13   H     H_    0.747572 0.548771 0.295844 0.205363
H14   H     H_    0.424296 0.333735 0.561295 0.138374
H15   H     H_    0.273613 0.839020 0.688081 0.120697
H16   H     H_    0.319620 0.487040 0.649460 0.131154
H17   H     H_    0.206722 0.667476 0.743422 0.147888
H18   H     H_    0.631971 0.718942 0.391769 0.195735
H19   H     H_    0.157051 0.091032 0.383356 0.197745
H20   H     H_    0.870179 0.111704 0.685451 0.061152
H21   H     H_    0.083271 0.111434 0.685472 0.114664
H22   H     H_    0.868544 0.799521 0.428558 0.212877
H23   H     H_    0.122896 0.859608 0.322562 0.156169
N1    N     N_R   0.574690 0.246280 0.438200 -0.216500
N2    N     N_R   0.426100 0.754320 0.561190 -0.205050
O1    O     O_R   0.537340 0.972510 0.318130 -0.577518
O2    O     O_R   0.487200 0.806530 0.359650 -0.605362
O3    O     O_R   0.707380 0.082980 0.479220 -0.596548
O4    O     O_R   0.657240 0.917000 0.520740 -0.545393
O5    O     O_R   0.512800 0.193470 0.640350 -0.589068
O6    O     O_R   0.462660 0.027490 0.681870 -0.573867
O7    O     O_R   0.342760 0.083000 0.479260 -0.585173
O8    O     O_R   0.292620 0.917020 0.520780 -0.597622
F1    F     F_    0.830518 0.932177 0.652222 -0.655947
F2    F     F_    0.225256 0.453456 0.232614 -0.654223
F3    F     F_    0.807897 0.345693 0.246268 -0.657199
H24   H     H_    0.140484 0.194762 0.533011 0.177586
H25   H     H_    0.908970 0.859431 0.322826 0.147234

loop_
_geom_bond_atom_site_label_1
_geom_bond_atom_site_label_2
_ccdc_geom_bond_type
C2    C35   S    
C15   F2    S    
C12   O4    A    
Cu2   O6    S    
Cu1   O3    S    
C16   H11   S    
C22   H17   S    
C37   H22   S    
C7    C8    A    
Cu1   N1    S    
C12   O3    A    
C4    H23   S    
C11   C19   A    
C37   C38   S    
C29   H13   S    
C28   C29   A    
C15   C16   A    
Cu2   O8    S    
C20   F3    S    
C35   H19   S    
C34   C35   S    
C32   H12   S    
C33   O7    A    
C8    C9    A    
Cu2   O2    S    
Cu1   O7    S    
C9    C10   A    
C21   C22   A    
C23   O5    A    
C34   H1    S    
C3    H21   S    
C6    C18   A    
C34   H10   S    
C1    C19   S    
Cu2   O4    S    
C27   C31   A    
C23   O6    A    
C17   H6    S    
C32   N1    A    
Cu1   Cu2   S    
C21   H15   S    
C5    C18   A    
C20   C28   A    
C25   C26   A    
C5    H5    S    
C35   H24   S    
C7    H7    S    
C2    C4    S    
C29   C30   A    
C18   H4    S    
C11   C16   A    
C3    H3    S    
C1    O1    A    
C24   C25   A    
C5    C14   A    
C36   F1    S    
C2    C33   S    
C33   O8    A    
C26   C30   A    
C7    C19   A    
Cu2   N2    S    
Cu1   O1    S    
C22   C24   A    
C24   H16   S    
C20   C32   A    
C6    C17   A    
C21   N2    A    
C34   C38   S    
C26   N2    A    
C31   N1    A    
C36   H20   S    
C10   C13   A    
C25   C27   A    
C37   H25   S    
C13   C17   A    
C36   C38   S    
C2    C3    S    
C4    H2    S    
C3    C36   S    
C6    C23   S    
C30   H18   S    
C1    O2    A    
Cu1   O5    S    
C31   H14   S    
C12   C38   S    
C10   C11   A    
C4    C37   S    
C9    H8    S    
C27   C28   A    
C14   C15   A    
C13   C14   A    
C8    H9    S    
