data_mof_unit_35517.cif
_audit_creation_date              2013-03-05T16:15:17-0500
_audit_creation_method            fapswitch 2.2
_symmetry_space_group_name_H-M    P1
_symmetry_Int_Tables_number       1
_space_group_crystal_system       triclinic
_cell_length_a                    27.784618
_cell_length_b                    10.61188
_cell_length_c                    9.486288
_cell_angle_alpha                 90.032658
_cell_angle_beta                  90.004269
_cell_angle_gamma                 89.974506
_cell_volume                      2797.00312313

loop_
_atom_site_label
_atom_site_type_symbol
_atom_site_description
_atom_site_fract_x
_atom_site_fract_y
_atom_site_fract_z
_atom_type_partial_charge
O1    O     O_R   0.500020 0.316850 0.620870 -0.609349
O2    O     O_R   0.499980 0.683150 0.379130 -0.610342
O3    O     O_R   0.500000 0.316860 0.379090 -0.503026
O4    O     O_R   0.500000 0.683140 0.620910 -0.502330
C1    C     C_R   0.500005 0.259632 0.500107 0.805062
C2    C     C_R   0.499982 0.740368 0.499894 0.803825
O5    O     O_R   0.430270 0.500020 0.620880 -0.552963
O6    O     O_R   0.569730 0.499980 0.379120 -0.557389
O7    O     O_R   0.430250 0.500030 0.379090 -0.553469
O8    O     O_R   0.569750 0.499970 0.620910 -0.555968
C3    C     C_R   0.407676 0.500102 0.500025 0.820743
C4    C     C_R   0.592379 0.499646 0.500035 0.822963
Cu1   Cu    Cu3+1 0.500010 0.499990 0.643150 1.054300
Cu2   Cu    Cu3+1 0.499990 0.500010 0.356850 1.051516
C5    C     C_R   0.178585 0.395925 0.468694 0.612415
C6    C     C_R   0.821607 0.602877 0.536145 0.598091
O9    O     O_2   0.203874 0.289362 0.445055 -0.497360
O10   O     O_2   0.796317 0.704364 0.579565 -0.502931
N1    N     N_R   0.202265 0.505919 0.497337 -0.450199
N2    N     N_R   0.797935 0.495885 0.495823 -0.450083
C7    C     C_R   0.177846 0.616054 0.519445 0.603499
C8    C     C_R   0.822306 0.391928 0.449337 0.619238
C9    C     C_R   0.279358 0.550771 0.385708 -0.120208
C10   C     C_R   0.721039 0.525801 0.377754 -0.121673
C11   C     C_R   0.329418 0.548599 0.384493 -0.128513
C12   C     C_R   0.670996 0.528619 0.377806 -0.127024
C13   C     C_R   0.329412 0.455751 0.617761 -0.205179
C14   C     C_R   0.670641 0.465419 0.623095 -0.210192
C15   C     C_R   0.278913 0.458405 0.621225 0.373968
C16   C     C_R   0.721177 0.463047 0.625263 0.368831
C17   C     C_R   0.253841 0.506061 0.502740 0.222744
C18   C     C_R   0.746387 0.493439 0.500038 0.223385
C19   C     C_R   0.102070 0.505289 0.488778 -0.038988
C20   C     C_R   0.898095 0.500560 0.488134 -0.038760
C21   C     C_R   0.128094 0.393530 0.463927 -0.026393
C22   C     C_R   0.872086 0.607382 0.532636 -0.027386
C23   C     C_R   0.103307 0.281824 0.436330 -0.120216
C24   C     C_R   0.896881 0.715686 0.573812 -0.125679
C25   C     C_R   0.127336 0.617696 0.516252 -0.026376
C26   C     C_R   0.872815 0.391892 0.445838 -0.028268
C27   C     C_R   0.354799 0.501081 0.500427 -0.108319
C28   C     C_R   0.645362 0.498072 0.500252 -0.121380
C29   C     C_R   0.974922 0.391865 0.446993 0.043779
C30   C     C_R   0.025231 0.617097 0.517456 0.044661
C31   C     C_R   0.974137 0.614240 0.524273 0.042795
C32   C     C_R   0.026024 0.391241 0.454081 0.044069
C33   C     C_R   0.949256 0.502286 0.486281 0.075572
C34   C     C_R   0.050901 0.504573 0.486571 0.075360
C35   C     C_R   0.948332 0.285594 0.401446 -0.194218
C36   C     C_R   0.051808 0.729069 0.540226 -0.195167
C37   C     C_R   0.898342 0.285862 0.401054 -0.121566
C38   C     C_R   0.101797 0.729037 0.539812 -0.126036
O11   O     O_2   0.797685 0.288651 0.408126 -0.494657
O12   O     O_2   0.202407 0.723200 0.545880 -0.501705
C39   C     C_R   0.053347 0.280388 0.431596 -0.193429
C40   C     C_R   0.946830 0.719324 0.569825 -0.195936
H1    H     H_    0.652409 0.556237 0.282437 0.218627
H2    H     H_    0.348275 0.585448 0.293546 0.207495
H3    H     H_    0.879738 0.201808 0.365839 0.193643
H4    H     H_    0.120387 0.817198 0.558628 0.193160
H5    H     H_    0.965018 0.200792 0.362673 0.142917
H6    H     H_    0.035113 0.819513 0.556342 0.139971
H7    H     H_    0.037259 0.189565 0.413308 0.139687
H8    H     H_    0.962933 0.805513 0.606728 0.144317
C41   C     C_3   0.499957 0.040852 0.634077 -0.103961
C42   C     C_3   0.500017 0.959153 0.365928 -0.106531
C43   C     C_3   0.539511 0.957969 0.566675 -0.142875
C44   C     C_3   0.460463 0.042041 0.433328 -0.143624
C45   C     C_3   0.499981 0.877452 0.499299 -0.017643
C46   C     C_3   0.499995 0.122552 0.500706 -0.016681
C47   C     C_3   0.460426 0.958086 0.566500 -0.142868
C48   C     C_3   0.539548 0.041913 0.433510 -0.142897
C49   C     C_3   0.499997 0.614976 0.050997 -0.272145
C50   C     C_3   0.499922 0.385026 0.948998 -0.267603
C51   C     C_3   0.462774 0.556505 0.950673 0.339611
C52   C     C_3   0.537221 0.443421 0.049265 0.336795
H9    H     H_    0.500004 0.711115 0.097130 0.187072
H10   H     H_    0.499880 0.288889 0.902862 0.187475
N3    N     N_3   0.500040 0.499970 0.858290 -0.270222
N4    N     N_3   0.499960 0.500030 0.141710 -0.271183
C53   C     C_3   0.537295 0.556280 0.950886 0.338421
C54   C     C_3   0.462699 0.443799 0.049164 0.336278
H11   H     H_    0.349049 0.418275 0.706974 0.224737
H12   H     H_    0.650907 0.439428 0.717014 0.231498
H13   H     H_    0.499934 0.076584 0.744095 0.170157
H14   H     H_    0.500042 0.923423 0.255910 0.169708
H15   H     H_    0.427947 0.921014 0.620455 0.196541
H16   H     H_    0.572047 0.078913 0.379607 0.196308
N5    N     N_R   0.422847 0.628011 0.890943 0.152550
O13   O     O_R   0.378879 0.587470 0.900681 -0.307940
O14   O     O_R   0.430990 0.737010 0.833259 -0.349177
N6    N     N_R   0.576888 0.370290 0.108185 0.150187
O15   O     O_R   0.621307 0.401301 0.083594 -0.297518
O16   O     O_R   0.567886 0.264210 0.171270 -0.347282
N7    N     N_R   0.577032 0.629085 0.892030 0.148931
O17   O     O_R   0.621429 0.597509 0.916332 -0.301830
O18   O     O_R   0.568128 0.735178 0.828801 -0.348424
N8    N     N_R   0.422690 0.372640 0.108781 0.156827
O19   O     O_R   0.378805 0.414110 0.100055 -0.296797
O20   O     O_R   0.430702 0.263476 0.166284 -0.346073
N9    N     N_R   0.254015 0.413128 0.744604 0.150339
O21   O     O_R   0.275768 0.338741 0.833148 -0.283706
O22   O     O_R   0.211040 0.453174 0.775683 -0.330466
N10   N     N_R   0.745807 0.430600 0.754273 0.144566
O23   O     O_R   0.723018 0.434118 0.874117 -0.273307
O24   O     O_R   0.790219 0.391778 0.753400 -0.333678
H17   H     H_    0.122468 0.194264 0.418712 0.192848
H18   H     H_    0.877730 0.798614 0.609964 0.195813
H19   H     H_    0.740393 0.550188 0.282488 0.187490
H20   H     H_    0.260149 0.586999 0.295022 0.183370
H21   H     H_    0.571979 0.920872 0.620736 0.196463
H22   H     H_    0.428016 0.079222 0.379216 0.196491

loop_
_geom_bond_atom_site_label_1
_geom_bond_atom_site_label_2
_geom_bond_distance
_ccdc_geom_bond_type
C24   C40   1.388895 A    
C2    C45   1.454726 S    
C42   C44   1.545609 S    
Cu1   N3    2.040881 S    
N9    O21   1.301605 A    
C14   H12   1.082109 S    
C54   N8    1.458454 S    
N7    O17   1.298761 A    
N1    C17   1.433936 S    
N10   O24   1.300758 A    
C5    N1    1.367289 A    
C29   C32   1.421451 A    
C19   C25   1.408547 A    
C50   C52   1.537030 S    
O1    C1    1.296250 A    
C21   C23   1.395836 A    
C10   C12   1.390731 A    
C23   H17   1.083572 S    
C7    O12   1.349714 S    
C53   N7    1.459093 S    
C42   C45   1.534163 S    
C13   C15   1.403747 A    
C41   C46   1.534159 S    
C43   C48   1.546159 S    
C44   H22   1.109842 S    
C5    C21   1.403845 A    
O4    Cu1   1.955102 S    
C45   C47   1.531371 S    
C4    C28   1.472201 S    
C38   H4    1.083563 S    
C42   C48   1.545571 S    
C31   C40   1.415856 A    
C41   C43   1.545573 S    
C39   H7    1.076577 S    
C32   C39   1.415830 A    
C36   C38   1.388939 A    
C40   H8    1.076682 S    
Cu2   N4    2.040881 S    
N5    O14   1.299809 A    
O6    C4    1.308279 A    
C43   H21   1.109788 S    
C25   C38   1.395882 A    
N9    O22   1.301043 A    
Cu1   Cu2   2.715923 S    
C19   C34   1.421890 A    
C49   C51   1.536285 S    
O2    C2    1.296265 A    
C50   C54   1.536365 S    
C49   C53   1.537106 S    
N10   O23   1.301869 A    
C48   H16   1.109789 S    
C8    O11   1.349842 S    
C31   C33   1.421074 A    
C32   C34   1.421066 A    
C35   H5    1.076734 S    
N4    C54   1.482722 S    
C11   C27   1.400456 A    
N3    C53   1.483215 S    
C29   C35   1.415784 A    
C35   C37   1.388954 A    
C41   C47   1.545607 S    
C43   C45   1.531340 S    
C9    C17   1.400461 A    
O5    C3    1.307045 A    
O7    Cu2   1.949166 S    
C10   C18   1.399906 A    
C1    C46   1.454699 S    
C13   C27   1.403160 A    
C7    C25   1.403835 A    
C6    N2    1.366801 A    
C8    C26   1.403771 A    
N6    O16   1.299594 A    
C15   N9    1.442337 S    
O7    C3    1.307525 A    
O3    Cu2   1.955101 S    
O8    C4    1.307762 A    
C52   N6    1.459111 S    
C47   H15   1.109833 S    
O4    C2    1.299035 A    
N2    C8    1.367043 A    
N8    O20   1.299828 A    
C50   N3    1.493150 S    
C36   H6    1.076635 S    
C20   C26   1.408647 A    
O1    Cu1   1.954800 S    
C11   H2    1.082760 S    
C22   C24   1.395791 A    
C30   C31   1.421417 A    
C12   C28   1.400827 A    
N2    C18   1.433058 S    
C30   C36   1.415742 A    
C5    O9    1.349735 S    
C9    H20   1.082978 S    
O6    Cu2   1.949166 S    
N1    C7    1.367218 A    
C10   H19   1.083193 S    
C52   N4    1.483475 S    
O3    C1    1.299039 A    
O8    Cu1   1.949166 S    
C52   C53   1.518750 S    
C42   H14   1.110205 S    
N7    O18   1.299619 A    
C51   C54   1.518132 S    
C41   H13   1.110206 S    
C26   C37   1.395830 A    
C14   C16   1.404495 A    
C15   C17   1.415829 A    
C6    C22   1.403770 A    
C16   C18   1.416524 A    
C51   N3    1.482921 S    
C44   C47   1.546270 S    
C14   C28   1.404102 A    
N6    O15   1.298626 A    
C19   C21   1.408498 A    
C49   N4    1.493186 S    
C3    C27   1.469216 S    
C20   C22   1.408616 A    
C9    C11   1.391152 A    
C24   H18   1.083732 S    
O2    Cu2   1.954799 S    
C12   H1    1.082203 S    
C51   N5    1.458463 S    
C13   H11   1.082677 S    
C23   C39   1.388944 A    
O5    Cu1   1.949166 S    
C37   H3    1.083715 S    
C6    O10   1.349861 S    
N8    O19   1.298790 A    
C50   H10   1.109882 S    
C16   N10   1.443871 S    
C44   C46   1.531360 S    
C49   H9    1.109881 S    
C46   C48   1.531327 S    
C20   C33   1.421750 A    
N5    O13   1.298674 A    
C29   C33   1.421018 A    
C30   C34   1.421009 A    
