data_mof_unit_64358.cif
_audit_creation_date              2012-12-10T18:04:01-0500
_audit_creation_method            fapswitch 2.2
_symmetry_space_group_name_H-M    P1
_symmetry_Int_Tables_number       1
_space_group_crystal_system       triclinic
_cell_length_a                    18.372052
_cell_length_b                    30.676038
_cell_length_c                    30.784448
_cell_angle_alpha                 89.987166
_cell_angle_beta                  90.001348
_cell_angle_gamma                 90.089015
_cell_volume                      17349.5321692

loop_
_atom_site_label
_atom_site_type_symbol
_atom_type_description
_atom_site_fract_x
_atom_site_fract_y
_atom_site_fract_z
_atom_type_partial_charge
C1    C     C_R   0.500327 0.690543 0.309244 0.834195
C2    C     C_R   0.500798 0.690490 0.690731 0.831681
C3    C     C_R   0.000222 0.190548 0.309257 0.834422
C4    C     C_R   0.000511 0.190530 0.690741 0.830839
C5    C     C_R   0.000174 0.690568 0.809251 0.834618
C6    C     C_R   0.000417 0.690523 0.190738 0.831865
C7    C     C_R   0.500174 0.190568 0.809251 0.834440
C8    C     C_R   0.500416 0.190523 0.190738 0.831838
C9    C     C_R   0.540263 0.589064 0.370595 -0.058520
C10   C     C_R   0.452327 0.626860 0.591474 -0.124563
C11   C     C_R   0.041232 0.089462 0.371080 -0.053731
C12   C     C_R   0.952006 0.126747 0.591774 -0.132591
C13   C     C_R   0.043906 0.590489 0.871988 -0.056125
C14   C     C_R   0.952373 0.626947 0.091514 -0.132607
C15   C     C_R   0.543907 0.090491 0.871991 -0.056192
C16   C     C_R   0.452371 0.126946 0.091515 -0.132608
C17   C     C_3   0.618206 0.577709 0.361134 0.963109
C18   C     C_3   0.438997 0.659757 0.555557 1.011121
C19   C     C_3   0.120213 0.079669 0.362969 0.964702
C20   C     C_3   0.931558 0.159693 0.556818 1.013809
C21   C     C_3   0.124311 0.583293 0.865925 0.971289
C22   C     C_3   0.933253 0.660033 0.056430 1.012170
C23   C     C_3   0.624313 0.083299 0.865933 0.971472
C24   C     C_3   0.433249 0.160033 0.056431 1.012156
C25   C     C_3   0.613517 0.610160 0.322972 -0.559326
C26   C     C_3   0.441312 0.695623 0.590697 -0.532365
C27   C     C_3   0.115757 0.112044 0.324797 -0.562562
C28   C     C_3   0.932120 0.194787 0.592544 -0.510924
C29   C     C_3   0.119925 0.615555 0.827723 -0.564788
C30   C     C_3   0.933306 0.695066 0.092217 -0.512821
C31   C     C_3   0.619929 0.115558 0.827729 -0.564978
C32   C     C_3   0.433300 0.195064 0.092218 -0.512800
C33   C     C_R   0.533512 0.882506 0.163829 0.134821
C34   C     C_R   0.498153 0.887055 0.832273 0.144037
C35   C     C_R   0.033536 0.382500 0.163824 0.134838
C36   C     C_R   0.998211 0.387054 0.832272 0.145239
C37   C     C_R   0.990017 0.886858 0.667559 0.132587
C38   C     C_R   0.956487 0.879321 0.339377 0.112703
C39   C     C_R   0.506045 0.387044 0.667668 0.141919
C40   C     C_R   0.453481 0.377954 0.340616 0.109318
C41   C     C_R   0.496579 0.843233 0.157857 -0.147581
C42   C     C_R   0.495390 0.842861 0.843087 -0.166627
C43   C     C_R   0.996582 0.343234 0.157857 -0.147548
C44   C     C_R   0.995395 0.342862 0.843085 -0.166718
C45   C     C_R   0.995134 0.842750 0.656750 -0.161223
C46   C     C_R   0.999742 0.842239 0.343302 -0.150336
C47   C     C_R   0.504350 0.342830 0.656833 -0.173446
C48   C     C_R   0.499960 0.342201 0.343240 -0.146896
C49   C     C_R   0.452703 0.837962 0.120893 -0.317141
C50   C     C_R   0.485453 0.831280 0.886991 -0.291664
C51   C     C_R   0.952684 0.337969 0.120902 -0.317180
C52   C     C_R   0.985409 0.331284 0.886986 -0.291598
C53   C     C_R   0.992712 0.830953 0.612501 -0.294092
C54   C     C_R   0.036987 0.834929 0.382530 -0.311326
C55   C     C_R   0.510000 0.331084 0.612703 -0.290836
C56   C     C_R   0.540774 0.335939 0.381334 -0.312939
C57   C     C_R   0.450793 0.870571 0.088656 0.457789
C58   C     C_R   0.487946 0.863273 0.919592 0.467848
C59   C     C_R   0.950772 0.370579 0.088666 0.457734
C60   C     C_R   0.987900 0.363276 0.919588 0.467895
C61   C     C_R   0.992968 0.863173 0.580027 0.463568
C62   C     C_R   0.039214 0.867519 0.414695 0.465877
C63   C     C_R   0.507436 0.363161 0.580184 0.464275
C64   C     C_R   0.542998 0.368565 0.413469 0.462695
C65   C     C_R   0.497839 0.906845 0.092435 -0.198624
C66   C     C_R   0.498505 0.907176 0.907873 -0.174566
C67   C     C_R   0.997838 0.406845 0.092437 -0.198645
C68   C     C_R   0.998506 0.407176 0.907872 -0.174798
C69   C     C_R   0.998281 0.907241 0.592190 -0.167009
C70   C     C_R   0.999084 0.906137 0.408492 -0.182438
C71   C     C_R   0.501320 0.407258 0.592162 -0.186614
C72   C     C_R   0.499222 0.405966 0.408562 -0.183689
C73   C     C_R   0.535024 0.913476 0.131344 0.057505
C74   C     C_R   0.499208 0.918689 0.864149 0.007351
C75   C     C_R   0.035047 0.413470 0.131338 0.057529
C76   C     C_R   0.999264 0.418689 0.864148 0.007768
C77   C     C_R   0.991086 0.918568 0.635753 0.001329
C78   C     C_R   0.955187 0.910396 0.371795 0.049555
C79   C     C_R   0.505196 0.418727 0.635834 0.062117
C80   C     C_R   0.452215 0.408942 0.373115 0.053957
C81   C     C_3   0.613041 0.924306 0.139442 -0.426245
C82   C     C_3   0.552601 0.946075 0.839835 -0.422413
C83   C     C_3   0.113073 0.424287 0.139423 -0.426142
C84   C     C_3   0.052706 0.446056 0.839853 -0.422548
C85   C     C_3   0.036440 0.948587 0.662645 -0.412735
C86   C     C_3   0.951805 0.947004 0.339864 -0.471914
C87   C     C_3   0.456407 0.447681 0.661649 -0.470833
C88   C     C_3   0.443403 0.445403 0.341387 -0.468629
C89   C     C_R   0.360256 0.749988 0.249968 0.836652
C90   C     C_R   0.360250 0.749977 0.750023 0.845740
C91   C     C_R   0.639744 0.749994 0.250016 0.835109
C92   C     C_R   0.639749 0.750001 0.749991 0.835046
C93   C     C_R   0.860256 0.249988 0.249968 0.836368
C94   C     C_R   0.860250 0.249975 0.750022 0.845138
C95   C     C_R   0.139744 0.249993 0.250017 0.835221
C96   C     C_R   0.139749 0.250001 0.749991 0.834987
C97   C     C_R   0.860255 0.749985 0.749972 0.837596
C98   C     C_R   0.860250 0.749986 0.250028 0.844589
C99   C     C_R   0.139744 0.749975 0.750033 0.838712
C100  C     C_R   0.139749 0.749996 0.249987 0.834525
C101  C     C_R   0.360256 0.249989 0.749968 0.835849
C102  C     C_R   0.360250 0.249987 0.250029 0.844299
C103  C     C_R   0.639744 0.249971 0.750036 0.840493
C104  C     C_R   0.639749 0.249997 0.249988 0.834349
C105  C     C_3   0.611471 0.890241 0.175278 -0.477548
C106  C     C_3   0.551532 0.911287 0.804736 -0.448990
C107  C     C_3   0.111505 0.390222 0.175259 -0.477655
C108  C     C_3   0.051641 0.411267 0.804754 -0.449788
C109  C     C_3   0.035490 0.913678 0.697651 -0.441441
C110  C     C_3   0.953546 0.912782 0.304218 -0.425933
C111  C     C_3   0.457163 0.412787 0.696688 -0.439511
C112  C     C_3   0.445101 0.411274 0.305651 -0.429227
C113  C     C_R   0.499866 0.940792 0.940480 0.871422
C114  C     C_R   0.499791 0.940072 0.059019 0.889358
C115  C     C_R   0.999866 0.440792 0.940481 0.871462
C116  C     C_R   0.999791 0.440072 0.059019 0.889293
C117  C     C_R   0.999924 0.940532 0.440588 0.880302
C118  C     C_R   0.999855 0.940943 0.559670 0.890367
C119  C     C_R   0.499945 0.440459 0.440625 0.874606
C120  C     C_R   0.500078 0.440890 0.559601 0.887330
C121  C     C_R   0.499843 0.560049 0.441154 0.881207
C122  C     C_R   0.499909 0.559296 0.559550 0.895813
C123  C     C_R   0.999852 0.060156 0.441262 0.870613
C124  C     C_R   0.999973 0.059394 0.559435 0.869073
C125  C     C_R   0.999891 0.560196 0.941275 0.869923
C126  C     C_R   0.999968 0.559410 0.059412 0.873522
C127  C     C_R   0.499890 0.060197 0.941276 0.869919
C128  C     C_R   0.499968 0.059410 0.059412 0.873547
C129  C     C_R   0.500124 0.809470 0.190674 0.822805
C130  C     C_R   0.499588 0.809505 0.809495 0.824554
C131  C     C_R   0.000125 0.309470 0.190674 0.822657
C132  C     C_R   0.999590 0.309505 0.809495 0.824354
C133  C     C_R   0.999660 0.809502 0.690481 0.824048
C134  C     C_R   0.000549 0.809409 0.309426 0.824338
C135  C     C_R   0.500325 0.309508 0.690498 0.826064
C136  C     C_R   0.500513 0.309395 0.309405 0.824294
C137  C     C_1   0.282666 0.749978 0.249932 -0.182643
C138  C     C_1   0.282659 0.749959 0.750069 -0.176302
C139  C     C_1   0.717332 0.749990 0.250060 -0.181772
C140  C     C_1   0.717339 0.749994 0.749944 -0.182708
C141  C     C_1   0.782665 0.249978 0.249932 -0.182602
C142  C     C_1   0.782659 0.249955 0.750068 -0.175001
C143  C     C_1   0.217332 0.249989 0.250062 -0.181795
C144  C     C_1   0.217339 0.249997 0.749943 -0.183271
C145  C     C_1   0.782665 0.749978 0.749936 -0.181134
C146  C     C_1   0.782658 0.749976 0.250064 -0.180123
C147  C     C_1   0.217333 0.749966 0.750077 -0.177755
C148  C     C_1   0.217340 0.749991 0.249940 -0.183325
C149  C     C_1   0.282665 0.249981 0.749934 -0.182510
C150  C     C_1   0.282658 0.249977 0.250066 -0.180191
C151  C     C_1   0.717333 0.249962 0.750077 -0.175611
C152  C     C_1   0.717340 0.249992 0.249941 -0.183348
C153  C     C_R   0.536855 0.618608 0.337172 -0.013822
C154  C     C_R   0.454105 0.659424 0.622360 -0.059223
C155  C     C_R   0.038007 0.119052 0.337611 -0.014750
C156  C     C_R   0.952470 0.158787 0.623011 -0.065753
C157  C     C_R   0.040840 0.620112 0.838475 -0.018576
C158  C     C_R   0.952643 0.658953 0.122810 -0.062979
C159  C     C_R   0.540841 0.120113 0.838476 -0.018676
C160  C     C_R   0.452640 0.158952 0.122811 -0.062989
C161  C     C_R   0.496827 0.656800 0.341867 -0.120721
C162  C     C_R   0.499771 0.656406 0.658242 -0.102103
C163  C     C_R   0.996787 0.156832 0.341929 -0.121209
C164  C     C_R   0.999599 0.156560 0.658241 -0.099989
C165  C     C_R   0.996997 0.656884 0.841922 -0.118443
C166  C     C_R   0.999365 0.656530 0.158242 -0.102458
C167  C     C_R   0.496996 0.156884 0.841922 -0.118389
C168  C     C_R   0.499364 0.156530 0.158242 -0.102452
C169  C     C_R   0.449204 0.660586 0.377362 -0.306557
C170  C     C_R   0.539109 0.617627 0.664745 -0.295077
C171  C     C_R   0.948640 0.160408 0.377195 -0.304796
C172  C     C_R   0.041337 0.118571 0.663933 -0.293210
C173  C     C_R   0.947138 0.659640 0.876371 -0.304144
C174  C     C_R   0.040639 0.618376 0.164098 -0.291876
C175  C     C_R   0.447135 0.159639 0.876370 -0.304043
C176  C     C_R   0.540640 0.118377 0.164097 -0.291956
C177  C     C_R   0.446791 0.627740 0.409475 0.508340
C178  C     C_R   0.541017 0.585377 0.632103 0.467698
C179  C     C_R   0.946465 0.127686 0.409437 0.503144
C180  C     C_R   0.043479 0.086439 0.631154 0.482178
C181  C     C_R   0.945209 0.626990 0.908668 0.504969
C182  C     C_R   0.042814 0.586234 0.131338 0.491664
C183  C     C_R   0.445205 0.126990 0.908667 0.504920
C184  C     C_R   0.542816 0.086235 0.131337 0.491685
C185  C     C_R   0.497983 0.593379 0.407835 -0.233664
C186  C     C_R   0.498813 0.591056 0.594253 -0.191420
C187  C     C_R   0.998076 0.093551 0.407996 -0.233584
C188  C     C_R   0.999388 0.091374 0.593918 -0.200992
C189  C     C_R   0.998317 0.593650 0.908007 -0.233119
C190  C     C_R   0.999328 0.591385 0.093889 -0.203117
C191  C     C_R   0.498314 0.093650 0.908007 -0.233178
C192  C     C_R   0.499328 0.091385 0.093889 -0.203107
Cu1   Cu    Cu3+1 0.500000 0.780890 0.280900 0.949910
Cu2   Cu    Cu3+1 0.500000 0.780890 0.719100 0.944738
Cu3   Cu    Cu3+1 0.000000 0.280890 0.280900 0.950710
Cu4   Cu    Cu3+1 0.000000 0.280890 0.719100 0.947649
Cu5   Cu    Cu3+1 0.000000 0.780890 0.780900 0.950866
Cu6   Cu    Cu3+1 1.000000 0.780890 0.219100 0.940366
Cu7   Cu    Cu3+1 0.500000 0.280890 0.780900 0.951992
Cu8   Cu    Cu3+1 0.500000 0.280890 0.219100 0.940439
Cu9   Cu    Cu3+1 0.500000 0.719080 0.219090 0.947776
Cu10  Cu    Cu3+1 0.500000 0.719080 0.780910 0.947486
Cu11  Cu    Cu3+1 0.000000 0.219080 0.219090 0.948024
Cu12  Cu    Cu3+1 1.000000 0.219080 0.780910 0.947443
Cu13  Cu    Cu3+1 0.000000 0.719080 0.719090 0.947827
Cu14  Cu    Cu3+1 0.000000 0.719080 0.280910 0.949880
Cu15  Cu    Cu3+1 0.500000 0.219080 0.719090 0.947624
Cu16  Cu    Cu3+1 0.500000 0.219080 0.280910 0.950147
Cu17  Cu    Cu3+1 0.427490 0.999980 0.000000 0.980885
Cu18  Cu    Cu3+1 0.572510 0.999980 0.000000 0.975539
Cu19  Cu    Cu3+1 0.927490 0.499980 0.000000 0.981127
Cu20  Cu    Cu3+1 0.072510 0.499980 0.000000 0.975533
Cu21  Cu    Cu3+1 0.927490 0.999980 0.500000 0.957465
Cu22  Cu    Cu3+1 0.072510 0.999980 0.500000 0.997236
Cu23  Cu    Cu3+1 0.427490 0.499980 0.500000 0.953182
Cu24  Cu    Cu3+1 0.572510 0.499980 0.500000 1.008594
H1    H     H_    0.414871 0.689093 0.380434 0.166446
H2    H     H_    0.570517 0.613182 0.694185 0.163512
H3    H     H_    0.913909 0.188761 0.380056 0.166572
H4    H     H_    0.074269 0.114657 0.692853 0.161364
H5    H     H_    0.911001 0.687411 0.878623 0.165174
H6    H     H_    0.073268 0.614341 0.193124 0.161934
H7    H     H_    0.410995 0.187409 0.878621 0.165217
H8    H     H_    0.573271 0.114343 0.193123 0.161912
H9    H     H_    0.649456 0.639193 0.325426 0.170141
H10   H     H_    0.387968 0.711635 0.596450 0.190136
H11   H     H_    0.614713 0.594305 0.290510 0.194466
H12   H     H_    0.487100 0.719145 0.589464 0.184069
H13   H     H_    0.150068 0.141713 0.327941 0.170406
H14   H     H_    0.877622 0.208437 0.600178 0.185904
H15   H     H_    0.119411 0.096290 0.292352 0.194829
H16   H     H_    0.975173 0.220014 0.589140 0.192229
H17   H     H_    0.151395 0.646224 0.831798 0.170594
H18   H     H_    0.878747 0.708857 0.099431 0.183536
H19   H     H_    0.127302 0.600048 0.795387 0.194722
H20   H     H_    0.976569 0.720211 0.089207 0.192088
H21   H     H_    0.651396 0.146228 0.831805 0.170469
H22   H     H_    0.378740 0.208855 0.099432 0.183536
H23   H     H_    0.627313 0.100049 0.795395 0.194670
H24   H     H_    0.476561 0.220211 0.089208 0.192099
H25   H     H_    0.421583 0.808260 0.116583 0.170374
H26   H     H_    0.478479 0.797494 0.896351 0.184642
H27   H     H_    0.921548 0.308273 0.116598 0.170368
H28   H     H_    0.978398 0.297500 0.896343 0.184670
H29   H     H_    0.993684 0.797002 0.602885 0.184241
H30   H     H_    0.066614 0.804832 0.387455 0.172352
H31   H     H_    0.513671 0.297177 0.603168 0.185741
H32   H     H_    0.573071 0.306696 0.385304 0.170743
H33   H     H_    0.648975 0.915357 0.111787 0.200847
H34   H     H_    0.605872 0.948786 0.856785 0.225561
H35   H     H_    0.620081 0.958037 0.151896 0.229188
H36   H     H_    0.528518 0.977516 0.829134 0.222267
H37   H     H_    0.148989 0.415332 0.111762 0.200843
H38   H     H_    0.105963 0.448750 0.856821 0.225418
H39   H     H_    0.120134 0.458017 0.151876 0.229161
H40   H     H_    0.028662 0.477504 0.829141 0.222548
H41   H     H_    0.091360 0.954322 0.648535 0.222266
H42   H     H_    0.001193 0.968025 0.340645 0.222275
H43   H     H_    0.006215 0.978507 0.672008 0.222550
H44   H     H_    0.899258 0.964830 0.341607 0.200750
H45   H     H_    0.484146 0.478305 0.671646 0.233701
H46   H     H_    0.491059 0.467822 0.340841 0.220549
H47   H     H_    0.402141 0.452160 0.646282 0.198236
H48   H     H_    0.389674 0.461691 0.344628 0.200524
H49   H     H_    0.646541 0.861512 0.168488 0.192170
H50   H     H_    0.604210 0.893813 0.801249 0.193261
H51   H     H_    0.617650 0.904399 0.208311 0.204879
H52   H     H_    0.526906 0.922718 0.773790 0.202037
H53   H     H_    0.146557 0.361487 0.168463 0.192144
H54   H     H_    0.104306 0.393775 0.801287 0.192624
H55   H     H_    0.117706 0.404378 0.208291 0.204849
H56   H     H_    0.027058 0.422706 0.773799 0.202467
H57   H     H_    0.089864 0.899049 0.703853 0.198430
H58   H     H_    0.004105 0.913827 0.284374 0.207235
H59   H     H_    0.004938 0.923585 0.727200 0.198626
H60   H     H_    0.902051 0.910958 0.285347 0.193953
H61   H     H_    0.485224 0.423365 0.726897 0.203428
H62   H     H_    0.493912 0.413778 0.284422 0.208304
H63   H     H_    0.403337 0.396909 0.701666 0.193704
H64   H     H_    0.392387 0.407959 0.288233 0.193739
O1    O     O_R   0.500000 0.731000 0.321180 -0.590502
O2    O     O_R   0.500000 0.731000 0.678820 -0.588100
O3    O     O_R   0.000000 0.231000 0.321180 -0.590122
O4    O     O_R   0.000000 0.231000 0.678820 -0.588176
O5    O     O_R   0.000000 0.731000 0.821180 -0.589164
O6    O     O_R   0.000000 0.731000 0.178820 -0.588858
O7    O     O_R   0.500000 0.231000 0.821180 -0.589209
O8    O     O_R   0.500000 0.231000 0.178820 -0.588836
O9    O     O_R   0.500000 0.678810 0.268980 -0.579477
O10   O     O_R   0.500000 0.678810 0.731020 -0.591013
O11   O     O_R   0.000000 0.178810 0.268980 -0.579349
O12   O     O_R   0.000000 0.178810 0.731020 -0.590776
O13   O     O_R   1.000000 0.678810 0.768980 -0.579982
O14   O     O_R   0.000000 0.678810 0.231020 -0.589552
O15   O     O_R   0.500000 0.178810 0.768980 -0.580107
O16   O     O_R   0.500000 0.178810 0.231020 -0.589673
O17   O     O_R   0.394200 0.776090 0.276090 -0.584624
O18   O     O_R   0.394200 0.776090 0.723910 -0.582571
O19   O     O_R   0.605800 0.776090 0.276090 -0.584329
O20   O     O_R   0.605800 0.776090 0.723910 -0.586279
O21   O     O_R   0.894200 0.276090 0.276090 -0.584599
O22   O     O_R   0.894200 0.276090 0.723910 -0.581239
O23   O     O_R   0.105800 0.276090 0.276090 -0.584292
O24   O     O_R   0.105800 0.276090 0.723910 -0.586376
O25   O     O_R   0.894200 0.776090 0.776090 -0.584423
O26   O     O_R   0.894200 0.776090 0.223910 -0.585074
O27   O     O_R   0.105800 0.776090 0.776090 -0.583376
O28   O     O_R   0.105800 0.776090 0.223910 -0.585761
O29   O     O_R   0.394200 0.276090 0.776090 -0.586031
O30   O     O_R   0.394200 0.276090 0.223910 -0.585153
O31   O     O_R   0.605800 0.276090 0.776090 -0.581512
O32   O     O_R   0.605800 0.276090 0.223910 -0.585714
O33   O     O_R   0.394210 0.723900 0.223890 -0.586567
O34   O     O_R   0.394210 0.723900 0.776110 -0.581740
O35   O     O_R   0.605790 0.723900 0.223890 -0.584384
O36   O     O_R   0.605790 0.723900 0.776110 -0.586534
O37   O     O_R   0.894210 0.223900 0.223890 -0.586657
O38   O     O_R   0.894210 0.223900 0.776110 -0.582371
O39   O     O_R   0.105790 0.223900 0.223890 -0.584269
O40   O     O_R   0.105790 0.223900 0.776110 -0.586400
O41   O     O_R   0.894210 0.723900 0.723890 -0.586264
O42   O     O_R   0.894210 0.723900 0.276110 -0.580618
O43   O     O_R   0.105790 0.723900 0.723890 -0.583569
O44   O     O_R   0.105790 0.723900 0.276110 -0.588017
O45   O     O_R   0.394210 0.223900 0.723890 -0.585660
O46   O     O_R   0.394210 0.223900 0.276110 -0.580742
O47   O     O_R   0.605790 0.223900 0.723890 -0.584307
O48   O     O_R   0.605790 0.223900 0.276110 -0.587899
O49   O     O_R   0.500000 0.821170 0.231010 -0.584070
O50   O     O_R   0.500000 0.821170 0.768990 -0.585441
O51   O     O_R   0.000000 0.321170 0.231010 -0.584101
O52   O     O_R   0.000000 0.321170 0.768990 -0.585220
O53   O     O_R   0.000000 0.821170 0.731010 -0.586607
O54   O     O_R   0.000000 0.821170 0.268990 -0.589871
O55   O     O_R   0.500000 0.321170 0.731010 -0.585800
O56   O     O_R   0.500000 0.321170 0.268990 -0.589989
O57   O     O_R   0.500000 0.768980 0.178810 -0.588483
O58   O     O_R   0.500000 0.768980 0.821190 -0.592323
O59   O     O_R   0.000000 0.268980 0.178810 -0.588514
O60   O     O_R   0.000000 0.268980 0.821190 -0.592447
O61   O     O_R   0.000000 0.768980 0.678810 -0.592722
O62   O     O_R   0.000000 0.768980 0.321190 -0.587699
O63   O     O_R   0.500000 0.268980 0.678810 -0.593016
O64   O     O_R   0.500000 0.268980 0.321190 -0.587076
O65   O     O_R   0.438730 0.954890 0.954890 -0.574000
O66   O     O_R   0.438730 0.954890 0.045110 -0.569275
O67   O     O_R   0.561270 0.954890 0.954890 -0.600071
O68   O     O_R   0.561270 0.954890 0.045110 -0.598388
O69   O     O_R   0.938730 0.454890 0.954890 -0.573818
O70   O     O_R   0.938730 0.454890 0.045110 -0.569252
O71   O     O_R   0.061270 0.454890 0.954890 -0.600136
O72   O     O_R   0.061270 0.454890 0.045110 -0.598399
O73   O     O_R   0.938730 0.954890 0.454890 -0.603121
O74   O     O_R   0.938730 0.954890 0.545110 -0.606766
O75   O     O_R   0.061270 0.954890 0.454890 -0.563436
O76   O     O_R   0.061270 0.954890 0.545110 -0.570284
O77   O     O_R   0.438730 0.454890 0.454890 -0.605394
O78   O     O_R   0.438730 0.454890 0.545110 -0.613460
O79   O     O_R   0.561270 0.454890 0.454890 -0.559388
O80   O     O_R   0.561270 0.454890 0.545110 -0.563081
O81   O     O_R   0.438760 0.545060 0.454900 -0.570272
O82   O     O_R   0.438760 0.545060 0.545100 -0.600211
O83   O     O_R   0.561240 0.545060 0.454900 -0.573078
O84   O     O_R   0.561240 0.545060 0.545100 -0.578671
O85   O     O_R   0.938760 0.045060 0.454900 -0.569209
O86   O     O_R   0.938760 0.045060 0.545100 -0.594615
O87   O     O_R   0.061240 0.045060 0.454900 -0.573248
O88   O     O_R   0.061240 0.045060 0.545100 -0.584927
O89   O     O_R   0.938760 0.545060 0.954900 -0.569746
O90   O     O_R   0.938760 0.545060 0.045100 -0.597716
O91   O     O_R   0.061240 0.545060 0.954900 -0.569060
O92   O     O_R   0.061240 0.545060 0.045100 -0.581957
O93   O     O_R   0.438760 0.045060 0.954900 -0.569831
O94   O     O_R   0.438760 0.045060 0.045100 -0.597697
O95   O     O_R   0.561240 0.045060 0.954900 -0.569029
O96   O     O_R   0.561240 0.045060 0.045100 -0.581952
O97   O     O_3   0.400957 0.631659 0.444922 -0.505524
C193  C     C_3   0.328074 0.628261 0.430842 -0.214048
H65   H     H_    0.310594 0.658326 0.413649 0.138268
H66   H     H_    0.292632 0.624466 0.459742 0.192969
H67   H     H_    0.319297 0.599061 0.409935 0.126949
O98   O     O_3   0.580242 0.547322 0.637918 -0.586702
C194  C     C_3   0.655289 0.557054 0.637142 -0.295386
H68   H     H_    0.670580 0.576261 0.607784 0.157636
H69   H     H_    0.685956 0.525960 0.635899 0.190684
H70   H     H_    0.672296 0.574463 0.667133 0.151461
O99   O     O_3   0.900874 0.131701 0.445009 -0.508484
C195  C     C_3   0.827843 0.128477 0.431187 -0.207811
H71   H     H_    0.810397 0.158562 0.414020 0.137998
H72   H     H_    0.792672 0.124829 0.460238 0.198907
H73   H     H_    0.818674 0.099271 0.410352 0.125476
O100  O     O_3   0.085002 0.049190 0.636294 -0.592280
C196  C     C_3   0.159416 0.060353 0.634167 -0.311239
H74   H     H_    0.172205 0.079721 0.604492 0.160206
H75   H     H_    0.191650 0.029854 0.632484 0.185231
H76   H     H_    0.176954 0.078200 0.663792 0.155366
O101  O     O_3   0.898570 0.630585 0.943811 -0.509088
C197  C     C_3   0.825980 0.626597 0.929387 -0.214740
H77   H     H_    0.808064 0.656476 0.912041 0.138561
H78   H     H_    0.790276 0.622636 0.958170 0.194363
H79   H     H_    0.818145 0.597277 0.908521 0.128643
O102  O     O_3   0.084021 0.548869 0.136625 -0.582546
C198  C     C_3   0.158509 0.559882 0.134357 -0.319158
H80   H     H_    0.171303 0.579170 0.104628 0.161832
H81   H     H_    0.190642 0.529350 0.132671 0.181596
H82   H     H_    0.176241 0.577771 0.163918 0.155750
O103  O     O_3   0.398565 0.130588 0.943809 -0.509049
C199  C     C_3   0.325980 0.126560 0.929385 -0.214872
H83   H     H_    0.308049 0.156405 0.911985 0.138514
H84   H     H_    0.290272 0.122641 0.958172 0.194376
H85   H     H_    0.318172 0.097203 0.908569 0.128609
O104  O     O_3   0.584025 0.048871 0.136624 -0.582566
C200  C     C_3   0.658512 0.059885 0.134353 -0.319257
H86   H     H_    0.671303 0.079172 0.104623 0.161858
H87   H     H_    0.690647 0.029353 0.132667 0.181574
H88   H     H_    0.676246 0.077775 0.163913 0.155731
O105  O     O_3   0.670968 0.587872 0.393968 -0.585099
C201  C     C_3   0.659730 0.627722 0.416245 -0.349288
H89   H     H_    0.623470 0.622518 0.444515 0.194681
H90   H     H_    0.637941 0.654350 0.395699 0.154802
H91   H     H_    0.712857 0.639039 0.429137 0.186830
O106  O     O_3   0.369672 0.658207 0.534494 -0.532244
C202  C     C_3   0.314312 0.636562 0.558119 -0.357595
H92   H     H_    0.307643 0.650232 0.591294 0.156413
H93   H     H_    0.324905 0.600956 0.559492 0.189212
H94   H     H_    0.261919 0.641213 0.540853 0.182602
O107  O     O_3   0.622344 0.533697 0.347383 -0.609441
C203  C     C_3   0.694092 0.522936 0.335005 -0.276129
H95   H     H_    0.729591 0.519642 0.364048 0.201010
H96   H     H_    0.717638 0.547019 0.311893 0.150942
H97   H     H_    0.693030 0.490858 0.318390 0.168530
O108  O     O_3   0.494612 0.659864 0.523031 -0.546631
C204  C     C_3   0.564169 0.674056 0.536882 -0.404518
H98   H     H_    0.605459 0.660415 0.514461 0.187413
H99   H     H_    0.578932 0.662876 0.570005 0.157376
H100  H     H_    0.567994 0.710091 0.534532 0.181789
O109  O     O_3   0.170689 0.090723 0.396796 -0.584651
C205  C     C_3   0.156672 0.130448 0.418758 -0.352062
H101  H     H_    0.120984 0.124522 0.447179 0.192000
H102  H     H_    0.132795 0.156342 0.398110 0.155987
H103  H     H_    0.209001 0.143251 0.431435 0.187185
O110  O     O_3   0.861117 0.155112 0.537590 -0.537067
C206  C     C_3   0.810172 0.131337 0.562672 -0.364262
H104  H     H_    0.804389 0.144777 0.595995 0.158185
H105  H     H_    0.824828 0.096262 0.563789 0.192369
H106  H     H_    0.756164 0.133755 0.546767 0.184630
O111  O     O_3   0.127418 0.035795 0.349239 -0.608802
C207  C     C_3   0.200311 0.026455 0.338152 -0.275007
H107  H     H_    0.234475 0.023765 0.367822 0.200947
H108  H     H_    0.223726 0.051040 0.315522 0.150680
H109  H     H_    0.201822 0.994423 0.321467 0.168624
O112  O     O_3   0.983402 0.167496 0.523014 -0.536075
C208  C     C_3   0.057661 0.165932 0.535314 -0.410332
H110  H     H_    0.079322 0.132657 0.530111 0.176753
H111  H     H_    0.068678 0.176538 0.569119 0.157114
H112  H     H_    0.088719 0.188036 0.513622 0.196224
O113  O     O_3   0.171301 0.595785 0.901018 -0.585089
C209  C     C_3   0.152203 0.634869 0.922711 -0.349392
H113  H     H_    0.114988 0.627615 0.950094 0.194203
H114  H     H_    0.127692 0.660101 0.901520 0.158260
H115  H     H_    0.202322 0.649203 0.936858 0.188160
O114  O     O_3   0.863299 0.655790 0.036500 -0.534772
C210  C     C_3   0.811382 0.632214 0.061052 -0.362406
H116  H     H_    0.804920 0.645598 0.094351 0.156398
H117  H     H_    0.825522 0.597066 0.062217 0.192281
H118  H     H_    0.757830 0.634939 0.044656 0.182955
O115  O     O_3   0.136587 0.539826 0.852278 -0.613726
C211  C     C_3   0.210977 0.532936 0.843076 -0.287944
H119  H     H_    0.243041 0.530952 0.873620 0.203350
H120  H     H_    0.233896 0.558494 0.821356 0.154889
H121  H     H_    0.216573 0.501214 0.826121 0.167453
O116  O     O_3   0.986143 0.667574 0.023144 -0.539853
C212  C     C_3   0.060018 0.666013 0.036277 -0.415828
H122  H     H_    0.081739 0.632682 0.031546 0.177848
H123  H     H_    0.070074 0.676776 0.070132 0.158831
H124  H     H_    0.091810 0.687970 0.014817 0.197082
O117  O     O_3   0.671295 0.095794 0.901028 -0.585129
C213  C     C_3   0.652190 0.134879 0.922718 -0.349418
H125  H     H_    0.614969 0.127626 0.950098 0.194217
H126  H     H_    0.627682 0.160109 0.901524 0.158283
H127  H     H_    0.702305 0.149214 0.936869 0.188156
O118  O     O_3   0.363295 0.155787 0.036501 -0.534774
C214  C     C_3   0.311379 0.132210 0.061053 -0.362364
H128  H     H_    0.304917 0.145594 0.094353 0.156415
H129  H     H_    0.325521 0.097062 0.062218 0.192289
H130  H     H_    0.257827 0.134935 0.044657 0.182946
O119  O     O_3   0.636594 0.039831 0.852290 -0.613649
C215  C     C_3   0.710987 0.032941 0.843098 -0.288199
H131  H     H_    0.743040 0.030959 0.873647 0.203318
H132  H     H_    0.733914 0.058499 0.821380 0.154690
H133  H     H_    0.716590 0.001218 0.826146 0.167635
O120  O     O_3   0.486138 0.167574 0.023145 -0.539844
C216  C     C_3   0.560013 0.166015 0.036278 -0.415799
H134  H     H_    0.581736 0.132685 0.031547 0.177835
H135  H     H_    0.570069 0.176779 0.070133 0.158834
H136  H     H_    0.591804 0.187973 0.014817 0.197101
O121  O     O_3   0.411070 0.864532 0.050901 -0.535300
C217  C     C_3   0.336134 0.864673 0.060841 -0.240642
H137  H     H_    0.320556 0.893872 0.080240 0.143112
H138  H     H_    0.319831 0.834303 0.077970 0.139754
H139  H     H_    0.305104 0.865960 0.029957 0.190191
O122  O     O_3   0.479090 0.851678 0.962657 -0.541423
C218  C     C_3   0.546689 0.837295 0.978880 -0.274231
H140  H     H_    0.588663 0.863433 0.976814 0.148674
H141  H     H_    0.565583 0.807475 0.961685 0.146310
H142  H     H_    0.540085 0.828790 0.013678 0.204880
O123  O     O_3   0.911025 0.364548 0.050919 -0.535310
C219  C     C_3   0.836095 0.364701 0.060873 -0.240532
H143  H     H_    0.820541 0.393901 0.080277 0.143059
H144  H     H_    0.819788 0.334332 0.078005 0.139736
H145  H     H_    0.805048 0.365994 0.029996 0.190269
O124  O     O_3   0.979005 0.351683 0.962650 -0.541358
C220  C     C_3   0.046583 0.337286 0.978891 -0.274295
H146  H     H_    0.088570 0.363418 0.976844 0.148632
H147  H     H_    0.065481 0.307467 0.961697 0.146273
H148  H     H_    0.039947 0.328774 0.013685 0.204933
O125  O     O_3   0.996650 0.851563 0.536705 -0.540200
C221  C     C_3   0.926782 0.838579 0.522879 -0.274545
H149  H     H_    0.886140 0.865033 0.527759 0.151423
H150  H     H_    0.908904 0.808261 0.539631 0.144277
H151  H     H_    0.929000 0.831515 0.487561 0.198923
O126  O     O_3   0.076722 0.860978 0.453140 -0.534151
C222  C     C_3   0.152131 0.860681 0.444560 -0.242389
H152  H     H_    0.169469 0.890055 0.425912 0.148609
H153  H     H_    0.168467 0.830474 0.427213 0.141291
H154  H     H_    0.181614 0.861212 0.476002 0.191166
O127  O     O_3   0.512544 0.351512 0.536926 -0.538080
C223  C     C_3   0.443283 0.337963 0.522506 -0.275643
H155  H     H_    0.402291 0.364409 0.526157 0.150422
H156  H     H_    0.424960 0.308049 0.539819 0.144526
H157  H     H_    0.446823 0.329953 0.487436 0.201066
O128  O     O_3   0.584188 0.363129 0.450728 -0.533660
C224  C     C_3   0.658736 0.364735 0.439878 -0.235230
H158  H     H_    0.672315 0.394369 0.420542 0.147357
H159  H     H_    0.675792 0.334834 0.422258 0.140569
H160  H     H_    0.690769 0.366310 0.470383 0.191314

loop_
_geom_bond_atom_site_label_1
_geom_bond_atom_site_label_2
_ccdc_geom_bond_type
O107  C203  S    
C92   O36   A    
C127  O93   A    
C93   O37   A    
Cu6   Cu14  S    
O113  C209  S    
C34   C42   A    
C95   O39   A    
Cu6   O28   S    
C10   C154  A    
C79   C87   S    
C4    O4    A    
C89   O17   A    
Cu16  O64   S    
Cu14  O44   S    
O109  C205  S    
C212  H124  S    
C56   H32   S    
C58   C66   A    
O98   C194  S    
C14   C158  A    
C39   C47   A    
C198  H81   S    
Cu3   Cu11  S    
C70   C117  S    
C128  O96   A    
Cu1   Cu9   S    
C62   C70   A    
C40   C48   A    
C13   C157  A    
C136  O56   A    
C99   C147  S    
C8    C168  S    
C110  H58   S    
C27   H13   S    
C203  H96   S    
C223  H155  S    
C134  O62   A    
C84   H40   S    
Cu1   O1    S    
C99   O27   A    
Cu4   Cu12  S    
Cu5   O53   S    
Cu18  O96   S    
Cu5   O25   S    
C15   C23   S    
C39   C111  S    
C200  H87   S    
C103  O47   A    
C12   C188  A    
C94   O22   A    
Cu24  O84   S    
C73   C81   S    
C202  H94   S    
C218  H141  S    
C166  C174  A    
C210  H116  S    
Cu19  O69   S    
Cu7   O31   S    
C127  O95   A    
Cu8   O32   S    
C2    O2    A    
Cu4   O22   S    
C38   C78   A    
Cu23  O77   S    
C21   C29   S    
C115  O69   A    
C28   C156  S    
C153  C161  A    
C111  H63   S    
C142  C151  T    
C208  H112  S    
Cu23  Cu24  S    
C24   C32   S    
C46   C134  S    
C131  O51   A    
Cu22  O88   S    
C204  H100  S    
C133  O61   A    
O124  C220  S    
C12   C20   S    
C217  H137  S    
C1    O9    A    
C104  O48   A    
Cu19  O90   S    
C29   H17   S    
C114  O66   A    
C33   C73   A    
O108  C204  S    
Cu24  O80   S    
C63   C71   A    
C181  O101  S    
C216  H135  S    
C36   C44   A    
C37   C45   A    
O99   C195  S    
C28   H14   S    
C48   C136  S    
C175  C183  A    
Cu14  O42   S    
C176  C184  A    
C15   C191  A    
C57   O121  S    
C86   C110  S    
C97   C145  S    
Cu18  O67   S    
C23   O117  S    
Cu4   O4    S    
C140  C145  T    
C49   H25   S    
C221  H149  S    
C44   C132  S    
C32   H24   S    
C196  H74   S    
C45   C133  S    
Cu23  O81   S    
C17   C25   S    
C207  H107  S    
C104  C152  S    
C43   C131  S    
C80   C88   S    
C1    O1    A    
C10   C18   S    
C223  H157  S    
C103  O31   A    
C25   H9    S    
C215  H131  S    
C133  O53   A    
C159  C167  A    
C160  C168  A    
C112  H62   S    
C206  H105  S    
C35   C107  S    
C23   C31   S    
C8    O8    A    
C214  H130  S    
Cu21  O73   S    
O128  C224  S    
C135  O55   A    
Cu10  O10   S    
C95   O23   A    
C182  C190  A    
C220  H147  S    
C193  H65   S    
C89   O33   A    
Cu16  O16   S    
Cu6   O6    S    
C66   C113  S    
C36   C108  S    
Cu7   O29   S    
C137  C148  T    
C69   C77   A    
C119  O79   A    
C75   C83   S    
C2    C162  S    
C221  H151  S    
C71   C79   A    
Cu22  O87   S    
Cu4   O24   S    
C88   H46   S    
C40   C112  S    
C125  O89   A    
C120  O80   A    
C111  H61   S    
C82   H36   S    
O104  C200  S    
C104  O32   A    
C222  H154  S    
C24   O118  S    
C122  C186  S    
C105  H49   S    
C102  O30   A    
C49   C57   A    
C120  O78   A    
C126  C190  S    
C29   H19   S    
C52   C60   A    
C59   C67   A    
C53   C61   A    
C195  H71   S    
C55   C63   A    
Cu9   O33   S    
C17   O107  S    
C180  C188  A    
C28   H16   S    
C20   C28   S    
C172  H4    S    
C11   C155  A    
C31   H21   S    
C161  C169  A    
C90   O18   A    
C77   C85   S    
Cu5   O27   S    
C171  C179  A    
C12   C156  A    
C169  C177  A    
C90   C138  S    
Cu21  O85   S    
C196  H76   S    
C81   C105  S    
C134  O54   A    
Cu14  O14   S    
C209  H113  S    
C94   C142  S    
C207  H109  S    
O116  C212  S    
C157  C165  A    
C124  C188  S    
C155  C163  A    
C25   H11   S    
C215  H133  S    
C127  C191  S    
C128  C192  S    
Cu10  O36   S    
C178  C186  A    
C67   C116  S    
C112  H64   S    
C183  O103  S    
C22   O116  S    
C201  H91   S    
Cu22  O76   S    
C214  H128  S    
Cu17  O65   S    
Cu15  O63   S    
C19   O109  S    
Cu17  Cu18  S    
C18   O106  S    
Cu20  O92   S    
C85   H43   S    
C86   H44   S    
C42   C50   A    
C14   C22   S    
C197  H78   S    
C164  C172  A    
C67   C75   A    
C119  O77   A    
C87   H47   S    
C203  H95   S    
C88   H48   S    
C167  C175  A    
O102  C198  S    
C70   C78   A    
C9    C17   S    
C168  C176  A    
Cu24  O83   S    
C7    C167  S    
C175  H7    S    
C22   C30   S    
C47   C135  S    
C37   C109  S    
Cu17  O94   S    
C82   H34   S    
C51   H27   S    
O112  C208  S    
C136  O64   A    
Cu20  O71   S    
C222  H152  S    
C223  H156  S    
C103  C151  S    
C105  H51   S    
C97   O25   A    
C85   H41   S    
C2    O10   A    
C108  H54   S    
C194  H70   S    
C72   C80   A    
O101  C197  S    
C87   C111  S    
C84   H38   S    
C172  C180  A    
O106  C202  S    
C195  H73   S    
Cu7   O55   S    
Cu9   O35   S    
C5    O5    A    
C82   C106  S    
C213  H125  S    
C38   C46   A    
Cu3   O51   S    
O126  C222  S    
C1    C161  S    
C14   C190  A    
C99   O43   A    
C211  H119  S    
C6    O6    A    
Cu8   Cu16  S    
O119  C215  S    
Cu2   O2    S    
C87   H45   S    
C117  O75   A    
C96   O24   A    
C30   H20   S    
O110  C206  S    
C224  H158  S    
C171  H3    S    
C21   O115  S    
C141  C152  T    
Cu1   O17   S    
C219  H143  S    
C201  H89   S    
C169  H1    S    
C6    C166  S    
C139  C146  T    
C95   C143  S    
C200  H86   S    
Cu4   O52   S    
Cu5   Cu13  S    
C18   C26   S    
C173  H5    S    
C76   C84   S    
C202  H93   S    
Cu21  Cu22  S    
C11   C19   S    
Cu15  O45   S    
C219  H144  S    
C174  H6    S    
C81   H35   S    
C125  O91   A    
C85   C109  S    
O125  C221  S    
C179  C187  A    
C4    C164  S    
C61   C69   A    
Cu2   Cu10  S    
C69   C118  S    
C177  C185  A    
O120  C216  S    
Cu11  O11   S    
C41   C49   A    
C208  H111  S    
C179  O99   S    
C205  H101  S    
C86   H42   S    
C63   O127  S    
C90   O34   A    
C181  C189  A    
C26   H12   S    
C204  H99   S    
C210  H118  S    
C217  H138  S    
C184  C192  A    
C38   C110  S    
C163  C171  A    
Cu19  O89   S    
C203  H97   S    
C3    C163  S    
Cu12  O60   S    
C173  C181  A    
C216  H134  S    
C62   O126  S    
C174  C182  A    
C74   C82   S    
C154  C162  A    
C27   C155  S    
C106  H50   S    
C217  H139  S    
Cu15  O47   S    
C107  H55   S    
O111  C207  S    
C50   C58   A    
C108  H56   S    
C198  H82   S    
Cu18  O68   S    
Cu8   O56   S    
Cu7   Cu15  S    
C116  O72   A    
C29   C157  S    
Cu21  O74   S    
C54   C62   A    
C123  O85   A    
C129  O57   A    
C20   O112  S    
C135  O63   A    
C83   H39   S    
C121  O83   A    
C205  H103  S    
C34   C106  S    
Cu11  O39   S    
C4    O12   A    
C15   C159  A    
O117  C213  S    
Cu12  O40   S    
C5    O13   A    
C102  C150  S    
Cu19  Cu20  S    
C162  C170  A    
C211  H121  S    
C91   O19   A    
C218  H140  S    
C102  O46   A    
Cu16  O46   S    
Cu14  O62   S    
C215  H132  S    
C33   C105  S    
C176  H8    S    
C30   H18   S    
C199  H84   S    
C209  H114  S    
Cu18  O95   S    
C34   C74   A    
C219  H145  S    
C91   C139  S    
Cu1   O19   S    
C113  O65   A    
C96   O40   A    
C214  H129  S    
C92   O20   A    
C200  H88   S    
C89   C137  S    
C100  O44   A    
C212  H123  S    
Cu2   O50   S    
C193  H66   S    
C92   C140  S    
C60   O124  S    
C93   C141  S    
C158  C166  A    
C218  H142  S    
Cu13  O41   S    
O122  C218  S    
C118  O76   A    
O114  C210  S    
Cu19  O70   S    
C106  H52   S    
C201  H90   S    
Cu9   O57   S    
C57   C65   A    
O100  C196  S    
C132  O60   A    
C221  H150  S    
C94   O38   A    
Cu23  O78   S    
C8    O16   A    
C9    C185  A    
C33   C41   A    
C193  H67   S    
C177  O97   S    
C25   C153  S    
C222  H153  S    
C43   C51   A    
C32   H22   S    
C26   H10   S    
C84   C108  S    
C54   H30   S    
C126  O92   A    
C68   C115  S    
C88   C112  S    
Cu12  O12   S    
C21   O113  S    
Cu24  O79   S    
C199  H83   S    
C60   C68   A    
C195  H72   S    
O118  C214  S    
C216  H136  S    
C19   O111  S    
Cu12  O38   S    
C31   H23   S    
Cu10  O34   S    
C109  H57   S    
C39   C79   A    
C170  C178  A    
C66   C74   A    
C24   O120  S    
C98   O26   A    
C18   O108  S    
C65   C114  S    
C198  H80   S    
C3    O11   A    
C182  O102  S    
C129  O49   A    
O105  C201  S    
C65   C73   A    
O123  C219  S    
Cu13  O61   S    
C196  H75   S    
Cu11  O59   S    
Cu23  O82   S    
C17   O105  S    
C71   C120  S    
C83   H37   S    
C11   C187  A    
C93   O21   A    
Cu11  O37   S    
C100  C148  S    
O121  C217  S    
C123  O87   A    
C52   H28   S    
C59   O123  S    
C132  O52   A    
C96   C144  S    
C165  C173  A    
O127  C223  S    
Cu16  O48   S    
Cu15  O15   S    
C13   C189  A    
Cu3   O3    S    
C220  H146  S    
C101  C149  S    
C206  H106  S    
C36   C76   A    
C10   C186  A    
C113  O67   A    
C143  C150  T    
Cu3   O23   S    
C209  H115  S    
C130  O50   A    
C122  O84   A    
O103  C199  S    
C40   C80   A    
C5    C165  S    
C124  O86   A    
C121  O81   A    
C48   C56   A    
C78   C86   S    
C3    O3    A    
Cu13  O43   S    
C16   C24   S    
C55   H31   S    
C118  O74   A    
C131  O59   A    
C197  H79   S    
C46   C54   A    
Cu6   O54   S    
C61   O125  S    
C19   C27   S    
Cu2   O18   S    
C53   H29   S    
C180  O100  S    
C101  O45   A    
C130  O58   A    
C13   C21   S    
Cu17  O93   S    
Cu1   O49   S    
Cu20  O72   S    
C97   O41   A    
C202  H92   S    
C7    O15   A    
C98   C146  S    
C213  H127  S    
C212  H122  S    
C121  C185  S    
C9    C153  A    
C23   O119  S    
C126  O90   A    
C194  H69   S    
C144  C149  T    
C178  O98   S    
O115  C211  S    
C199  H85   S    
C138  C147  T    
C128  O94   A    
C56   C64   A    
C42   C130  S    
C7    O7    A    
C68   C76   A    
C64   O128  S    
C213  H126  S    
C156  C164  A    
O97   C193  S    
C109  H59   S    
C20   O110  S    
C110  H60   S    
C27   H15   S    
C107  H53   S    
C211  H120  S    
C116  O70   A    
C26   C154  S    
C51   C59   A    
Cu13  O13   S    
C35   C43   A    
C22   O114  S    
C47   C55   A    
Cu21  O86   S    
Cu2   O20   S    
C30   C158  S    
C37   C77   A    
C16   C192  A    
C117  O73   A    
Cu9   O9    S    
Cu6   O26   S    
C35   C75   A    
C81   H33   S    
C50   H26   S    
C183  C191  A    
Cu5   O5    S    
C6    O14   A    
Cu7   O7    S    
Cu8   O8    S    
C184  O104  S    
C220  H148  S    
C224  H159  S    
Cu8   O30   S    
C206  H104  S    
Cu10  O58   S    
C41   C129  S    
Cu22  O75   S    
C44   C52   A    
C224  H160  S    
Cu3   O21   S    
Cu17  O66   S    
C72   C119  S    
C115  O71   A    
C122  O82   A    
C83   C107  S    
Cu20  O91   S    
C64   C72   A    
C123  C187  S    
C208  H110  S    
C124  O88   A    
C205  H102  S    
C207  H108  S    
C45   C53   A    
C100  O28   A    
C58   O122  S    
C101  O29   A    
C16   C160  A    
C98   O42   A    
C204  H98   S    
C114  O68   A    
C210  H117  S    
C197  H77   S    
C125  C189  S    
C32   C160  S    
C31   C159  S    
C194  H68   S    
C91   O35   A    
C170  H2    S    
