data_mof_unit_50061.cif
_audit_creation_date              2012-12-10T19:00:44-0500
_audit_creation_method            fapswitch 2.2
_symmetry_space_group_name_H-M    P1
_symmetry_Int_Tables_number       1
_space_group_crystal_system       triclinic
_cell_length_a                    15.01304
_cell_length_b                    10.823005
_cell_length_c                    9.600788
_cell_angle_alpha                 89.343495
_cell_angle_beta                  91.143512
_cell_angle_gamma                 89.073987
_cell_volume                      1559.37296029

loop_
_atom_site_label
_atom_site_type_symbol
_atom_type_description
_atom_site_fract_x
_atom_site_fract_y
_atom_site_fract_z
_atom_type_partial_charge
C1    C     C_R   0.507210 0.262940 0.500364 0.803843
C2    C     C_R   0.902426 0.613551 0.491661 0.031701
C3    C     C_R   0.959873 0.278917 0.549261 -0.167192
C4    C     C_R   0.052328 0.281322 0.546126 -0.211529
C5    C     C_R   0.095865 0.392842 0.523958 0.126326
C6    C     C_R   0.046270 0.503961 0.504091 0.073435
C7    C     C_R   0.090308 0.616532 0.480287 0.008566
C8    C     C_R   0.039543 0.726774 0.467798 -0.217200
C9    C     C_R   0.946714 0.727182 0.475060 0.001144
C10   C     C_R   0.188470 0.394600 0.522340 -0.294942
C11   C     C_R   0.232391 0.504922 0.497868 -0.122295
C12   C     C_R   0.329092 0.501256 0.499000 0.846646
C13   C     C_R   0.184382 0.616571 0.475174 -0.021370
C14   C     C_R   0.524619 0.061289 0.622270 0.111695
C15   C     C_R   0.523855 0.130166 0.498826 -0.239089
C16   C     C_R   0.534784 0.065974 0.371979 -0.238775
C17   C     C_R   0.513293 0.939676 0.369717 0.365460
C18   C     C_R   0.508341 0.872075 0.496815 -0.223910
C19   C     C_R   0.521750 0.934641 0.621638 0.076703
C20   C     C_3   0.470719 0.931883 0.754095 -0.421559
C21   C     C_3   0.473549 0.072258 0.753020 -0.427902
C22   C     C_R   0.577481 0.486758 0.075078 0.185063
C23   C     C_R   0.499858 0.738044 0.499044 0.876935
C24   C     C_R   0.422203 0.494907 0.069738 0.488816
C25   C     C_R   0.422846 0.502283 0.922236 -0.143231
C26   C     C_R   0.577173 0.481482 0.928719 0.212079
C27   C     C_3   0.661199 0.552117 0.918471 -0.520270
C28   C     C_3   0.659775 0.563916 0.076762 -0.276245
C29   C     C_R   0.670744 0.495702 0.501601 0.853136
C30   C     C_R   0.809420 0.607301 0.487381 -0.245579
C31   C     C_R   0.766981 0.495329 0.506572 -0.159952
C32   C     C_R   0.815772 0.386073 0.534994 0.374466
C33   C     C_R   0.909174 0.388349 0.531391 0.032606
C34   C     C_R   0.952603 0.502141 0.509085 -0.008448
Cu1   Cu    Cu3+1 0.500000 0.499980 0.640670 0.956210
Cu2   Cu    Cu3+1 0.500000 0.500020 0.359330 1.016154
H1    H     H_    0.768331 0.688708 0.468147 0.216812
H2    H     H_    0.402417 0.895328 0.740789 0.213602
H3    H     H_    0.510528 0.889119 0.841248 0.252073
H4    H     H_    0.406973 0.117056 0.736020 0.189099
H5    H     H_    0.514566 0.110089 0.839690 0.242034
H6    H     H_    0.359937 0.507173 0.865999 0.178741
H7    H     H_    0.717285 0.492913 0.882904 0.180869
H8    H     H_    0.652050 0.639860 0.857934 0.236541
H9    H     H_    0.717171 0.516161 0.130436 0.176623
H10   H     H_    0.928377 0.190854 0.565664 0.191543
H11   H     H_    0.089883 0.195626 0.560862 0.155230
H12   H     H_    0.226886 0.309704 0.539048 0.136410
H13   H     H_    0.071815 0.814911 0.457136 0.196913
N1    N     N_R   0.500570 0.500930 0.147930 -0.231270
N2    N     N_R   0.500570 0.500890 0.852020 -0.206112
O1    O     O_R   0.500000 0.319640 0.618810 -0.581802
O2    O     O_R   0.500010 0.319680 0.381230 -0.590378
O3    O     O_R   0.370250 0.499950 0.618800 -0.581935
O4    O     O_R   0.370260 0.499990 0.381220 -0.539361
O5    O     O_R   0.499990 0.680320 0.618770 -0.564282
O6    O     O_R   0.500000 0.680360 0.381190 -0.532939
O7    O     O_R   0.629740 0.500010 0.618780 -0.605905
O8    O     O_R   0.629750 0.500050 0.381200 -0.568311
O9    O     O_3   0.493206 0.884002 0.244421 -0.515979
C35   C     C_3   0.403373 0.912198 0.206407 0.112880
H14   H     H_    0.398746 0.001311 0.148228 0.164388
H15   H     H_    0.359012 0.919135 0.297681 0.132838
C36   C     C_3   0.367579 0.811618 0.112627 -0.629938
H16   H     H_    0.364942 0.723863 0.172763 0.278951
H17   H     H_    0.299257 0.836968 0.074839 0.207265
H18   H     H_    0.410947 0.798889 0.021537 0.243578
O10   O     O_3   0.340430 0.488639 0.131453 -0.567043
C37   C     C_3   0.308297 0.366679 0.121011 0.070274
H19   H     H_    0.336683 0.309144 0.208284 0.167348
H20   H     H_    0.324841 0.320892 0.020916 0.111241
C38   C     C_3   0.207306 0.369835 0.130801 -0.761015
H21   H     H_    0.177659 0.420112 0.039205 0.247363
H22   H     H_    0.181771 0.274117 0.132710 0.204616
H23   H     H_    0.186794 0.417505 0.226802 0.266034
O11   O     O_3   0.772445 0.275426 0.554826 -0.616407
C39   C     C_3   0.757154 0.257101 0.698486 -0.006612
H24   H     H_    0.691349 0.297798 0.724689 0.188330
H25   H     H_    0.809314 0.298065 0.767684 0.143095
C40   C     C_3   0.755252 0.119156 0.730237 -0.689864
H26   H     H_    0.822877 0.077912 0.719300 0.256793
H27   H     H_    0.733080 0.103368 0.838570 0.219308
H28   H     H_    0.708749 0.072901 0.657153 0.265475
C41   C     C_2   0.645234 0.695346 0.122068 0.982591
O12   O     O_2   0.590172 0.761806 0.061234 -0.572178
O13   O     O_R   0.697419 0.742184 0.230508 -0.774057
H29   H     H_    0.682928 0.832007 0.250322 0.343272
C42   C     C_2   0.232815 0.732574 0.450394 0.794404
O14   O     O_2   0.217888 0.792922 0.343864 -0.615820
O15   O     O_R   0.293572 0.773958 0.550698 -0.785949
H30   H     H_    0.317924 0.857975 0.526126 0.302840
C43   C     C_2   0.899721 0.849201 0.468474 0.837476
O16   O     O_2   0.838436 0.871795 0.546704 -0.625117
O17   O     O_R   0.928795 0.940736 0.376812 -0.750109
H31   H     H_    0.892395 0.020186 0.382591 0.342962
C44   C     C_2   0.571932 0.126166 0.244865 0.939061
O18   O     O_2   0.542870 0.101937 0.129024 -0.577146
O19   O     O_R   0.642960 0.207787 0.255256 -0.728073
H32   H     H_    0.667624 0.214904 0.353565 0.327233

loop_
_geom_bond_atom_site_label_1
_geom_bond_atom_site_label_2
_ccdc_geom_bond_type
C24   C25   A    
C28   C41   S    
C19   C20   S    
Cu2   O8    S    
C7    C8    A    
C39   H24   S    
C26   C27   S    
Cu1   O7    S    
C14   C21   S    
C41   O13   S    
C40   H28   S    
C30   C31   A    
C40   H26   S    
C16   C17   A    
C3    C33   A    
C15   C16   A    
C37   H20   S    
C18   C19   A    
C35   H15   S    
C1    O2    A    
Cu2   O2    S    
C27   H8    S    
C29   O8    A    
C8    C9    A    
C44   O19   S    
C1    C15   S    
C22   N1    A    
C2    C34   A    
C22   C28   S    
Cu1   O3    S    
C37   H19   S    
C38   H23   S    
C9    C43   S    
C33   C34   A    
O11   C39   S    
C39   H25   S    
C24   N1    A    
C28   H9    S    
C16   C44   S    
C18   C23   S    
C36   H18   S    
C23   O5    A    
C41   O12   D    
C38   H22   S    
Cu2   O6    S    
C20   H3    S    
O13   H29   S    
O10   C37   S    
C6    C34   A    
C30   H1    S    
O9    C35   S    
Cu1   Cu2   S    
C36   H17   S    
C35   C36   S    
C25   N2    A    
C20   H2    S    
C31   C32   A    
C44   O18   D    
C20   C21   S    
C43   O17   S    
C17   C18   A    
O17   H31   S    
C42   O14   D    
C21   H5    S    
C40   H27   S    
C42   O15   S    
C10   H12   S    
C3    C4    A    
Cu1   O1    S    
C37   C38   S    
Cu2   N1    S    
C39   C40   S    
C23   O6    A    
Cu1   O5    S    
C14   C19   A    
C38   H21   S    
C25   H6    S    
C32   O11   S    
C11   C12   S    
C6    C7    A    
C3    H10   S    
C2    C30   A    
C32   C33   A    
C5    C10   A    
C29   C31   S    
Cu2   O4    S    
C26   N2    A    
C36   H16   S    
Cu1   N2    S    
C11   C13   A    
O15   H30   S    
C5    C6    A    
C21   H4    S    
C4    C5    A    
C13   C42   S    
C43   O16   D    
C35   H14   S    
C1    O1    A    
C12   O4    A    
C10   C11   A    
C24   O10   S    
C17   O9    S    
C27   H7    S    
C7    C13   A    
C29   O7    A    
O19   H32   S    
C22   C26   A    
C27   C28   S    
C14   C15   A    
C2    C9    A    
C8    H13   S    
C12   O3    A    
C4    H11   S    
