data_mof_unit_22610.cif
_audit_creation_date              2012-12-11T17:07:45-0500
_audit_creation_method            fapswitch 2.2
_symmetry_space_group_name_H-M    P1
_symmetry_Int_Tables_number       1
_space_group_crystal_system       triclinic
_cell_length_a                    17.148739
_cell_length_b                    17.148726
_cell_length_c                    17.320049
_cell_angle_alpha                 90.000233
_cell_angle_beta                  90.00038
_cell_angle_gamma                 89.997159
_cell_volume                      5093.46313995

loop_
_atom_site_label
_atom_site_type_symbol
_atom_type_description
_atom_site_fract_x
_atom_site_fract_y
_atom_site_fract_z
_atom_type_partial_charge
Br1   Br    Br    0.836659 0.336800 0.642606 -0.483280
Br2   Br    Br    0.163596 0.335781 0.142070 -0.482364
Br3   Br    Br    0.582771 0.080816 0.127071 -0.438896
Br4   Br    Br    0.836401 0.664221 0.142068 -0.482342
Br5   Br    Br    0.335804 0.163585 0.857908 -0.482334
Br6   Br    Br    0.080900 0.582703 0.872797 -0.438995
Br7   Br    Br    0.664242 0.836398 0.857941 -0.482314
Br8   Br    Br    0.919105 0.417294 0.872807 -0.438987
Br9   Br    Br    0.581313 0.918069 0.628290 -0.439201
Br10  Br    Br    0.163348 0.663205 0.642602 -0.483278
Br11  Br    Br    0.418714 0.081973 0.628226 -0.439164
Br12  Br    Br    0.918058 0.581301 0.371734 -0.439217
Br13  Br    Br    0.663132 0.163255 0.357353 -0.483252
Br14  Br    Br    0.081949 0.418691 0.371732 -0.439228
Br15  Br    Br    0.336872 0.836739 0.357354 -0.483248
Br16  Br    Br    0.417228 0.919199 0.127060 -0.438874
C1    C     C_R   0.423172 0.330301 0.856083 -0.025497
C2    C     C_R   0.169706 0.923150 0.356080 -0.025335
C3    C     C_R   0.681922 0.770893 0.352455 -0.130495
C4    C     C_R   0.229098 0.318079 0.647550 -0.130484
C5    C     C_R   0.227054 0.862567 0.800325 -0.137219
C6    C     C_R   0.770893 0.681926 0.647547 -0.130491
C7    C     C_R   0.772945 0.137433 0.800323 -0.137214
C8    C     C_R   0.728959 0.181872 0.852365 -0.130238
C9    C     C_R   0.726909 0.637472 0.699577 -0.137366
C10   C     C_R   0.271040 0.818128 0.852368 -0.130242
C11   C     C_R   0.273084 0.362533 0.699579 -0.137363
C12   C     C_R   0.637466 0.726905 0.300429 -0.137370
C13   C     C_R   0.105700 0.198510 0.400487 -0.163538
C14   C     C_R   0.818137 0.271051 0.147632 -0.130240
C15   C     C_R   0.362528 0.273087 0.300420 -0.137373
C16   C     C_R   0.181862 0.728943 0.147635 -0.130233
C17   C     C_R   0.830294 0.076849 0.356080 -0.025330
C18   C     C_R   0.923156 0.169700 0.643922 -0.025336
C19   C     C_R   0.198511 0.105701 0.599510 -0.163538
C20   C     C_R   0.076844 0.830300 0.643922 -0.025337
C21   C     C_R   0.801490 0.894301 0.599512 -0.163550
C22   C     C_3   0.886933 0.318254 0.742155 0.069524
C23   C     C_3   0.654236 0.864396 0.695819 0.062382
C24   C     C_3   0.113072 0.681746 0.742150 0.069525
C25   C     C_R   0.698516 0.394274 0.900507 -0.163397
C26   C     C_3   0.345793 0.135619 0.695779 0.062420
C27   C     C_3   0.864393 0.654223 0.304194 0.062388
C28   C     C_3   0.681746 0.113004 0.257784 0.069461
C29   C     C_3   0.135610 0.345773 0.304194 0.062399
C30   C     C_3   0.318254 0.887001 0.257778 0.069445
C31   C     C_3   0.364146 0.846311 0.195087 0.063116
C32   C     C_3   0.181571 0.386434 0.241549 0.070023
C33   C     C_3   0.635852 0.153696 0.195094 0.063120
C34   C     C_3   0.818430 0.613562 0.241550 0.070019
C35   C     C_3   0.386453 0.181578 0.758426 0.070009
C36   C     C_R   0.576830 0.669702 0.856086 -0.025507
C37   C     C_3   0.153765 0.635843 0.804830 0.063047
C38   C     C_3   0.613577 0.818435 0.758464 0.070038
C39   C     C_3   0.846240 0.364157 0.804835 0.063054
C40   C     C_R   0.391907 0.697887 0.898417 -0.125491
C41   C     C_R   0.327743 0.419358 0.856862 -0.072110
C42   C     C_R   0.608093 0.302113 0.898417 -0.125500
C43   C     C_R   0.672259 0.580645 0.856865 -0.072096
C44   C     C_R   0.419355 0.327741 0.143135 -0.072100
C45   C     C_R   0.302112 0.608094 0.101580 -0.125497
C46   C     C_R   0.580641 0.672254 0.143140 -0.072089
C47   C     C_R   0.301484 0.605726 0.900507 -0.163401
C48   C     C_R   0.697888 0.391906 0.101580 -0.125502
C49   C     C_R   0.919347 0.172272 0.356878 -0.072569
C50   C     C_R   0.802120 0.891901 0.398398 -0.125499
C51   C     C_R   0.080654 0.827727 0.356878 -0.072569
C52   C     C_R   0.197880 0.108098 0.398399 -0.125503
C53   C     C_R   0.891901 0.802120 0.601600 -0.125484
C54   C     C_R   0.827732 0.080649 0.643125 -0.072539
C55   C     C_R   0.108099 0.197881 0.601599 -0.125488
C56   C     C_R   0.172268 0.919351 0.643125 -0.072539
C57   C     C_R   0.361378 0.359539 0.813910 0.053226
C58   C     C_R   0.394271 0.698518 0.099488 -0.163377
C59   C     C_R   0.686260 0.316884 0.884384 0.078164
C60   C     C_R   0.638624 0.640466 0.813916 0.053235
C61   C     C_R   0.313740 0.683116 0.884383 0.078162
C62   C     C_R   0.316879 0.686263 0.115609 0.078179
C63   C     C_R   0.640459 0.638617 0.186091 0.053223
C64   C     C_R   0.683120 0.313737 0.115609 0.078175
C65   C     C_R   0.359536 0.361376 0.186085 0.053237
C66   C     C_R   0.816921 0.813740 0.384345 0.078020
C67   C     C_R   0.140470 0.861347 0.313915 0.053270
C68   C     C_R   0.183079 0.186259 0.384346 0.078019
C69   C     C_R   0.669697 0.576825 0.143918 -0.025503
C70   C     C_R   0.859530 0.138651 0.313915 0.053262
C71   C     C_R   0.861356 0.140463 0.686088 0.053260
C72   C     C_R   0.186260 0.183082 0.615650 0.078025
C73   C     C_R   0.138644 0.859538 0.686089 0.053261
C74   C     C_R   0.813741 0.816921 0.615653 0.078018
C75   C     C_R   0.820118 0.287832 0.838569 0.071052
C76   C     C_R   0.640034 0.746267 0.716688 -0.002456
C77   C     C_R   0.179883 0.712167 0.838566 0.071059
C78   C     C_R   0.359975 0.253748 0.716666 -0.002449
C79   C     C_R   0.746261 0.640027 0.283323 -0.002441
C80   C     C_R   0.605728 0.301482 0.099489 -0.163372
C81   C     C_R   0.712189 0.179862 0.161392 0.071011
C82   C     C_R   0.253738 0.359967 0.283317 -0.002447
C83   C     C_R   0.287803 0.820142 0.161382 0.071014
C84   C     C_R   0.246039 0.860085 0.216369 -0.002178
C85   C     C_R   0.211929 0.320029 0.338268 0.071213
C86   C     C_R   0.753954 0.139920 0.216378 -0.002177
C87   C     C_R   0.788071 0.679966 0.338272 0.071209
C88   C     C_R   0.320037 0.211941 0.661713 0.071202
C89   C     C_R   0.139939 0.753938 0.783587 -0.002187
C90   C     C_R   0.679970 0.788077 0.661736 0.071213
C91   C     C_R   0.330299 0.423171 0.143915 -0.025504
C92   C     C_R   0.860063 0.246062 0.783590 -0.002188
C93   C     C_R   0.747015 0.261237 0.863473 0.031760
C94   C     C_R   0.666251 0.673091 0.741391 0.077973
C95   C     C_R   0.252985 0.738763 0.863473 0.031761
C96   C     C_R   0.333751 0.326918 0.741383 0.077972
C97   C     C_R   0.673083 0.666244 0.258617 0.077970
C98   C     C_R   0.738774 0.252982 0.136508 0.031773
C99   C     C_R   0.326912 0.333748 0.258609 0.077971
C100  C     C_R   0.261223 0.747018 0.136506 0.031762
C101  C     C_R   0.173004 0.833726 0.241335 0.077865
C102  C     C_R   0.894301 0.801490 0.400487 -0.163539
C103  C     C_R   0.238656 0.247041 0.363384 0.031779
C104  C     C_R   0.826994 0.166273 0.241337 0.077867
C105  C     C_R   0.761343 0.752956 0.363386 0.031776
C106  C     C_R   0.247042 0.238662 0.636609 0.031775
C107  C     C_R   0.166271 0.826991 0.758658 0.077877
C108  C     C_R   0.752957 0.761346 0.636616 0.031778
C109  C     C_R   0.833730 0.173009 0.758658 0.077877
C110  C     C_R   0.137428 0.772926 0.199686 -0.137209
C111  C     C_R   0.318075 0.229102 0.352450 -0.130492
C112  C     C_R   0.862571 0.227068 0.199682 -0.137214
H1    H     H_    0.464010 0.285791 0.839233 0.105177
H2    H     H_    0.214195 0.963999 0.339217 0.105542
H3    H     H_    0.077618 0.253821 0.410451 0.150541
H4    H     H_    0.785806 0.035999 0.339216 0.105541
H5    H     H_    0.964007 0.214187 0.660789 0.105509
H6    H     H_    0.253821 0.077620 0.589543 0.150527
H7    H     H_    0.035994 0.785813 0.660789 0.105507
H8    H     H_    0.746179 0.922383 0.589548 0.150549
H9    H     H_    0.951379 0.325015 0.742084 0.152450
H10   H     H_    0.702591 0.901556 0.717490 0.137705
H11   H     H_    0.048627 0.674984 0.742076 0.152451
H12   H     H_    0.753825 0.422344 0.910501 0.150244
H13   H     H_    0.297448 0.098446 0.717452 0.137699
H14   H     H_    0.901557 0.702574 0.282520 0.137704
H15   H     H_    0.675009 0.048546 0.257832 0.152441
H16   H     H_    0.098445 0.297423 0.282521 0.137704
H17   H     H_    0.324995 0.951463 0.257828 0.152439
H18   H     H_    0.401600 0.798196 0.216801 0.137589
H19   H     H_    0.174544 0.450858 0.241257 0.152389
H20   H     H_    0.598400 0.201809 0.216806 0.137593
H21   H     H_    0.825461 0.549136 0.241257 0.152387
H22   H     H_    0.450880 0.174556 0.758715 0.152393
H23   H     H_    0.535993 0.714214 0.839238 0.105162
H24   H     H_    0.201897 0.598424 0.783125 0.137621
H25   H     H_    0.549152 0.825469 0.758762 0.152388
H26   H     H_    0.798109 0.401578 0.783129 0.137620
H27   H     H_    0.419191 0.754528 0.902695 0.118216
H28   H     H_    0.278606 0.455513 0.841327 0.113971
H29   H     H_    0.580809 0.245472 0.902696 0.118226
H30   H     H_    0.721398 0.544492 0.841331 0.113972
H31   H     H_    0.455509 0.278602 0.158669 0.113945
H32   H     H_    0.245472 0.580807 0.097299 0.118208
H33   H     H_    0.544486 0.721392 0.158676 0.113940
H34   H     H_    0.246175 0.577657 0.910501 0.150249
H35   H     H_    0.754528 0.419191 0.097299 0.118211
H36   H     H_    0.955511 0.221401 0.341355 0.114161
H37   H     H_    0.745468 0.919174 0.402651 0.118334
H38   H     H_    0.044488 0.778598 0.341355 0.114157
H39   H     H_    0.254531 0.080824 0.402652 0.118335
H40   H     H_    0.919174 0.745468 0.597347 0.118321
H41   H     H_    0.778602 0.044486 0.658648 0.114165
H42   H     H_    0.080825 0.254532 0.597344 0.118321
H43   H     H_    0.221398 0.955515 0.658649 0.114154
H44   H     H_    0.079070 0.753423 0.213533 0.144178
H45   H     H_    0.422340 0.753826 0.089487 0.150186
H46   H     H_    0.343328 0.176447 0.376015 0.150120
H47   H     H_    0.920932 0.246566 0.213523 0.144180
H48   H     H_    0.656669 0.823549 0.376020 0.150115
H49   H     H_    0.176438 0.343329 0.623992 0.150109
H50   H     H_    0.246539 0.920934 0.786499 0.144188
H51   H     H_    0.823546 0.656671 0.623978 0.150111
H52   H     H_    0.753460 0.079067 0.786496 0.144187
H53   H     H_    0.676220 0.156670 0.875786 0.150148
H54   H     H_    0.746296 0.579036 0.713272 0.144189
H55   H     H_    0.323777 0.843331 0.875790 0.150148
H56   H     H_    0.714207 0.535988 0.160768 0.105166
H57   H     H_    0.253690 0.420964 0.713283 0.144187
H58   H     H_    0.579029 0.746293 0.286733 0.144187
H59   H     H_    0.843338 0.323798 0.124221 0.150128
H60   H     H_    0.420963 0.253697 0.286722 0.144189
H61   H     H_    0.156663 0.676192 0.124231 0.150125
H62   H     H_    0.577658 0.246174 0.089490 0.150193
H63   H     H_    0.285788 0.464008 0.160764 0.105169
H64   H     H_    0.922383 0.746179 0.410451 0.150536
N1    N     N_R   0.425360 0.368540 0.922560 -0.045069
N2    N     N_R   0.131460 0.925360 0.422560 -0.045159
N3    N     N_R   0.074640 0.131460 0.422560 -0.048127
N4    N     N_R   0.868540 0.074640 0.422560 -0.045158
N5    N     N_R   0.925360 0.131460 0.577440 -0.045149
N6    N     N_R   0.131460 0.074640 0.577440 -0.048129
N7    N     N_R   0.074640 0.868540 0.577440 -0.045149
N8    N     N_R   0.868540 0.925360 0.577440 -0.048129
N9    N     N_R   0.425340 0.631500 0.922560 -0.051202
N10   N     N_R   0.368500 0.425340 0.922560 -0.045036
N11   N     N_R   0.574660 0.368500 0.922560 -0.051203
N12   N     N_R   0.631460 0.425360 0.922560 -0.048173
N13   N     N_R   0.631500 0.574660 0.922560 -0.045037
N14   N     N_R   0.425340 0.368500 0.077440 -0.045039
N15   N     N_R   0.368500 0.574660 0.077440 -0.051202
N16   N     N_R   0.574660 0.631500 0.077440 -0.045035
N17   N     N_R   0.631500 0.425340 0.077440 -0.051203
N18   N     N_R   0.925340 0.131500 0.422560 -0.045067
N19   N     N_R   0.868500 0.925340 0.422560 -0.051180
N20   N     N_R   0.074660 0.868500 0.422560 -0.045067
N21   N     N_R   0.131500 0.074660 0.422560 -0.051179
N22   N     N_R   0.925340 0.868500 0.577440 -0.051181
N23   N     N_R   0.574640 0.631460 0.922560 -0.045069
N24   N     N_R   0.868500 0.074660 0.577440 -0.045066
N25   N     N_R   0.074660 0.131500 0.577440 -0.051181
N26   N     N_R   0.131500 0.925340 0.577440 -0.045067
N27   N     N_R   0.368540 0.574640 0.922560 -0.048173
N28   N     N_R   0.425360 0.631460 0.077440 -0.048174
N29   N     N_R   0.631460 0.574640 0.077440 -0.045065
N30   N     N_R   0.574640 0.368540 0.077440 -0.048173
N31   N     N_R   0.368540 0.425360 0.077440 -0.045069
N32   N     N_R   0.925360 0.868540 0.422560 -0.048127
Ni1   Ni    Ni4+2 0.500000 0.369720 0.000000 0.250964
Ni2   Ni    Ni4+2 0.630280 0.500000 0.000000 0.250966
Ni3   Ni    Ni4+2 0.500000 0.630280 0.000000 0.250962
Ni4   Ni    Ni4+2 0.369720 0.500000 0.000000 0.250963
Ni5   Ni    Ni4+2 0.000000 0.869720 0.500000 0.250959
Ni6   Ni    Ni4+2 0.130280 0.000000 0.500000 0.250962
Ni7   Ni    Ni4+2 0.000000 0.130280 0.500000 0.250959
Ni8   Ni    Ni4+2 0.869720 0.000000 0.500000 0.250966

loop_
_geom_bond_atom_site_label_1
_geom_bond_atom_site_label_2
_ccdc_geom_bond_type
C28   C33   S    
C20   C73   A    
C39   H26   S    
C5    C10   A    
C65   C91   A    
C51   C67   A    
N20   Ni5   S    
C2    N2    A    
N2    Ni6   S    
C1    N1    A    
C34   H21   S    
C20   N7    A    
C15   C111  A    
N11   N12   A    
C76   C94   A    
C30   H17   S    
C38   H25   S    
Br3   C33   S    
C49   C70   A    
N15   N28   A    
C47   H34   S    
C21   C74   A    
C54   H41   S    
Br12  C27   S    
C28   H15   S    
N16   Ni3   S    
C14   C98   A    
C43   H30   S    
C34   C79   S    
C23   C38   S    
C88   C106  A    
C41   C57   A    
C24   H11   S    
Br9   C23   S    
C31   C83   S    
C89   C107  A    
Br11  C26   S    
Br10  C24   S    
C11   H57   S    
C21   N8    A    
C47   N27   A    
C61   C95   S    
C3    H48   S    
N26   Ni6   S    
C25   H12   S    
C39   C75   S    
C25   C59   A    
C77   C89   A    
Br13  C28   S    
C102  H64   S    
C44   C65   A    
C22   C39   S    
N4    Ni8   S    
C35   H22   S    
C58   N28   A    
C6    C9    A    
C41   N10   A    
C16   H61   S    
C29   H16   S    
N8    N22   A    
C7    C8    A    
C44   H31   S    
C37   H24   S    
Br15  C30   S    
C92   C109  A    
C64   C80   A    
C101  C110  A    
N14   N31   A    
C66   C105  S    
C4    C106  A    
C81   C86   A    
C26   C35   S    
C7    C109  A    
N4    N18   A    
C10   H55   S    
C43   N13   A    
C111  H46   S    
C31   H18   S    
C78   C88   A    
C55   N25   A    
C1    C57   A    
N17   N30   A    
C48   C64   A    
N7    N26   A    
C80   H62   S    
N14   Ni1   S    
C40   H27   S    
C54   C71   A    
C19   H6    S    
C46   N16   A    
C79   C87   A    
C42   C59   A    
Br14  C29   S    
C91   N31   A    
N5    Ni7   S    
C41   H28   S    
C14   C112  A    
C24   C89   S    
C59   C93   S    
N3    N21   A    
N19   Ni8   S    
C53   N22   A    
C1    H1    S    
C27   C87   S    
C52   C68   A    
C56   H43   S    
C46   C63   A    
N13   Ni2   S    
C17   N4    A    
C13   C68   A    
C72   C106  S    
C63   C69   A    
C45   H32   S    
C83   C100  A    
C28   C86   S    
N31   Ni4   S    
N10   Ni4   S    
C40   N9    A    
C73   C107  S    
N30   Ni1   S    
Br2   C32   S    
N16   N29   A    
C13   N3    A    
C102  N32   A    
N29   Ni2   S    
C42   H29   S    
C36   N23   A    
C40   C61   A    
C33   H20   S    
Br4   C34   S    
C85   C103  A    
C15   H60   S    
C17   C70   A    
C38   C76   S    
C3    C12   A    
C12   H58   S    
C18   C71   A    
C50   C66   A    
C19   C72   A    
C83   C84   A    
C45   C62   A    
N18   Ni7   S    
C65   C99   S    
C26   H13   S    
N6    Ni6   S    
C2    C67   A    
C49   N18   A    
C23   C90   S    
N3    Ni7   S    
C51   N20   A    
C16   C100  A    
C25   N12   A    
C52   N21   A    
N9    N27   A    
C7    H52   S    
N5    N24   A    
C29   C85   S    
Br1   C22   S    
C45   N15   A    
Br8   C39   S    
C67   C101  S    
C9    C94   A    
C17   H4    S    
C76   C90   A    
C5    H50   S    
C77   C95   A    
C42   N11   A    
C69   H56   S    
C80   N30   A    
C63   C97   S    
N27   Ni4   S    
C48   N17   A    
C2    H2    S    
N6    N25   A    
N17   Ni2   S    
C66   C102  A    
Br6   C37   S    
N12   Ni2   S    
C53   C74   A    
C87   C105  A    
C20   H7    S    
C71   C109  S    
C86   C104  A    
C9    H54   S    
C51   H38   S    
C57   C96   S    
C47   C61   A    
C29   C32   S    
N9    Ni3   S    
C30   C84   S    
C30   C31   S    
C3    C105  A    
C112  H47   S    
C21   H8    S    
C50   H37   S    
C8    H53   S    
C74   C108  S    
C75   C92   A    
C62   C100  S    
C8    C93   A    
C64   C98   S    
C6    H51   S    
C36   C60   A    
N11   Ni1   S    
C26   C88   S    
C68   C103  S    
C11   C96   A    
C104  C112  A    
C27   C34   S    
C6    C108  A    
C4    H49   S    
C4    C11   A    
C82   C85   A    
C56   N26   A    
C50   N19   A    
C18   H5    S    
N13   N23   A    
C54   N24   A    
C14   H59   S    
C75   C93   A    
Br16  C31   S    
N7    Ni5   S    
C53   H40   S    
N1    Ni1   S    
N32   Ni5   S    
N25   Ni7   S    
C56   C73   A    
C18   N5    A    
C44   N14   A    
C82   C99   A    
C13   H3    S    
C79   C97   A    
C36   H23   S    
N19   N32   A    
C10   C95   A    
C49   H36   S    
C78   C96   A    
N24   Ni8   S    
C22   H9    S    
C58   H45   S    
N23   Ni3   S    
C32   C82   S    
C15   C99   A    
C22   C92   S    
C55   H42   S    
C23   H10   S    
C33   C81   S    
C110  H44   S    
C12   C97   A    
N1    N10   A    
C35   C78   S    
N2    N20   A    
C55   C72   A    
C46   H33   S    
C52   H39   S    
N15   Ni4   S    
N28   Ni3   S    
C60   C94   S    
C24   C37   S    
C58   C62   A    
C91   H63   S    
Br5   C35   S    
C27   H14   S    
C70   C104  S    
C84   C101  A    
N8    Ni8   S    
Br7   C38   S    
C90   C108  A    
C81   C98   A    
C16   C110  A    
N22   Ni5   S    
C69   N29   A    
C43   C60   A    
C37   C77   S    
C5    C107  A    
N21   Ni6   S    
C19   N6    A    
C103  C111  A    
C32   H19   S    
C48   H35   S    
