data_mof_unit_62498.cif
_audit_creation_date              2012-12-10T19:20:59-0500
_audit_creation_method            fapswitch 2.2
_symmetry_space_group_name_H-M    P1
_symmetry_Int_Tables_number       1
_space_group_crystal_system       triclinic
_cell_length_a                    14.76517
_cell_length_b                    15.991158
_cell_length_c                    17.110037
_cell_angle_alpha                 89.656085
_cell_angle_beta                  93.954112
_cell_angle_gamma                 90.127901
_cell_volume                      4030.19204671

loop_
_atom_site_label
_atom_site_type_symbol
_atom_type_description
_atom_site_fract_x
_atom_site_fract_y
_atom_site_fract_z
_atom_type_partial_charge
C1    C     C_R   0.499884 0.340850 0.499733 0.831199
C2    C     C_R   0.500116 0.659150 0.500260 0.831343
C3    C     C_R   0.500148 0.912775 0.500037 0.151609
C4    C     C_R   0.499911 0.087228 0.499900 0.151302
C5    C     C_R   0.471271 0.956645 0.431820 -0.176326
C6    C     C_R   0.528795 0.043357 0.568114 -0.177027
C7    C     C_1   0.500224 0.823316 0.500118 -0.053440
C8    C     C_1   0.499806 0.176686 0.499831 -0.055365
C9    C     C_1   0.499769 0.251738 0.499768 -0.151517
C10   C     C_1   0.500240 0.748264 0.500201 -0.149593
C11   C     C_R   0.947574 0.470894 0.433533 0.275877
C12   C     C_R   0.052407 0.530060 0.566098 0.277509
C13   C     C_R   0.902714 0.500232 0.498687 -0.079101
C14   C     C_R   0.097248 0.501221 0.500748 -0.079393
C15   C     C_R   0.956255 0.529293 0.564212 -0.205206
C16   C     C_R   0.043720 0.471869 0.435342 -0.206163
C17   C     C_1   0.802613 0.500131 0.499640 0.153851
C18   C     C_1   0.197373 0.500397 0.500159 0.153555
C19   C     C_R   0.511127 0.499696 0.651103 0.870481
C20   C     C_R   0.488866 0.500244 0.348911 0.871489
C21   C     C_R   0.517259 0.497242 0.736807 -0.125736
C22   C     C_R   0.482682 0.502521 0.263227 -0.125469
C23   C     C_R   0.460241 0.548452 0.778752 0.170026
C24   C     C_R   0.539093 0.450667 0.221337 0.171509
C25   C     C_R   0.464203 0.543895 0.860094 -0.179563
C26   C     C_R   0.535045 0.455011 0.139974 -0.176288
C27   C     C_R   0.525012 0.488766 0.901079 0.299862
C28   C     C_R   0.474739 0.510567 0.098963 0.299069
C29   C     C_R   0.583055 0.439810 0.859556 -0.258809
C30   C     C_R   0.417221 0.560107 0.140453 -0.258262
C31   C     C_R   0.579208 0.442597 0.777691 0.186927
C32   C     C_R   0.421186 0.557542 0.222316 0.186485
C33   C     C_R   0.528906 0.956086 0.568183 -0.155035
C34   C     C_R   0.471160 0.043917 0.431751 -0.156446
Cu1   Cu    Cu3+1 0.589220 0.500000 0.499980 1.018670
Cu2   Cu    Cu3+1 0.410780 0.500000 0.500020 1.018446
H1    H     H_    0.579004 0.414516 0.109141 0.190678
H2    H     H_    0.419758 0.583909 0.890930 0.190705
H3    H     H_    0.629871 0.397441 0.891107 0.155638
H4    H     H_    0.370773 0.602778 0.108869 0.156102
H5    H     H_    0.551134 0.076563 0.621032 0.138214
H6    H     H_    0.448929 0.923439 0.378902 0.138315
H7    H     H_    0.551319 0.922452 0.621163 0.147843
H8    H     H_    0.448744 0.077552 0.378772 0.147336
H9    H     H_    0.076891 0.450066 0.384724 0.159761
H10   H     H_    0.923054 0.552376 0.614327 0.160422
N1    N     N_2   0.529979 0.480316 0.983798 -0.232795
N2    N     N_2   0.469780 0.518928 0.016247 -0.233601
N3    N     N_1   0.276710 0.499980 0.499980 -0.141687
N4    N     N_1   0.723290 0.500020 0.500020 -0.141619
O1    O     O_R   0.575320 0.380310 0.499960 -0.549003
O2    O     O_R   0.424680 0.619690 0.500040 -0.549183
O3    O     O_R   0.424640 0.380310 0.500000 -0.583361
O4    O     O_R   0.575360 0.619690 0.500000 -0.582703
O5    O     O_R   0.583590 0.499240 0.613900 -0.557153
O6    O     O_R   0.416410 0.500760 0.386100 -0.557416
O7    O     O_R   0.432900 0.499240 0.613940 -0.552545
O8    O     O_R   0.567100 0.500760 0.386060 -0.553107
Br1   Br    Br    0.620378 0.369847 0.271603 -0.535946
Br2   Br    Br    0.378146 0.628703 0.728661 -0.528287
N5    N     N_2   0.636123 0.388747 0.736845 -0.405848
H11   H     H_    0.698422 0.377744 0.766155 0.253107
C35   C     C_3   0.592544 0.312047 0.709875 -0.657820
H12   H     H_    0.638956 0.276838 0.673752 0.226753
H13   H     H_    0.529188 0.325563 0.673256 0.213924
H14   H     H_    0.576135 0.272522 0.760675 0.219341
N6    N     N_2   0.364850 0.611960 0.263136 -0.405439
H15   H     H_    0.302626 0.623410 0.233864 0.255074
C36   C     C_3   0.409192 0.688365 0.289953 -0.655804
H16   H     H_    0.363157 0.724056 0.326043 0.227351
H17   H     H_    0.425938 0.727620 0.239074 0.219725
H18   H     H_    0.472440 0.674413 0.326561 0.213923
N7    N     N_2   0.897385 0.442032 0.364777 -0.429386
H19   H     H_    0.832641 0.465804 0.355682 0.277287
C37   C     C_3   0.900743 0.352618 0.353198 -0.616666
H20   H     H_    0.862961 0.336410 0.296940 0.252650
H21   H     H_    0.868896 0.319493 0.401624 0.230434
H22   H     H_    0.972011 0.331315 0.350563 0.219991
N8    N     N_2   0.102512 0.562078 0.633594 -0.422701
H23   H     H_    0.165760 0.585804 0.623858 0.282855
C38   C     C_3   0.103690 0.508209 0.701843 -0.632013
H24   H     H_    0.141134 0.539531 0.752065 0.248986
H25   H     H_    0.138339 0.448395 0.690110 0.224412
H26   H     H_    0.033511 0.495145 0.718180 0.222788

loop_
_geom_bond_atom_site_label_1
_geom_bond_atom_site_label_2
_ccdc_geom_bond_type
C7    C10   T    
C5    H6    S    
C35   H13   S    
C27   C29   A    
N7    H19   S    
C31   N5    S    
Cu1   Cu2   S    
C20   O6    A    
C38   H24   S    
C19   O7    A    
C21   C31   A    
C22   C32   A    
Cu1   O8    S    
C19   C21   S    
C24   C26   A    
C3    C7    S    
C3    C33   A    
C19   O5    A    
C12   N8    S    
N5    C35   S    
C36   H17   S    
C14   C18   S    
C1    O3    A    
Cu2   O3    S    
C8    C9    T    
C6    H5    S    
Cu2   O2    S    
C4    C8    S    
C35   H14   S    
Cu1   O4    S    
N7    C37   S    
N5    H11   S    
C38   H25   S    
C23   Br2   S    
C4    C34   A    
Cu1   O5    S    
N6    H15   S    
C33   H7    S    
C1    C9    S    
C34   H8    S    
C4    C6    A    
Cu2   O7    S    
C2    O4    A    
N8    C38   S    
N8    H23   S    
N6    C36   S    
C16   H9    S    
C36   H18   S    
C37   H20   S    
Cu2   O6    S    
C25   H2    S    
C37   H21   S    
C11   C16   A    
N1    N2    D    
C12   C15   A    
C5    C34   A    
C29   H3    S    
Cu1   N4    S    
C30   H4    S    
C1    O1    A    
C2    O2    A    
C32   N6    S    
C12   C14   A    
C13   C15   A    
Cu1   O1    S    
C14   C16   A    
C20   O8    A    
C2    C10   S    
C38   H26   S    
C27   N1    S    
C28   N2    S    
C20   C22   S    
C3    C5    A    
C17   N4    T    
C26   H1    S    
C25   C27   A    
C26   C28   A    
C6    C33   A    
C13   C17   S    
C21   C23   A    
C29   C31   A    
C30   C32   A    
C11   C13   A    
C24   Br1   S    
C28   C30   A    
C22   C24   A    
C23   C25   A    
C36   H16   S    
C37   H22   S    
C11   N7    S    
C35   H12   S    
C15   H10   S    
Cu2   N3    S    
C18   N3    T    
