data_mof_unit_26926.cif
_audit_creation_date              2012-12-11T14:15:32-0500
_audit_creation_method            fapswitch 2.2
_symmetry_space_group_name_H-M    P1
_symmetry_Int_Tables_number       1
_space_group_crystal_system       triclinic
_cell_length_a                    11.150582
_cell_length_b                    12.720526
_cell_length_c                    23.516037
_cell_angle_alpha                 90.656573
_cell_angle_beta                  96.902736
_cell_angle_gamma                 68.582719
_cell_volume                      3080.80498987

loop_
_atom_site_label
_atom_site_type_symbol
_atom_type_description
_atom_site_fract_x
_atom_site_fract_y
_atom_site_fract_z
_atom_type_partial_charge
C1    C     C_R   0.149499 0.616670 0.428869 0.538274
C2    C     C_R   0.669378 0.553584 0.309663 -0.128696
C3    C     C_R   0.714095 0.727140 0.317670 -0.126811
C4    C     C_R   0.706363 0.735135 0.258151 0.040284
C5    C     C_R   0.688740 0.647179 0.225313 0.041750
C6    C     C_R   0.683998 0.652205 0.166568 -0.118762
C7    C     C_R   0.693897 0.839411 0.170705 -0.131809
C8    C     C_R   0.715306 0.828823 0.230556 -0.139161
C9    C     C_1   0.235896 0.162678 0.123001 -0.002138
C10   C     C_2   0.181084 0.233042 0.226642 -0.120914
C11   C     C_2   0.155034 0.165482 0.262716 -0.120987
C12   C     C_R   0.750225 0.603610 0.403742 0.541508
C13   C     C_1   0.132104 0.198991 0.320512 -0.045862
C14   C     C_1   0.210536 0.197583 0.169750 -0.046918
C15   C     C_1   0.115835 0.232070 0.368338 -0.001786
C16   C     C_1   0.167610 0.750077 0.123731 -0.004248
C17   C     C_2   0.142535 0.689270 0.227966 -0.124605
C18   C     C_2   0.236720 0.676343 0.271646 -0.126082
C19   C     C_1   0.217951 0.652584 0.329246 -0.047598
C20   C     C_1   0.155342 0.721069 0.170788 -0.047355
C21   C     C_1   0.193950 0.634887 0.376189 -0.001728
C22   C     C_1   0.628082 0.756939 0.864918 0.000165
C23   C     C_R   0.101097 0.282214 0.423354 0.543283
C24   C     C_2   0.698780 0.714353 0.760958 -0.114481
C25   C     C_2   0.613728 0.700732 0.718865 -0.119546
C26   C     C_1   0.651884 0.668703 0.662791 -0.044053
C27   C     C_1   0.663417 0.738583 0.818046 -0.044421
C28   C     C_1   0.690560 0.639644 0.617230 0.002127
C29   C     C_R   0.193805 0.186741 0.855844 -0.035057
C30   C     C_R   0.109391 0.231273 0.641982 -0.018514
C31   C     C_R   0.010257 0.172961 0.715190 -0.102135
C32   C     C_R   0.014420 0.193445 0.657589 -0.165792
C33   C     C_R   0.200894 0.246750 0.683744 -0.090575
C34   C     C_R   0.152216 0.617945 0.589948 0.551798
C35   C     C_R   0.193331 0.233418 0.741210 0.038405
C36   C     C_R   0.098352 0.194143 0.757533 0.046427
C37   C     C_R   0.094826 0.175297 0.815588 0.212063
C38   C     C_R   0.274476 0.240556 0.839760 -0.152558
C39   C     C_R   0.277806 0.261347 0.782316 0.225776
C40   C     C_R   0.134126 0.757604 0.847996 0.005703
C41   C     C_R   0.202504 0.643513 0.646574 -0.004873
C42   C     C_R   0.312779 0.568779 0.740598 -0.132951
C43   C     C_R   0.299196 0.557959 0.681426 -0.165192
C44   C     C_R   0.131469 0.746169 0.670753 0.265626
C45   C     C_R   0.749800 0.602315 0.566006 0.545432
C46   C     C_R   0.129416 0.748119 0.729681 0.054313
C47   C     C_R   0.222491 0.659766 0.765092 -0.006108
C48   C     C_R   0.224788 0.665293 0.824303 -0.122634
C49   C     C_R   0.033230 0.837988 0.812199 -0.127709
C50   C     C_R   0.033043 0.835123 0.753494 -0.112760
C51   C     C_R   0.265829 0.110103 0.069436 0.539532
C52   C     C_R   0.601200 0.774520 0.080965 0.543046
C53   C     C_R   0.189651 0.787880 0.069816 0.544282
C54   C     C_R   0.239606 0.116995 0.908422 0.551283
C55   C     C_R   0.573704 0.776502 0.918144 0.547127
C56   C     C_R   0.100196 0.278871 0.585203 0.540346
C57   C     C_R   0.164812 0.787879 0.906269 0.548322
C58   C     C_R   0.671882 0.752797 0.138729 0.005749
C59   C     C_R   0.700631 0.633758 0.343640 0.008165
C60   C     C_R   0.667237 0.558513 0.250979 -0.142826
Cr1   Cr    Cr6+3 0.189770 0.415650 0.511620 1.028670
Cr2   Cr    Cr6+3 0.930400 0.667320 0.496770 1.048482
Cr3   Cr    Cr6+3 0.879870 0.417010 0.491650 1.026332
Cr4   Cr    Cr6+3 0.149500 0.973980 0.985330 1.036072
Cr5   Cr    Cr6+3 0.457000 0.976510 0.994660 1.029758
Cr6   Cr    Cr6+3 0.411170 0.724270 0.995270 1.021533
H1    H     H_    0.671465 0.582945 0.142412 0.132768
H2    H     H_    0.052636 0.679652 0.235313 0.142485
H3    H     H_    0.516429 0.709950 0.726835 0.136495
H4    H     H_    0.796479 0.704075 0.753144 0.143892
H5    H     H_    0.345104 0.255193 0.871538 0.125842
H6    H     H_    0.936511 0.143055 0.726392 0.174066
H7    H     H_    0.941742 0.182925 0.625526 0.131030
H8    H     H_    0.273103 0.277713 0.671617 0.198990
H9    H     H_    0.301677 0.601847 0.851742 0.125592
H10   H     H_    0.685967 0.917582 0.149893 0.135759
H11   H     H_    0.960998 0.909288 0.829501 0.170244
H12   H     H_    0.387676 0.502817 0.767297 0.149939
H13   H     H_    0.958158 0.901817 0.727036 0.165199
H14   H     H_    0.358535 0.480290 0.663441 0.160146
H15   H     H_    0.649057 0.492830 0.225708 0.110827
H16   H     H_    0.729493 0.896892 0.255075 0.113122
H17   H     H_    0.656870 0.481584 0.328567 0.144118
H18   H     H_    0.736349 0.790241 0.343601 0.124604
H19   H     H_    0.153809 0.083752 0.249438 0.138249
H20   H     H_    0.183151 0.314420 0.240117 0.138454
H21   H     H_    0.326267 0.686958 0.264651 0.141753
O1    O     O_R   0.196340 0.303200 0.448500 -0.504549
O2    O     O_R   0.811960 0.658090 0.547150 -0.486834
O3    O     O_R   0.757930 0.506140 0.547110 -0.507875
O4    O     O_R   0.988670 0.321620 0.556040 -0.495328
O5    O     O_3   0.000020 0.499990 0.500010 -0.251710
O6    O     O_R   0.113660 0.883270 0.047820 -0.508679
O7    O     O_R   0.186930 0.068530 0.043990 -0.499860
O8    O     O_R   0.377770 0.089040 0.054220 -0.512112
O9    O     O_R   0.562800 0.872960 0.056970 -0.499884
O10   O     O_R   0.555390 0.700940 0.062700 -0.521847
O11   O     O_R   0.295020 0.731920 0.049950 -0.495167
O12   O     O_R   0.199310 0.519670 0.454880 -0.494875
O13   O     O_R   0.094290 0.884230 0.921550 -0.502059
O14   O     O_R   0.168980 0.069410 0.926940 -0.482747
O15   O     O_R   0.358400 0.089990 0.927950 -0.517820
O16   O     O_R   0.544850 0.873850 0.939920 -0.489415
O17   O     O_R   0.536020 0.701900 0.936430 -0.511912
O18   O     O_R   0.277070 0.732810 0.932890 -0.505700
O19   O     O_3   0.339220 0.891590 0.991750 -0.246445
O20   O     O_R   0.045660 0.691380 0.441680 -0.513793
O21   O     O_R   0.811930 0.659460 0.430950 -0.505202
O22   O     O_R   0.757900 0.507620 0.421760 -0.519358
O23   O     O_R   0.988630 0.322990 0.439840 -0.496998
O24   O     O_R   0.196380 0.301720 0.573850 -0.523193
O25   O     O_R   0.199350 0.518300 0.571080 -0.513582
O26   O     O_R   0.045700 0.689900 0.567030 -0.450167
O27   O     O_3   0.000287 0.139361 0.831226 -0.707756
H22   H     H_    0.975652 0.173602 0.868183 0.335370
O28   O     O_3   0.367481 0.302407 0.765428 -0.731253
H23   H     H_    0.422644 0.312585 0.799769 0.317532
O29   O     O_3   0.049807 0.839004 0.636900 -0.556115
C61   C     C_3   0.125539 0.896911 0.618727 -0.115261
H24   H     H_    0.199158 0.843098 0.592051 0.115733
H25   H     H_    0.173468 0.927915 0.655945 0.120003
H26   H     H_    0.060759 0.971666 0.591770 0.141298

loop_
_geom_bond_atom_site_label_1
_geom_bond_atom_site_label_2
_ccdc_geom_bond_type
C57   O18   A    
C1    C21   S    
C34   O25   A    
C6    C58   A    
C54   O14   A    
C35   C36   A    
C9    C51   S    
C24   C27   S    
C4    C8    A    
C50   H13   S    
C1    O12   A    
O27   H22   S    
C24   H4    S    
C7    C8    A    
C34   O26   A    
C8    H16   S    
Cr6   O10   S    
C36   C37   A    
C19   C21   T    
Cr4   O6    S    
C5    C6    A    
C2    C60   A    
Cr2   O21   S    
C29   C54   S    
C40   C49   A    
Cr2   O2    S    
C55   O16   A    
C52   O10   A    
C17   C20   S    
O28   H23   S    
C18   C19   S    
O29   C61   S    
C16   C53   S    
C12   C59   S    
C56   O4    A    
C31   C32   A    
Cr2   O5    S    
C29   C38   A    
C45   O2    A    
C56   O24   A    
C5    C60   A    
Cr1   O5    S    
C15   C23   S    
C41   C43   A    
C48   H9    S    
C2    H17   S    
Cr1   O12   S    
C34   C41   S    
Cr5   O15   S    
Cr6   O19   S    
C12   O22   A    
C44   C46   A    
C61   H25   S    
Cr4   O14   S    
C28   C45   S    
Cr5   O8    S    
C53   O6    A    
Cr6   O17   S    
C24   C25   D    
Cr2   O26   S    
C10   C14   S    
C32   H7    S    
C12   O21   A    
C2    C59   A    
C37   O27   S    
C43   H14   S    
C57   O13   A    
C30   C56   S    
C55   O17   A    
Cr3   O5    S    
C35   C39   A    
C9    C14   T    
Cr1   O1    S    
C60   H15   S    
C47   C48   A    
C44   O29   S    
C16   C20   T    
C17   C18   D    
C45   O3    A    
C22   C55   S    
C52   C58   S    
C1    O20   A    
C31   H6    S    
C42   H12   S    
C22   C27   T    
C13   C15   T    
C41   C44   A    
C25   H3    S    
C42   C43   A    
Cr5   O16   S    
Cr6   O18   S    
C29   C37   A    
C3    C4    A    
Cr1   O24   S    
Cr5   O19   S    
Cr5   O9    S    
C61   H26   S    
C40   C48   A    
C23   O23   A    
C46   C47   A    
C10   H20   S    
C17   H2    S    
C40   C57   S    
C7    C58   A    
C30   C33   A    
C54   O15   A    
C4    C5    A    
C61   H24   S    
Cr4   O19   S    
C7    H10   S    
Cr2   O20   S    
C53   O11   A    
C46   C50   A    
C26   C28   T    
C18   H21   S    
C23   O1    A    
Cr6   O11   S    
Cr3   O23   S    
C25   C26   S    
Cr4   O7    S    
C6    H1    S    
C30   C32   A    
C11   C13   S    
C38   C39   A    
C11   H19   S    
Cr3   O3    S    
C33   C35   A    
C49   H11   S    
C52   O9    A    
C42   C47   A    
C10   C11   D    
C51   O7    A    
C33   H8    S    
Cr4   O13   S    
C49   C50   A    
Cr3   O4    S    
C3    H18   S    
C39   O28   S    
C31   C36   A    
Cr1   O25   S    
C38   H5    S    
C51   O8    A    
Cr3   O22   S    
C3    C59   A    
