data_mof_unit_35706.cif
_audit_creation_date              2012-12-10T20:39:55-0500
_audit_creation_method            fapswitch 2.2
_symmetry_space_group_name_H-M    P1
_symmetry_Int_Tables_number       1
_space_group_crystal_system       triclinic
_cell_length_a                    23.359058
_cell_length_b                    10.734829
_cell_length_c                    9.880924
_cell_angle_alpha                 89.629597
_cell_angle_beta                  89.569272
_cell_angle_gamma                 89.770946
_cell_volume                      2477.55486323

loop_
_atom_site_label
_atom_site_type_symbol
_atom_type_description
_atom_site_fract_x
_atom_site_fract_y
_atom_site_fract_z
_atom_type_partial_charge
C1    C     C_R   0.500522 0.259953 0.500763 0.942552
C2    C     C_R   0.969394 0.281543 0.634777 -0.145661
C3    C     C_R   0.029010 0.278328 0.634374 -0.127659
C4    C     C_R   0.060282 0.366928 0.559773 -0.024675
C5    C     C_R   0.031229 0.458829 0.484023 -0.020399
C6    C     C_R   0.062168 0.548035 0.408466 -0.023819
C7    C     C_R   0.032915 0.639659 0.333971 -0.135079
C8    C     C_R   0.973379 0.643710 0.335664 -0.146319
C9    C     C_R   0.120096 0.367494 0.560086 0.588831
C10   C     C_R   0.121842 0.544011 0.410983 0.574538
C11   C     C_R   0.234978 0.538057 0.586675 -0.134694
C12   C     C_R   0.389565 0.498197 0.500185 0.927624
C13   C     C_R   0.293930 0.551207 0.589479 -0.207978
C14   C     C_R   0.328009 0.484221 0.499162 -0.044337
C15   C     C_R   0.303237 0.402863 0.406426 -0.295191
C16   C     C_R   0.244008 0.389562 0.401818 0.402770
C17   C     C_R   0.209930 0.458317 0.492848 0.202241
C18   C     C_R   0.761423 0.458464 0.374683 -0.090434
C19   C     C_R   0.702164 0.466785 0.376369 -0.214672
C20   C     C_R   0.673071 0.493795 0.497563 -0.037618
C21   C     C_R   0.703963 0.512872 0.616858 -0.203388
C22   C     C_R   0.763346 0.505524 0.614595 -0.092382
C23   C     C_R   0.500987 0.739707 0.499464 0.877227
C24   C     C_R   0.792055 0.478142 0.493570 0.305742
C25   C     C_R   0.497238 0.060964 0.623643 0.016770
C26   C     C_R   0.505967 0.127898 0.503138 -0.080603
C27   C     C_R   0.523606 0.065408 0.385345 -0.163300
C28   C     C_R   0.523997 0.936387 0.383680 -0.184677
C29   C     C_R   0.506707 0.871105 0.499911 -0.048705
C30   C     C_R   0.497007 0.933889 0.619970 0.026410
C31   C     C_3   0.449009 0.919997 0.718551 -0.579280
C32   C     C_3   0.449992 0.061432 0.729309 0.753748
C33   C     C_R   0.455519 0.448533 0.072921 0.248889
C34   C     C_R   0.610714 0.499293 0.499422 0.862593
C35   C     C_R   0.546600 0.538025 0.070735 -0.125401
C36   C     C_R   0.546804 0.536854 0.926954 -0.095408
C37   C     C_R   0.454043 0.455939 0.930970 0.341468
C38   C     C_3   0.393483 0.504852 0.935309 -0.169631
C39   C     C_3   0.394506 0.484770 0.087903 -0.508684
C40   C     C_R   0.882431 0.559488 0.416522 0.508649
C41   C     C_R   0.880321 0.380205 0.561632 0.510806
C42   C     C_R   0.940086 0.373809 0.561145 -0.017761
C43   C     C_R   0.971099 0.462595 0.485217 -0.014995
C44   C     C_R   0.942142 0.555901 0.411460 -0.016446
H1    H     H_    0.946419 0.212220 0.693655 0.196956
H2    H     H_    0.679201 0.450855 0.283273 0.164010
H3    H     H_    0.682355 0.534022 0.711367 0.158682
H4    H     H_    0.787139 0.521524 0.706466 0.149789
H5    H     H_    0.534623 0.115670 0.293468 0.170098
H6    H     H_    0.535106 0.888588 0.290831 0.173746
H7    H     H_    0.410245 0.881844 0.669372 0.200989
H8    H     H_    0.462212 0.867375 0.810022 0.241313
H9    H     H_    0.583653 0.572151 0.123717 0.154684
H10   H     H_    0.050451 0.206690 0.692989 0.201354
H11   H     H_    0.584142 0.569466 0.872220 0.151136
H12   H     H_    0.362806 0.442773 0.883319 0.247274
H13   H     H_    0.389077 0.570159 0.149703 0.223727
H14   H     H_    0.367753 0.404843 0.121281 0.236634
H15   H     H_    0.055881 0.708991 0.275076 0.201472
H16   H     H_    0.951981 0.716015 0.277925 0.197486
H17   H     H_    0.208454 0.592005 0.655158 0.159348
H18   H     H_    0.312848 0.616360 0.658362 0.149529
H19   H     H_    0.330272 0.349290 0.338870 0.193029
H20   H     H_    0.783671 0.436923 0.281112 0.150925
N1    N     N_R   0.853003 0.472403 0.490621 -0.358611
N2    N     N_R   0.149200 0.454745 0.485873 -0.345660
N3    N     N_R   0.499610 0.499140 0.142800 -0.124156
N4    N     N_R   0.499610 0.499180 0.857150 -0.119884
O1    O     O_R   0.500010 0.316790 0.614690 -0.553508
O2    O     O_2   0.849635 0.294874 0.631710 -0.547781
O3    O     O_2   0.149065 0.282735 0.634590 -0.514011
O4    O     O_2   0.152524 0.628793 0.340025 -0.528150
O5    O     O_R   0.500000 0.316760 0.385350 -0.616028
O6    O     O_R   0.416160 0.499980 0.614700 -0.604332
O7    O     O_R   0.416150 0.499940 0.385360 -0.634618
O8    O     O_R   0.500000 0.683240 0.614650 -0.630243
O9    O     O_R   0.499990 0.683210 0.385310 -0.621627
O10   O     O_R   0.583850 0.500060 0.614640 -0.624008
O11   O     O_R   0.583840 0.500020 0.385300 -0.633509
O12   O     O_2   0.853865 0.649891 0.349199 -0.550803
Zn1   Zn    Zn3+2 0.500000 0.500020 0.653130 1.013245
Zn2   Zn    Zn3+2 0.500000 0.499980 0.346870 0.970091
S1    S     S_3+6 0.383781 0.132366 0.676283 0.024626
O13   O     O_2   0.334906 0.078620 0.756724 -0.279117
O14   O     O_2   0.385750 0.269891 0.700325 -0.299252
O15   O     O_3   0.373091 0.105551 0.510865 -0.593194
H21   H     H_    0.334424 0.139417 0.492215 0.386362
S2    S     S_3+6 0.474388 0.113672 0.892239 0.026610
O16   O     O_2   0.515061 0.220366 0.873203 -0.329958
O17   O     O_2   0.424204 0.155004 0.977087 -0.264704
O18   O     O_3   0.509088 0.998565 0.974383 -0.597248
H22   H     H_    0.523789 0.037560 0.057657 0.375287
C45   C     C_3   0.386808 0.643887 0.898378 -0.410204
C46   C     C_3   0.326283 0.690574 0.934689 -0.397756
C47   C     C_3   0.316498 0.823150 0.884453 -0.692748
H23   H     H_    0.349156 0.886205 0.927558 0.299169
H24   H     H_    0.318773 0.826539 0.772252 0.253754
H25   H     H_    0.273388 0.855708 0.916895 0.276592
H26   H     H_    0.293490 0.628792 0.890050 0.242995
H27   H     H_    0.319911 0.689299 0.046158 0.255751
H28   H     H_    0.418908 0.700285 0.953455 0.218041
H29   H     H_    0.395002 0.657424 0.788812 0.228888
S3    S     S_3+6 0.213531 0.288243 0.281842 0.061774
O19   O     O_2   0.170344 0.358353 0.198721 -0.233938
O20   O     O_2   0.258789 0.235844 0.189120 -0.268835
O21   O     O_3   0.180266 0.170485 0.362638 -0.491451
H30   H     H_    0.210320 0.130729 0.418624 0.368300

loop_
_geom_bond_atom_site_label_1
_geom_bond_atom_site_label_2
_ccdc_geom_bond_type
C22   H4    S    
C45   C46   S    
C12   O6    A    
C35   H9    S    
C41   C42   A    
C47   H23   S    
C23   O8    A    
C19   H2    S    
C7    C8    A    
C5    C6    A    
C26   C27   A    
C33   C39   S    
S1    O13   D    
C18   C24   A    
N4    Zn1   S    
C23   C29   S    
C28   C29   A    
C37   C38   S    
C30   C31   S    
C3    H10   S    
O21   H30   S    
C15   C16   A    
C32   S2    S    
C37   N4    A    
C18   C19   A    
C9    N2    A    
O9    Zn2   S    
C28   H6    S    
C13   H18   S    
C19   C20   A    
C16   C17   A    
C40   O12   S    
C35   N3    A    
C31   H8    S    
C20   C34   S    
S2    O16   D    
C25   C32   S    
C5    C43   A    
C21   C22   A    
C7    H15   S    
C10   N2    A    
C2    H1    S    
C47   H25   S    
C9    O3    S    
C45   H28   S    
O18   H22   S    
O15   H21   S    
C41   N1    A    
C25   C26   A    
C39   H14   S    
C1    O1    A    
C35   C36   A    
C45   H29   S    
C43   C44   A    
C29   C30   A    
C31   H7    S    
C34   O11   A    
C16   S3    S    
C31   C32   S    
S2    O18   S    
C46   H27   S    
C47   H24   S    
C17   N2    S    
S3    O20   D    
C23   O9    A    
C24   N1    S    
S1    O14   D    
S2    O17   D    
C40   N1    A    
C1    C26   S    
C22   C24   A    
C42   C43   A    
O6    Zn1   S    
C3    C4    A    
O5    Zn2   S    
S3    O19   D    
C33   N3    A    
C25   C30   A    
C32   S1    S    
C11   C17   A    
C8    C44   A    
C12   C14   S    
C4    C5    A    
C11   H17   S    
O8    Zn1   S    
C6    C10   A    
O11   Zn2   S    
C36   N4    A    
O7    Zn2   S    
C6    C7    A    
C1    O5    A    
C2    C3    A    
C36   H11   S    
C34   O10   A    
C11   C13   A    
O10   Zn1   S    
C18   H20   S    
C38   C39   S    
C46   H26   S    
C2    C42   A    
C38   C45   S    
S3    O21   S    
C46   C47   S    
C33   C37   A    
O1    Zn1   S    
C40   C44   A    
S1    O15   S    
C38   H12   S    
C20   C21   A    
N3    Zn2   S    
C12   O7    A    
C27   C28   A    
C15   H19   S    
C14   C15   A    
C4    C9    A    
C13   C14   A    
C8    H16   S    
C27   H5    S    
C10   O4    S    
C41   O2    S    
C21   H3    S    
C39   H13   S    
