data_mof_unit_12404.cif
_audit_creation_date              2012-10-26T19:04:19-0400
_audit_creation_method            fapswitch 2.2
_symmetry_space_group_name_H-M    P1
_symmetry_Int_Tables_number       1
_space_group_crystal_system       triclinic
_cell_length_a                    14.514328
_cell_length_b                    16.424
_cell_length_c                    9.748543
_cell_angle_alpha                 90.215832
_cell_angle_beta                  90.340937
_cell_angle_gamma                 88.997124
_cell_volume                      2323.47736944

loop_
_atom_site_label
_atom_site_type_symbol
_atom_type_description
_atom_site_fract_x
_atom_site_fract_y
_atom_site_fract_z
_atom_type_partial_charge
C1    C     C_R   0.377566 0.884417 0.500069 0.549649
C2    C     C_R   0.722054 0.215376 0.382055 -0.120789
C3    C     C_R   0.188808 0.257716 0.390041 -0.098940
C4    C     C_R   0.222053 0.715377 0.382055 -0.120789
C5    C     C_R   0.671757 0.802708 0.508494 -0.013237
C6    C     C_R   0.692920 0.181133 0.505030 -0.013318
C7    C     C_R   0.171757 0.302708 0.508494 -0.013238
C8    C     C_R   0.192920 0.681133 0.505030 -0.013317
C9    C     C_R   0.667737 0.988680 0.144611 -0.042406
C10   C     C_R   0.167737 0.488680 0.144611 -0.042404
C11   C     C_R   0.750494 0.981603 0.074284 -0.052952
C12   C     C_R   0.384501 0.121045 0.499993 0.566430
C13   C     C_R   0.250494 0.481603 0.074284 -0.052952
C14   C     C_R   0.750458 0.978541 0.932597 -0.148205
C15   C     C_R   0.250458 0.478541 0.932597 -0.148205
C16   C     C_R   0.667688 0.982785 0.860165 -0.108981
C17   C     C_R   0.167688 0.482785 0.860166 -0.108981
C18   C     C_R   0.582067 0.989857 0.926640 0.170229
C19   C     C_R   0.082067 0.489857 0.926640 0.170230
C20   C     C_R   0.582135 0.991525 0.075120 0.152080
C21   C     C_R   0.082135 0.491524 0.075120 0.152080
C22   C     C_R   0.422564 0.010770 0.076114 0.034201
C23   C     C_R   0.877566 0.384417 0.500069 0.549648
C24   C     C_R   0.922564 0.510770 0.076114 0.034201
C25   C     C_R   0.622199 0.116088 0.501134 0.520460
C26   C     C_R   0.612719 0.876838 0.501429 0.533736
C27   C     C_R   0.122199 0.616088 0.501134 0.520460
C28   C     C_R   0.112719 0.376838 0.501429 0.533736
C29   C     C_R   0.421404 0.015797 0.930233 0.152819
C30   C     C_R   0.921404 0.515797 0.930233 0.152820
C31   C     C_R   0.362071 0.236553 0.735149 -0.108234
C32   C     C_R   0.266724 0.838781 0.747132 -0.120843
C33   C     C_R   0.862072 0.736554 0.735147 -0.108233
C34   C     C_R   0.884501 0.621045 0.499993 0.566430
C35   C     C_R   0.766724 0.338782 0.747132 -0.120844
C36   C     C_R   0.330478 0.262519 0.863595 -0.014695
C37   C     C_R   0.242210 0.806253 0.872573 -0.023684
C38   C     C_R   0.830480 0.762521 0.863594 -0.014694
C39   C     C_R   0.742210 0.306253 0.872572 -0.023684
C40   C     C_R   0.736276 0.783220 0.879383 0.049202
C41   C     C_R   0.722154 0.223972 0.878039 0.086246
C42   C     C_R   0.236275 0.283219 0.879384 0.049200
C43   C     C_R   0.222154 0.723972 0.878039 0.086246
C44   C     C_R   0.681794 0.793324 0.761847 -0.119784
C45   C     C_R   0.260145 0.200211 0.386399 -0.098284
C46   C     C_R   0.714769 0.179653 0.757222 -0.103853
C47   C     C_R   0.181793 0.293324 0.761847 -0.119784
C48   C     C_R   0.214769 0.679653 0.757222 -0.103854
C49   C     C_R   0.718248 0.779536 0.630635 -0.012852
C50   C     C_R   0.724823 0.216316 0.628998 -0.001392
C51   C     C_R   0.218247 0.279536 0.630636 -0.012852
C52   C     C_R   0.224823 0.716316 0.628999 -0.001392
C53   C     C_R   0.301516 0.235376 0.621279 0.015256
C54   C     C_R   0.267567 0.792410 0.625954 0.004944
C55   C     C_R   0.801516 0.735377 0.621278 0.015256
C56   C     C_R   0.282497 0.780405 0.379904 -0.116439
C57   C     C_R   0.767567 0.292410 0.625954 0.004944
C58   C     C_R   0.318588 0.189638 0.500554 0.005104
C59   C     C_R   0.306522 0.820194 0.501901 -0.005442
C60   C     C_R   0.818588 0.689638 0.500554 0.005104
C61   C     C_R   0.806522 0.320194 0.501901 -0.005442
C62   C     C_2   0.330747 0.047480 0.876936 0.558991
C63   C     C_2   0.830748 0.547481 0.876936 0.558992
C64   C     C_1   0.394096 0.262493 0.977856 0.284771
C65   C     C_1   0.236525 0.858016 0.992409 0.218853
C66   C     C_1   0.894099 0.762497 0.977853 0.284770
C67   C     C_R   0.760145 0.700211 0.386398 -0.098284
C68   C     C_1   0.736526 0.358016 0.992409 0.218853
C69   C     C_2   0.692039 0.795716 0.014476 0.561868
C70   C     C_2   0.701633 0.184214 0.006427 0.544613
C71   C     C_2   0.192038 0.295717 0.014476 0.561866
C72   C     C_2   0.201632 0.684214 0.006427 0.544613
C73   C     C_R   0.782498 0.280404 0.379904 -0.116439
C74   C     C_R   0.688808 0.757716 0.390041 -0.098940
Cu1   Cu    Cu3+1 0.499990 1.000000 0.640660 0.982691
Cu2   Cu    Cu3+1 0.999990 0.500000 0.640660 0.982691
Cu3   Cu    Cu3+1 0.500010 1.000000 0.359340 0.952513
Cu4   Cu    Cu3+1 0.000010 0.500000 0.359340 0.952512
H1    H     H_    0.268952 0.163694 0.294460 0.182334
H2    H     H_    0.278445 0.901207 0.742854 0.205750
H3    H     H_    0.933361 0.716924 0.725387 0.150012
H4    H     H_    0.778445 0.401208 0.742853 0.205750
H5    H     H_    0.609543 0.808233 0.774033 0.198341
H6    H     H_    0.705031 0.116308 0.765093 0.136093
H7    H     H_    0.109542 0.308233 0.774033 0.198341
H8    H     H_    0.205031 0.616308 0.765092 0.136093
H9    H     H_    0.644184 0.765165 0.302563 0.174342
H10   H     H_    0.698223 0.191054 0.287520 0.191249
H11   H     H_    0.144184 0.265164 0.302564 0.174343
H12   H     H_    0.308922 0.800305 0.282303 0.182270
H13   H     H_    0.198220 0.691055 0.287519 0.191250
H14   H     H_    0.360008 0.019400 0.134633 0.182887
H15   H     H_    0.860008 0.519400 0.134633 0.182887
H16   H     H_    0.673858 0.995464 0.253100 0.177702
H17   H     H_    0.173858 0.495464 0.253100 0.177702
H18   H     H_    0.815171 0.979980 0.130197 0.158147
H19   H     H_    0.315171 0.479980 0.130197 0.158147
H20   H     H_    0.212782 0.109835 0.919610 0.351457
H21   H     H_    0.712782 0.609835 0.919610 0.351457
H22   H     H_    0.572353 0.813584 0.117725 0.339487
H23   H     H_    0.768952 0.663694 0.294460 0.182335
H24   H     H_    0.601081 0.148647 0.134853 0.346393
H25   H     H_    0.072351 0.313586 0.117725 0.339488
H26   H     H_    0.101079 0.648648 0.134853 0.346393
H27   H     H_    0.808923 0.300304 0.282303 0.182270
H28   H     H_    0.815139 0.974682 0.878004 0.126469
H29   H     H_    0.315139 0.474682 0.878004 0.126469
H30   H     H_    0.674488 0.986915 0.751777 0.167313
H31   H     H_    0.174488 0.486915 0.751777 0.167313
H32   H     H_    0.433360 0.216923 0.725389 0.150013
N1    N     N_R   0.501200 1.000000 0.147910 -0.287102
N2    N     N_R   0.001200 0.500000 0.147910 -0.287103
N3    N     N_R   0.501270 1.000000 0.852040 -0.264244
N4    N     N_R   0.001270 0.500000 0.852040 -0.264244
N5    N     N_1   0.444157 0.263229 0.070581 -0.209177
N6    N     N_1   0.231135 0.899550 0.088238 -0.298865
N7    N     N_1   0.944161 0.763235 0.070576 -0.209178
N8    N     N_1   0.731136 0.399550 0.088238 -0.298866
O1    O     O_R   0.409820 0.909830 0.618810 -0.484984
O2    O     O_R   0.590170 0.909830 0.618760 -0.542361
O3    O     O_R   0.090170 0.590170 0.618760 -0.531853
O4    O     O_R   0.090170 0.409830 0.618760 -0.542361
O5    O     O_R   0.590190 0.090180 0.381190 -0.536165
O6    O     O_R   0.590190 0.909820 0.381190 -0.523246
O7    O     O_R   0.090190 0.590180 0.381190 -0.536165
O8    O     O_R   0.090190 0.409820 0.381190 -0.523245
O9    O     O_2   0.301555 0.030455 0.763985 -0.514556
O10   O     O_R   0.274373 0.094872 0.963180 -0.725592
O11   O     O_2   0.801554 0.530455 0.763985 -0.514557
O12   O     O_R   0.409820 0.090170 0.618810 -0.455198
O13   O     O_R   0.774374 0.594873 0.963180 -0.725592
O14   O     O_2   0.738986 0.805978 0.116978 -0.543650
O15   O     O_R   0.595748 0.798068 0.023470 -0.716399
O16   O     O_2   0.764747 0.158157 0.077910 -0.560414
O17   O     O_R   0.609639 0.175430 0.043057 -0.691976
O18   O     O_2   0.238984 0.305978 0.116978 -0.543651
O19   O     O_R   0.095746 0.298070 0.023469 -0.716399
O20   O     O_2   0.264746 0.658157 0.077911 -0.560414
O21   O     O_R   0.109638 0.675429 0.043056 -0.691976
O22   O     O_R   0.909820 0.409830 0.618810 -0.484984
O23   O     O_R   0.909820 0.590170 0.618810 -0.455198
O24   O     O_R   0.409840 0.909830 0.381240 -0.502795
O25   O     O_R   0.409840 0.090170 0.381240 -0.501990
O26   O     O_R   0.909840 0.409830 0.381240 -0.502795
O27   O     O_R   0.909840 0.590170 0.381240 -0.501991
O28   O     O_R   0.590170 0.090170 0.618760 -0.531853

loop_
_geom_bond_atom_site_label_1
_geom_bond_atom_site_label_2
_ccdc_geom_bond_type
C44   C49   A    
C33   C55   A    
C62   O10   S    
C34   O23   A    
C43   C72   S    
C22   C29   A    
C39   C68   S    
C36   C42   A    
C24   N2    A    
C4    C8    A    
C44   H5    S    
C27   O3    A    
C39   C41   A    
C12   O12   A    
Cu2   O3    S    
C47   H7    S    
C72   O20   D    
C19   C21   A    
Cu2   Cu4   S    
C3    C7    A    
C1    C59   S    
C62   O9    D    
C34   O27   A    
C28   O4    A    
C6    C25   S    
C1    O1    A    
C15   H29   S    
C5    C74   A    
Cu3   N1    S    
C11   H18   S    
Cu3   O24   S    
C1    O24   A    
Cu4   O27   S    
C68   N8    T    
H24   O17   S    
C72   O21   S    
C38   C66   S    
C60   C67   A    
C28   O8    A    
C66   N7    T    
C37   C65   S    
Cu2   N4    S    
C41   C46   A    
C2    H10   S    
C25   O28   A    
Cu1   N3    S    
C63   O13   S    
C74   H9    S    
C43   C48   A    
C8    C52   A    
C40   C44   A    
C18   C20   A    
Cu1   O12   S    
C4    H13   S    
C12   C58   S    
Cu2   O23   S    
H20   O10   S    
Cu1   O28   S    
C64   N5    T    
C55   C60   A    
C4    C56   A    
C34   C60   S    
C5    C49   A    
C2    C6    A    
C26   O6    A    
C18   N3    A    
C32   C54   A    
C35   H4    S    
C52   C54   A    
C54   C59   A    
Cu2   O22   S    
C10   C21   A    
C45   C58   A    
C40   C69   S    
C23   O22   A    
Cu1   O1    S    
C71   O19   S    
C71   O18   D    
C17   C19   A    
C47   C51   A    
C19   N4    A    
C61   C73   A    
C49   C55   A    
C25   O5    A    
C3    C45   A    
C31   C53   A    
C7    C28   S    
C51   C53   A    
C37   C43   A    
C35   C39   A    
Cu3   O25   S    
Cu3   O5    S    
Cu4   O26   S    
C32   H2    S    
C20   N1    A    
C9    C11   A    
C9    C20   A    
C73   H27   S    
C56   C59   A    
C23   C61   S    
C3    H11   S    
C45   H1    S    
C67   C74   A    
C32   C37   A    
C6    C50   A    
Cu1   Cu3   S    
C2    C73   A    
C46   H6    S    
C13   C15   A    
C70   O17   S    
C65   N6    T    
C48   H8    S    
C23   O26   A    
Cu4   O8    S    
C21   N2    A    
H22   O15   S    
C67   H23   S    
C30   N4    A    
C15   C17   A    
C29   N3    A    
C29   C62   S    
C69   O15   S    
C50   C57   A    
Cu1   O2    S    
C26   O2    A    
C10   C13   A    
C17   H31   S    
C53   C58   A    
C12   O25   A    
C57   C61   A    
C46   C50   A    
C33   C38   A    
H26   O21   S    
H21   O13   S    
C35   C57   A    
Cu2   O4    S    
H25   O19   S    
C7    C51   A    
Cu3   O6    S    
C36   C64   S    
C24   H15   S    
C38   C40   A    
C27   O7    A    
C10   H17   S    
C69   O14   D    
C56   H12   S    
C42   C71   S    
C11   C14   A    
C31   H32   S    
C14   C16   A    
C42   C47   A    
C63   O11   D    
C13   H19   S    
C24   C30   A    
C16   H30   S    
C5    C26   S    
C48   C52   A    
C16   C18   A    
C22   N1    A    
C14   H28   S    
C70   O16   D    
C8    C27   S    
C22   H14   S    
C31   C36   A    
Cu4   N2    S    
C30   C63   S    
Cu4   O7    S    
C33   H3    S    
C9    H16   S    
C41   C70   S    
