data_mof_unit_13828.cif
_audit_creation_date              2012-12-10T18:23:05-0500
_audit_creation_method            fapswitch 2.2
_symmetry_space_group_name_H-M    P1
_symmetry_Int_Tables_number       1
_space_group_crystal_system       triclinic
_cell_length_a                    14.953809
_cell_length_b                    14.050626
_cell_length_c                    10.485066
_cell_angle_alpha                 89.633424
_cell_angle_beta                  89.997943
_cell_angle_gamma                 89.804791
_cell_volume                      2202.96330061

loop_
_atom_site_label
_atom_site_type_symbol
_atom_type_description
_atom_site_fract_x
_atom_site_fract_y
_atom_site_fract_z
_atom_type_partial_charge
C1    C     C_R   0.327037 0.500254 0.497530 0.896600
C2    C     C_R   0.672957 0.499900 0.502155 0.889156
C3    C     C_R   0.953205 0.510326 0.513506 0.029443
C4    C     C_R   0.046805 0.510017 0.510584 0.029187
C5    C     C_R   0.904893 0.565685 0.422924 0.098812
C6    C     C_R   0.095225 0.454887 0.601353 0.098685
C7    C     C_R   0.956815 0.402527 0.697290 -0.299120
C8    C     C_R   0.043104 0.619892 0.328897 -0.288347
C9    C     C_R   0.049705 0.404577 0.698926 -0.017575
C10   C     C_R   0.950436 0.624261 0.334162 -0.024313
C11   C     C_R   0.529546 0.798174 0.395464 0.009212
C12   C     C_R   0.470428 0.201823 0.604517 -0.004898
C13   C     C_R   0.471440 0.797434 0.605002 -0.002872
C14   C     C_R   0.528532 0.202567 0.394981 -0.002207
C15   C     C_R   0.472947 0.898265 0.610302 0.008131
C16   C     C_R   0.526991 0.101737 0.389661 0.008132
C17   C     C_R   0.531779 0.899113 0.392156 0.006481
C18   C     C_R   0.468141 0.100886 0.607784 0.005342
C19   C     C_R   0.501181 0.949466 0.500607 0.026128
C20   C     C_R   0.498764 0.050533 0.499351 0.027150
C21   C     C_R   0.444495 0.948620 0.720375 -0.057407
C22   C     C_R   0.555354 0.051388 0.279544 -0.057063
C23   C     C_R   0.560847 0.950406 0.282439 -0.084503
C24   C     C_R   0.438955 0.049600 0.717435 -0.087226
C25   C     C_R   0.499982 0.500362 0.257211 0.881800
C26   C     C_R   0.499912 0.499636 0.742783 0.889039
C27   C     C_3   0.501343 0.590940 0.039261 -0.085837
C28   C     C_3   0.498406 0.409049 0.960714 -0.075469
C29   C     C_3   0.574195 0.543243 0.957069 -0.159714
C30   C     C_3   0.425555 0.456743 0.042916 -0.137734
C31   C     C_3   0.426962 0.546453 0.957149 -0.154908
C32   C     C_3   0.572787 0.453533 0.042818 -0.173447
C33   C     C_3   0.499824 0.498880 0.877696 -0.023509
C34   C     C_3   0.499937 0.501109 0.122286 -0.029083
C35   C     C_R   0.812504 0.557630 0.420222 -0.217416
C36   C     C_R   0.187616 0.449482 0.589358 -0.221307
C37   C     C_R   0.768409 0.500691 0.508318 -0.135987
C38   C     C_R   0.231490 0.501770 0.495963 -0.137126
C39   C     C_R   0.814236 0.449804 0.603218 -0.048975
C40   C     C_R   0.185312 0.558567 0.407611 -0.046959
C41   C     C_R   0.907842 0.453612 0.605289 0.086064
C42   C     C_R   0.091958 0.563008 0.414711 0.085897
H1    H     H_    0.367725 0.584088 0.917286 0.166273
H2    H     H_    0.632016 0.415869 0.082653 0.155902
H3    H     H_    0.502559 0.665046 0.075421 0.187283
H4    H     H_    0.497189 0.334945 0.924548 0.187744
H5    H     H_    0.634591 0.578172 0.917052 0.162804
H6    H     H_    0.365146 0.421809 0.082886 0.175287
H7    H     H_    0.773180 0.592800 0.347186 0.199799
H8    H     H_    0.227228 0.404756 0.651934 0.210722
H9    H     H_    0.922902 0.361457 0.770412 0.152827
H10   H     H_    0.077011 0.663380 0.258321 0.155530
H11   H     H_    0.549482 0.756544 0.314274 0.184042
H12   H     H_    0.450506 0.243442 0.685728 0.186183
H13   H     H_    0.445883 0.755357 0.683112 0.188538
H14   H     H_    0.554083 0.244641 0.316863 0.187856
N1    N     N_R   0.500000 0.750030 0.500000 -0.135923
N2    N     N_R   0.500000 0.249970 0.500000 -0.134956
O1    O     O_R   0.367850 0.580280 0.500030 -0.615115
O2    O     O_R   0.632150 0.419720 0.499970 -0.616830
O3    O     O_R   0.632150 0.580280 0.499970 -0.598290
O4    O     O_R   0.367850 0.419720 0.500030 -0.609477
O5    O     O_R   0.499970 0.580260 0.313950 -0.635975
O6    O     O_R   0.500030 0.419740 0.686050 -0.634066
O7    O     O_R   0.500030 0.580260 0.686050 -0.623309
O8    O     O_R   0.499970 0.419740 0.313950 -0.623170
Zn1   Zn    Zn3+2 0.500000 0.607200 0.500000 0.977343
Zn2   Zn    Zn3+2 0.500000 0.392800 0.500000 0.971872
C43   C     C_1   0.764603 0.396438 0.699008 0.164694
N3    N     N_1   0.724912 0.354146 0.775204 -0.205446
C44   C     C_1   0.234102 0.608129 0.307252 0.173283
N4    N     N_1   0.273100 0.647353 0.227462 -0.201508
C45   C     C_2   0.094709 0.353890 0.806084 0.412815
H15   H     H_    0.064151 0.290649 0.846822 0.078233
O9    O     O_2   0.162293 0.385197 0.855599 -0.565355
C46   C     C_2   0.905663 0.692342 0.245642 0.401170
H16   H     H_    0.935521 0.707506 0.153367 0.072243
O10   O     O_2   0.839080 0.736775 0.277373 -0.514741
C47   C     C_2   0.419045 0.897156 0.839618 0.303652
H17   H     H_    0.359812 0.918500 0.892096 0.088153
O11   O     O_2   0.466370 0.834006 0.883570 -0.591689
C48   C     C_2   0.580729 0.102863 0.160274 0.302575
H18   H     H_    0.639924 0.081512 0.107712 0.090631
O12   O     O_2   0.533378 0.166019 0.116396 -0.591658
C49   C     C_2   0.595330 0.899974 0.167916 0.358883
H19   H     H_    0.572680 0.921079 0.073546 0.106348
O13   O     O_2   0.652714 0.838328 0.177527 -0.520880
C50   C     C_2   0.404191 0.100054 0.831773 0.352495
H20   H     H_    0.426679 0.079036 0.926258 0.112487
O14   O     O_2   0.346756 0.161629 0.821853 -0.551539

loop_
_geom_bond_atom_site_label_1
_geom_bond_atom_site_label_2
_ccdc_geom_bond_type
C14   H14   S    
C40   C44   S    
C27   C29   S    
C45   H15   S    
O8    Zn2   S    
C19   C20   A    
C1    O4    A    
C6    C9    A    
C39   C41   A    
C49   H19   S    
C15   C19   A    
C28   H4    S    
C17   C23   A    
C31   H1    S    
C29   H5    S    
C18   C24   A    
C22   C48   S    
C30   H6    S    
C35   C37   A    
C8    C42   A    
C29   C32   S    
C1    O1    A    
C30   C31   S    
C2    O2    A    
C13   N1    A    
C29   C33   S    
C25   O5    A    
C26   O6    A    
O1    Zn1   S    
C10   C46   S    
C11   C17   A    
O7    Zn1   S    
C35   H7    S    
C31   C33   S    
C8    H10   S    
C11   H11   S    
C2    O3    A    
C25   C34   S    
C12   N2    A    
C27   H3    S    
C40   C42   A    
C45   O9    D    
C9    C45   S    
N1    Zn1   S    
C49   O13   D    
C27   C34   S    
C32   H2    S    
C14   N2    A    
O5    Zn1   S    
C30   C34   S    
C27   C31   S    
C28   C32   S    
C46   H16   S    
C4    C6    A    
C47   O11   D    
C32   C34   S    
O3    Zn1   S    
C26   C33   S    
C15   C21   A    
C16   C20   A    
C21   C47   S    
C39   C43   S    
C24   C50   S    
C1    C38   S    
N2    Zn2   S    
C50   O14   D    
C28   C33   S    
C48   O12   D    
C13   C15   A    
C14   C16   A    
C3    C4    A    
O6    Zn2   S    
C36   H8    S    
C7    C9    A    
C3    C41   A    
C16   C22   A    
C26   O7    A    
C25   O8    A    
C46   O10   D    
C3    C5    A    
O4    Zn2   S    
C28   C30   S    
C7    H9    S    
C44   N4    T    
C37   C39   A    
C38   C40   A    
C2    C37   S    
C4    C42   A    
C5    C35   A    
C36   C38   A    
C17   C19   A    
C6    C36   A    
C18   C20   A    
C7    C41   A    
C43   N3    T    
C47   H17   S    
C5    C10   A    
C50   H20   S    
O2    Zn2   S    
C8    C10   A    
C48   H18   S    
C23   C49   S    
C21   C24   A    
C12   C18   A    
C22   C23   A    
C11   N1    A    
C12   H12   S    
C13   H13   S    
