data_mof_unit_68286.cif
_audit_creation_date              2012-12-10T17:16:40-0500
_audit_creation_method            fapswitch 2.2
_symmetry_space_group_name_H-M    P1
_symmetry_Int_Tables_number       1
_space_group_crystal_system       triclinic
_cell_length_a                    10.198953
_cell_length_b                    10.789433
_cell_length_c                    10.560028
_cell_angle_alpha                 90.96041
_cell_angle_beta                  94.171996
_cell_angle_gamma                 81.236781
_cell_volume                      1145.40777664

loop_
_atom_site_label
_atom_site_type_symbol
_atom_type_description
_atom_site_fract_x
_atom_site_fract_y
_atom_site_fract_z
_atom_type_partial_charge
C1    C     C_R   0.445783 0.500161 0.266227 1.010826
C2    C     C_R   0.500400 0.738929 0.502906 0.988422
C3    C     C_R   0.735834 0.062186 0.422393 -0.041037
C4    C     C_R   0.343536 0.910421 0.681759 -0.076443
C5    C     C_R   0.794894 0.997373 0.317579 0.132291
C6    C     C_R   0.227119 0.989164 0.716491 0.124632
C7    C     C_R   0.729122 0.907876 0.251279 0.172834
C8    C     C_R   0.186320 0.105794 0.653804 0.162181
C9    C     C_R   0.622885 0.863828 0.306685 0.139358
C10   C     C_R   0.262675 0.137784 0.555319 0.188348
C11   C     C_R   0.577410 0.921633 0.420532 -0.055726
C12   C     C_R   0.553835 0.483343 0.733548 1.040386
C13   C     C_R   0.394397 0.074471 0.550298 0.018996
C14   C     C_R   0.608284 0.038831 0.452385 0.027536
C15   C     C_R   0.416931 0.949703 0.584334 -0.021504
C16   C     C_R   0.499779 0.870413 0.504926 -0.117823
C17   C     C_R   0.503317 0.123998 0.503681 -0.105610
C18   C     C_3   0.048061 0.209889 0.820619 -0.639947
C19   C     C_3   0.700256 0.908280 0.021575 -0.691660
C20   C     C_2   0.818471 0.127389 0.514560 0.483638
C21   C     C_2   0.396328 0.797837 0.758958 0.443486
C22   C     C_3   0.923723 0.111007 0.190377 -0.767560
C23   C     C_2   0.419080 0.479581 0.131453 -0.400009
C24   C     C_3   0.185139 0.939954 0.934201 -0.821415
C25   C     C_3   0.418253 0.823687 0.194551 -0.808850
C26   C     C_3   0.235893 0.168429 0.323360 -0.784302
C27   C     C_2   0.379253 0.341758 0.869271 0.453469
C28   C     C_2   0.606436 0.299301 0.123195 0.432481
C29   C     C_3   0.880806 0.600226 0.718123 -0.727599
C30   C     C_3   0.064050 0.603948 0.262943 -0.745169
C31   C     C_2   0.578725 0.453772 0.867569 -0.362880
C32   C     C_2   0.503400 0.398208 0.066382 -0.057400
C33   C     C_2   0.489707 0.401503 0.929743 -0.072452
C34   C     C_2   0.065508 0.517659 0.470164 0.164933
C35   C     C_2   0.922047 0.521850 0.503756 0.149627
C36   C     C_R   0.500808 0.258982 0.500984 1.000552
H1    H     H_    0.665238 0.483282 0.918740 0.126700
H2    H     H_    0.609159 0.864167 0.005107 0.260149
H3    H     H_    0.760757 0.887818 0.938367 0.254420
H4    H     H_    0.671210 0.011471 0.029423 0.241309
H5    H     H_    0.901146 0.168026 0.484048 0.019260
H6    H     H_    0.329575 0.741383 0.797365 0.063307
H7    H     H_    0.994387 0.015025 0.356939 0.201568
H8    H     H_    0.025245 0.108119 0.159260 0.223116
H9    H     H_    0.890396 0.204551 0.232280 0.221340
H10   H     H_    0.859333 0.095189 0.104593 0.261973
H11   H     H_    0.103297 0.865600 0.767839 0.212358
H12   H     H_    0.335387 0.538204 0.082155 0.117511
H13   H     H_    0.099756 0.976949 0.989969 0.259905
H14   H     H_    0.266184 0.996852 0.956351 0.248972
H15   H     H_    0.219825 0.841700 0.964202 0.222213
H16   H     H_    0.603722 0.715863 0.178544 0.232320
H17   H     H_    0.373376 0.750207 0.140010 0.224456
H18   H     H_    0.419218 0.904626 0.131303 0.249722
H19   H     H_    0.354998 0.854181 0.273842 0.243608
H20   H     H_    0.098623 0.237123 0.449915 0.187243
H21   H     H_    0.340185 0.177198 0.308325 0.262786
H22   H     H_    0.174406 0.227788 0.250030 0.222162
H23   H     H_    0.883209 0.378534 0.390042 0.103788
H24   H     H_    0.220449 0.069407 0.308508 0.228716
H25   H     H_    0.287060 0.347303 0.915577 0.032658
H26   H     H_    0.693380 0.266650 0.071886 0.048219
H27   H     H_    0.891307 0.708271 0.559117 0.207636
H28   H     H_    0.963380 0.645100 0.763694 0.181205
H29   H     H_    0.898750 0.498471 0.739896 0.232033
H30   H     H_    0.788163 0.643721 0.760323 0.275144
H31   H     H_    0.056662 0.419189 0.300757 0.193348
H32   H     H_    0.094577 0.580675 0.165503 0.219276
H33   H     H_    0.117628 0.680210 0.301697 0.258599
H34   H     H_    0.131503 0.569185 0.642564 0.140005
H35   H     H_    0.955436 0.637140 0.258176 0.204789
H36   H     H_    0.053417 0.274239 0.639617 0.206527
H37   H     H_    0.999407 0.307446 0.837227 0.185316
H38   H     H_    0.142879 0.195365 0.880635 0.227647
H39   H     H_    0.979690 0.146718 0.849928 0.276035
H40   H     H_    0.799900 0.761636 0.132089 0.202914
N1    N     N_2   0.157300 0.551390 0.551120 -0.205512
N2    N     N_2   0.095652 0.493767 0.341960 -0.238340
N3    N     N_2   0.842700 0.448610 0.448880 -0.202518
N4    N     N_2   0.070622 0.190201 0.687207 -0.276442
N5    N     N_2   0.777131 0.857850 0.134797 -0.301810
N6    N     N_2   0.923376 0.013760 0.282562 -0.296560
N7    N     N_2   0.141700 0.944289 0.800337 -0.286375
N8    N     N_2   0.552329 0.773999 0.242354 -0.293637
N9    N     N_2   0.199676 0.211366 0.449116 -0.278592
N10   N     N_2   0.867487 0.622356 0.582521 -0.235843
O1    O     O_R   0.568940 0.489660 0.307530 -0.595023
O2    O     O_2   0.515951 0.768711 0.782388 -0.635315
O3    O     O_2   0.393623 0.279123 0.772888 -0.586671
O4    O     O_2   0.590726 0.247794 0.221570 -0.609688
O5    O     O_R   0.431060 0.510340 0.692470 -0.613409
O6    O     O_R   0.348880 0.522640 0.340350 -0.582086
O7    O     O_R   0.651120 0.477360 0.659650 -0.592418
O8    O     O_R   0.610030 0.300280 0.483580 -0.590411
O9    O     O_R   0.389970 0.699720 0.516420 -0.652903
O10   O     O_R   0.389970 0.333270 0.516400 -0.562203
O11   O     O_R   0.610030 0.666730 0.483600 -0.585215
O12   O     O_2   0.794798 0.135287 0.626414 -0.562583
Zn1   Zn    Zn3+2 0.646940 0.477980 0.478080 0.993727
Zn2   Zn    Zn3+2 0.353060 0.522020 0.521920 0.972963

loop_
_geom_bond_atom_site_label_1
_geom_bond_atom_site_label_2
_ccdc_geom_bond_type
C1    O1    A    
C10   N9    S    
C18   H39   S    
C5    N6    S    
C12   O5    A    
C30   H35   S    
C27   C33   S    
C22   N6    S    
N3    Zn1   S    
C2    O9    A    
C24   N7    S    
C25   H17   S    
C34   N1    D    
C11   C14   A    
C15   C16   A    
N1    Zn2   S    
C34   C35   S    
H16   N8    S    
C27   H25   S    
C22   H8    S    
C2    O11   A    
C25   N8    S    
C31   C33   D    
C23   H12   S    
C17   C36   S    
H11   N7    S    
O5    Zn2   S    
C2    C16   S    
O7    Zn1   S    
C24   H15   S    
C29   H28   S    
C18   H38   S    
H34   N1    S    
C14   C17   A    
H31   N2    S    
O11   Zn1   S    
C20   H5    S    
O1    Zn1   S    
C24   H14   S    
C28   C32   S    
C25   H18   S    
C4    C6    A    
H23   N3    S    
C5    C7    A    
O9    Zn2   S    
C6    C8    A    
C31   H1    S    
C19   H2    S    
C26   H22   S    
C11   C16   A    
C36   O10   A    
C29   H30   S    
C3    C20   S    
C9    C11   A    
C29   N10   S    
C3    C14   A    
C19   H3    S    
C29   H29   S    
C18   N4    S    
C7    N5    S    
C1    C23   S    
C18   H37   S    
C13   C15   A    
H27   N10   S    
C34   N2    S    
C12   O7    A    
C30   H33   S    
O6    Zn2   S    
C24   H13   S    
C7    C9    A    
C6    N7    S    
C22   H10   S    
C8    C10   A    
C25   H19   S    
C3    C5    A    
C10   C13   A    
H40   N5    S    
C1    O6    A    
C13   C17   A    
C23   C32   D    
C4    C15   A    
C12   C31   S    
C32   C33   S    
C4    C21   S    
H20   N9    S    
O8    Zn1   S    
C26   N9    S    
O10   Zn2   S    
C35   N3    D    
C35   N10   S    
C27   O3    D    
C26   H21   S    
C21   O2    D    
C19   H4    S    
C9    N8    S    
C21   H6    S    
C30   N2    S    
C36   O8    A    
C22   H9    S    
C20   O12   D    
H36   N4    S    
C8    N4    S    
H7    N6    S    
C28   O4    D    
C19   N5    S    
C26   H24   S    
C30   H32   S    
C28   H26   S    
