data_mof_unit_56598.cif
_audit_creation_date              2012-12-11T16:19:09-0500
_audit_creation_method            fapswitch 2.2
_symmetry_space_group_name_H-M    P1
_symmetry_Int_Tables_number       1
_space_group_crystal_system       triclinic
_cell_length_a                    6.867544
_cell_length_b                    31.657398
_cell_length_c                    34.914648
_cell_angle_alpha                 89.999935
_cell_angle_beta                  89.992915
_cell_angle_gamma                 89.996962
_cell_volume                      7590.74375388

loop_
_atom_site_label
_atom_site_type_symbol
_atom_type_description
_atom_site_fract_x
_atom_site_fract_y
_atom_site_fract_z
_atom_type_partial_charge
O1    O     O_R   0.417270 0.211480 0.210950 -0.546692
O2    O     O_R   0.582730 0.788520 0.789050 -0.542570
O3    O     O_R   0.582730 0.788520 0.710950 -0.546597
O4    O     O_R   0.417270 0.211480 0.289050 -0.542614
O5    O     O_R   0.917270 0.288520 0.289050 -0.546634
O6    O     O_R   0.082730 0.711480 0.710950 -0.542648
O7    O     O_R   0.082730 0.711480 0.789050 -0.546721
O8    O     O_R   0.917270 0.288520 0.210950 -0.542601
O9    O     O_R   0.746940 0.206370 0.288750 -0.546475
O10   O     O_R   0.253060 0.793630 0.711250 -0.546897
O11   O     O_R   0.253060 0.793630 0.788750 -0.546549
O12   O     O_R   0.746940 0.206370 0.211250 -0.546957
O13   O     O_R   0.246940 0.293630 0.211250 -0.546471
O14   O     O_R   0.753060 0.706370 0.788750 -0.546983
O15   O     O_R   0.753060 0.706370 0.711250 -0.546401
O16   O     O_R   0.246940 0.293630 0.288750 -0.546915
C1    C     C_R   0.578047 0.195180 0.301585 0.691779
C2    C     C_R   0.422786 0.805104 0.698559 0.689025
C3    C     C_R   0.421931 0.804807 0.801597 0.691333
C4    C     C_R   0.577233 0.194899 0.198556 0.688720
C5    C     C_R   0.078056 0.304814 0.198411 0.691801
C6    C     C_R   0.922771 0.694904 0.801447 0.688392
C7    C     C_R   0.921967 0.695174 0.698422 0.692314
C8    C     C_R   0.077209 0.305099 0.301443 0.688629
O17   O     O_3   0.583760 0.276950 0.250000 -0.375496
O18   O     O_3   0.416240 0.723050 0.750000 -0.375591
O19   O     O_3   0.083760 0.223050 0.250000 -0.375599
O20   O     O_3   0.916240 0.776950 0.750000 -0.375521
V1    V     V_3+5 0.858600 0.245000 0.250000 1.430322
V2    V     V_3+5 0.141400 0.755000 0.750000 1.430236
V3    V     V_3+5 0.358600 0.255000 0.250000 1.430334
V4    V     V_3+5 0.641400 0.745000 0.750000 1.430432
C9    C     C_R   0.051840 0.587064 0.541500 0.633514
C10   C     C_R   0.095511 0.414012 0.460432 0.629365
C11   C     C_R   0.944583 0.413058 0.041649 0.636124
C12   C     C_R   0.907516 0.586165 0.960572 0.628147
C13   C     C_R   0.558448 0.913136 0.958246 0.638373
C14   C     C_R   0.590477 0.086259 0.039358 0.627485
C15   C     C_R   0.444442 0.086931 0.458333 0.636061
C16   C     C_R   0.407225 0.913846 0.539451 0.628168
N1    N     N_R   0.011526 0.571804 0.577174 -0.519495
N2    N     N_R   0.076386 0.428999 0.423980 -0.517631
N3    N     N_R   0.988517 0.428204 0.077192 -0.520093
N4    N     N_R   0.923581 0.571102 0.924083 -0.517339
N5    N     N_R   0.511743 0.928192 0.922810 -0.520682
N6    N     N_R   0.576639 0.071142 0.075867 -0.517137
N7    N     N_R   0.488215 0.071769 0.422785 -0.520102
N8    N     N_R   0.423392 0.928919 0.575933 -0.517334
C17   C     C_R   0.004891 0.529448 0.584172 0.615338
C18   C     C_R   0.066842 0.471308 0.416820 0.623023
C19   C     C_R   0.998740 0.470529 0.084159 0.613373
C20   C     C_R   0.929977 0.528754 0.916954 0.622715
C21   C     C_R   0.498855 0.970489 0.915878 0.611244
C22   C     C_R   0.572610 0.028772 0.082966 0.622461
C23   C     C_R   0.498220 0.029439 0.415823 0.613464
C24   C     C_R   0.429825 0.971268 0.583053 0.622775
C25   C     C_R   0.044947 0.499804 0.554573 -0.104027
C26   C     C_R   0.082294 0.501142 0.447139 -0.106986
C27   C     C_R   0.959161 0.500306 0.054643 -0.104138
C28   C     C_R   0.913863 0.499016 0.947335 -0.107034
C29   C     C_R   0.538188 0.000355 0.945334 -0.104195
C30   C     C_R   0.589211 0.999108 0.052538 -0.106988
C31   C     C_R   0.458610 0.999678 0.445352 -0.104103
C32   C     C_R   0.413695 0.001000 0.552669 -0.107011
C33   C     C_R   0.062973 0.515008 0.516465 0.026279
C34   C     C_R   0.076234 0.485998 0.485402 0.024717
C35   C     C_R   0.937025 0.485136 0.016606 0.025648
C36   C     C_R   0.923784 0.514163 0.985559 0.024845
C37   C     C_R   0.563316 0.985216 0.983311 0.025087
C38   C     C_R   0.576524 0.014253 0.014348 0.024896
C39   C     C_R   0.436673 0.014860 0.483390 0.025690
C40   C     C_R   0.423461 0.985842 0.514446 0.024841
C41   C     C_R   0.066260 0.559280 0.509516 -0.079600
C42   C     C_R   0.081988 0.441768 0.492449 -0.085624
C43   C     C_R   0.929590 0.440877 0.009701 -0.079002
C44   C     C_R   0.921914 0.558409 0.992572 -0.086003
C45   C     C_R   0.573782 0.940975 0.990172 -0.078668
C46   C     C_R   0.575588 0.058502 0.007368 -0.086212
C47   C     C_R   0.429418 0.059122 0.490288 -0.079035
C48   C     C_R   0.421469 0.941594 0.507441 -0.085940
C49   C     C_R   0.060764 0.455695 0.561792 -0.093210
C50   C     C_R   0.096714 0.545334 0.440300 -0.094837
C51   C     C_R   0.947845 0.544489 0.061849 -0.093177
C52   C     C_R   0.894968 0.454895 0.940572 -0.094675
C53   C     C_R   0.546356 0.044577 0.938145 -0.093134
C54   C     C_R   0.611307 0.955047 0.059234 -0.094443
C55   C     C_R   0.447071 0.955497 0.438155 -0.093263
C56   C     C_R   0.394935 0.045126 0.559425 -0.094548
C57   C     C_R   0.078277 0.426856 0.530941 -0.092169
C58   C     C_R   0.088054 0.574222 0.471258 -0.090142
C59   C     C_R   0.930241 0.573356 0.031021 -0.092755
C60   C     C_R   0.903294 0.426003 0.971529 -0.089058
C61   C     C_R   0.564062 0.073463 0.968958 -0.093115
C62   C     C_R   0.603261 0.926157 0.028272 -0.088170
C63   C     C_R   0.429526 0.926639 0.468992 -0.092738
C64   C     C_R   0.403273 0.074009 0.528460 -0.088988
O21   O     O_2   0.076179 0.629075 0.537444 -0.518008
O22   O     O_2   0.126379 0.372292 0.465195 -0.519169
O23   O     O_2   0.917484 0.371118 0.037677 -0.517391
O24   O     O_2   0.878674 0.627946 0.965388 -0.519149
O25   O     O_2   0.587741 0.871257 0.962142 -0.516683
O26   O     O_2   0.617661 0.128088 0.034509 -0.519139
O27   O     O_2   0.417544 0.128878 0.462302 -0.517372
O28   O     O_2   0.378447 0.872062 0.534650 -0.519216
O29   O     O_2   0.953307 0.516425 0.619518 -0.512397
O30   O     O_2   0.035660 0.484076 0.380487 -0.508966
O31   O     O_2   0.053288 0.483362 0.119386 -0.513047
O32   O     O_2   0.958705 0.515823 0.880589 -0.508717
O33   O     O_2   0.442015 0.983185 0.880751 -0.513539
O34   O     O_2   0.545732 0.015722 0.119351 -0.508673
O35   O     O_2   0.552603 0.016586 0.380589 -0.512963
O36   O     O_2   0.458616 0.984205 0.619413 -0.508842
C65   C     C_R   0.218225 0.397777 0.366130 -0.093338
C66   C     C_R   0.117245 0.604987 0.636910 -0.107908
C67   C     C_R   0.781548 0.602305 0.866221 -0.092882
C68   C     C_R   0.882812 0.394965 0.136872 -0.108812
C69   C     C_R   0.718753 0.102359 0.133734 -0.092876
C70   C     C_R   0.617360 0.894899 0.863173 -0.109394
C71   C     C_R   0.281447 0.897706 0.633804 -0.093072
C72   C     C_R   0.382637 0.105024 0.363106 -0.108763
H1    H     H_    0.337059 0.419989 0.369556 0.181880
H2    H     H_    0.243914 0.584616 0.635510 0.167192
H3    H     H_    0.662534 0.580148 0.869697 0.182675
H4    H     H_    0.756266 0.415374 0.135494 0.165773
H5    H     H_    0.837982 0.080262 0.130218 0.183100
H6    H     H_    0.743873 0.915316 0.864541 0.164439
H7    H     H_    0.162371 0.919849 0.630330 0.182559
H8    H     H_    0.256032 0.084635 0.364486 0.165722
C73   C     C_R   0.216712 0.369856 0.334929 -0.079134
C74   C     C_R   0.093789 0.632802 0.667813 -0.073947
C75   C     C_R   0.783119 0.630190 0.834990 -0.079330
C76   C     C_R   0.906258 0.367163 0.167780 -0.073113
C77   C     C_R   0.717062 0.130212 0.164988 -0.079258
C78   C     C_R   0.593811 0.867122 0.832252 -0.072213
C79   C     C_R   0.283089 0.869824 0.665036 -0.079145
C80   C     C_R   0.406174 0.132828 0.332200 -0.072994
C81   C     C_R   0.065830 0.339146 0.331659 -0.177854
C82   C     C_R   0.932882 0.661147 0.668399 -0.168024
C83   C     C_R   0.934103 0.660873 0.831676 -0.178103
C84   C     C_R   0.067179 0.338824 0.168372 -0.167686
C85   C     C_R   0.565917 0.160859 0.168332 -0.178420
C86   C     C_R   0.432802 0.838811 0.831644 -0.167550
C87   C     C_R   0.434141 0.839153 0.668343 -0.178265
C88   C     C_R   0.567141 0.161152 0.331611 -0.167775
C89   C     C_R   0.907305 0.340877 0.358333 -0.065464
C90   C     C_R   0.787515 0.657380 0.639219 -0.078274
C91   C     C_R   0.092712 0.659126 0.858319 -0.065116
C92   C     C_R   0.212486 0.342558 0.139168 -0.079079
C93   C     C_R   0.407156 0.159058 0.141726 -0.065193
C94   C     C_R   0.287515 0.842552 0.860857 -0.079787
C95   C     C_R   0.592821 0.840933 0.641708 -0.065458
C96   C     C_R   0.712471 0.157378 0.360802 -0.079079
C97   C     C_R   0.902507 0.372391 0.387476 0.010456
C98   C     C_R   0.804196 0.625729 0.610312 0.002138
C99   C     C_R   0.097578 0.627596 0.887442 0.011996
C100  C     C_R   0.195733 0.374168 0.110219 0.000197
C101  C     C_R   0.402305 0.127508 0.112623 0.013040
C102  C     C_R   0.304448 0.874122 0.889842 -0.001268
C103  C     C_R   0.597599 0.872464 0.612583 0.011844
C104  C     C_R   0.695639 0.125755 0.389740 0.000371
C105  C     C_R   0.065042 0.399360 0.392362 0.328772
C106  C     C_R   0.976614 0.601211 0.608260 0.332681
C107  C     C_R   0.934908 0.600684 0.892410 0.328247
C108  C     C_R   0.023334 0.398704 0.108195 0.332516
C109  C     C_R   0.565228 0.100680 0.107581 0.327933
C110  C     C_R   0.476942 0.898626 0.891867 0.332140
C111  C     C_R   0.434813 0.899345 0.607610 0.328352
C112  C     C_R   0.523143 0.101257 0.391775 0.332486
C113  C     C_2   0.067478 0.439344 0.601765 0.601716
H9    H     H_    0.167543 0.453193 0.622288 0.088029
O37   O     O_2   0.958714 0.411062 0.612166 -0.477507
C114  C     C_2   0.130091 0.561730 0.400854 0.599392
H10   H     H_    0.244462 0.548215 0.383239 0.087478
O38   O     O_2   0.027634 0.589643 0.387559 -0.477761
C115  C     C_2   0.946371 0.560941 0.101804 0.601716
H11   H     H_    0.846396 0.547697 0.122673 0.088303
O39   O     O_2   0.059307 0.588626 0.111792 -0.478040
C116  C     C_2   0.856834 0.438643 0.901242 0.599090
H12   H     H_    0.742982 0.452799 0.883919 0.087259
O40   O     O_2   0.954835 0.410122 0.887705 -0.477358
C117  C     C_2   0.544201 0.061082 0.898212 0.601641
H13   H     H_    0.643927 0.048224 0.877098 0.088551
O41   O     O_2   0.428585 0.088375 0.888523 -0.478403
C118  C     C_2   0.652741 0.938902 0.098473 0.598673
H14   H     H_    0.766200 0.953492 0.115598 0.087084
O42   O     O_2   0.557867 0.909980 0.112166 -0.477226
C119  C     C_2   0.445273 0.939040 0.398202 0.601829
H15   H     H_    0.345282 0.952317 0.377356 0.088342
O43   O     O_2   0.557963 0.911314 0.388188 -0.477937
C120  C     C_2   0.356949 0.061394 0.598757 0.598781
H16   H     H_    0.243085 0.047264 0.616098 0.087219
O44   O     O_2   0.455083 0.089899 0.612275 -0.477546
C121  C     C_2   0.089344 0.380970 0.539655 0.610599
H17   H     H_    0.979043 0.359622 0.528669 0.101170
O45   O     O_2   0.222713 0.366858 0.558922 -0.478540
C122  C     C_2   0.100210 0.620149 0.462824 0.610100
H18   H     H_    0.979869 0.640837 0.470173 0.105093
O46   O     O_2   0.245470 0.635019 0.447822 -0.480431
C123  C     C_2   0.924644 0.619307 0.039680 0.610684
H19   H     H_    0.035380 0.640137 0.028058 0.100165
O47   O     O_2   0.795238 0.634063 0.059592 -0.477979
C124  C     C_2   0.885489 0.380147 0.963185 0.610930
H20   H     H_    0.004517 0.358887 0.969991 0.106198
O48   O     O_2   0.737061 0.365986 0.948840 -0.480551
C125  C     C_2   0.565999 0.119442 0.960347 0.610805
H21   H     H_    0.454981 0.139923 0.972370 0.099495
O49   O     O_2   0.692742 0.134617 0.940037 -0.477553
C126  C     C_2   0.625009 0.880366 0.036536 0.611586
H22   H     H_    0.507020 0.858708 0.030077 0.106933
O50   O     O_2   0.775516 0.866708 0.050440 -0.480632
C127  C     C_2   0.423633 0.880689 0.460338 0.610713
H23   H     H_    0.534410 0.859835 0.471907 0.100185
O51   O     O_2   0.293944 0.865963 0.440488 -0.477949
C128  C     C_2   0.385634 0.119869 0.536799 0.610672
H24   H     H_    0.504725 0.141107 0.529977 0.106159
O52   O     O_2   0.237276 0.134060 0.551158 -0.480706
C129  C     C_2   0.368332 0.375635 0.304924 0.406395
H25   H     H_    0.343569 0.364998 0.275821 0.079091
O53   O     O_2   0.521594 0.393543 0.312109 -0.527704
C130  C     C_2   0.234240 0.629749 0.700181 0.412153
H26   H     H_    0.196552 0.641592 0.728354 0.066595
O54   O     O_2   0.392893 0.612909 0.696024 -0.533300
C131  C     C_2   0.631464 0.624394 0.805001 0.406739
H27   H     H_    0.656186 0.635017 0.775892 0.079054
O55   O     O_2   0.478232 0.606480 0.812205 -0.527637
C132  C     C_2   0.765724 0.370212 0.200140 0.411842
H28   H     H_    0.803478 0.358433 0.228331 0.066669
O56   O     O_2   0.606903 0.386966 0.195952 -0.533641
C133  C     C_2   0.868743 0.124413 0.194973 0.406410
H29   H     H_    0.844047 0.135038 0.224082 0.079196
O57   O     O_2   0.021943 0.106482 0.187770 -0.527817
C134  C     C_2   0.734356 0.870169 0.799894 0.411513
H30   H     H_    0.696500 0.858446 0.771689 0.066702
O58   O     O_2   0.893309 0.886854 0.804102 -0.533991
C135  C     C_2   0.131450 0.875615 0.695037 0.406177
H31   H     H_    0.156182 0.864978 0.724141 0.079184
O59   O     O_2   0.978230 0.893543 0.687852 -0.527817
C136  C     C_2   0.265703 0.129790 0.299835 0.411808
H32   H     H_    0.303501 0.141580 0.271649 0.066633
O60   O     O_2   0.106895 0.113029 0.304012 -0.533674
C137  C     C_2   0.744289 0.310215 0.355903 0.398471
H33   H     H_    0.652960 0.308933 0.330611 0.079148
O61   O     O_2   0.710052 0.286353 0.382510 -0.487592
C138  C     C_2   0.619449 0.686915 0.638184 0.415565
H34   H     H_    0.522399 0.689852 0.662490 0.080564
O62   O     O_2   0.587286 0.708074 0.609653 -0.477782
C139  C     C_2   0.255788 0.689771 0.855875 0.398094
H35   H     H_    0.347100 0.691045 0.830576 0.079201
O63   O     O_2   0.290067 0.713636 0.882476 -0.487876
C140  C     C_2   0.380251 0.312935 0.138062 0.416468
H36   H     H_    0.476939 0.309773 0.162394 0.080327
O64   O     O_2   0.412743 0.291992 0.109411 -0.477131
C141  C     C_2   0.243872 0.189655 0.144193 0.399190
H37   H     H_    0.152849 0.190955 0.169530 0.079111
O65   O     O_2   0.209082 0.213450 0.117565 -0.487808
C142  C     C_2   0.119840 0.812898 0.862015 0.417817
H38   H     H_    0.023700 0.809496 0.837629 0.080145
O66   O     O_2   0.086616 0.792234 0.890801 -0.476599
C143  C     C_2   0.756092 0.810333 0.644173 0.399631
H39   H     H_    0.847141 0.809047 0.669502 0.079069
O67   O     O_2   0.790847 0.786522 0.617554 -0.487651
C144  C     C_2   0.880357 0.186966 0.361905 0.416742
H40   H     H_    0.976905 0.190159 0.337552 0.080381
O68   O     O_2   0.913134 0.207843 0.390581 -0.477144
C145  C     C_2   0.723357 0.378385 0.411333 0.442438
H41   H     H_    0.613242 0.354010 0.413222 0.110483
O69   O     O_2   0.691640 0.411484 0.428156 -0.525312
C146  C     C_2   0.636544 0.616969 0.583966 0.446355
H42   H     H_    0.508928 0.637046 0.583811 0.106109
O70   O     O_2   0.633784 0.586135 0.562991 -0.523999
C147  C     C_2   0.276950 0.621503 0.911188 0.440146
H43   H     H_    0.386349 0.646002 0.913351 0.110621
O71   O     O_2   0.309615 0.588191 0.927590 -0.525946
C148  C     C_2   0.363473 0.382847 0.083846 0.453437
H44   H     H_    0.493795 0.363619 0.084693 0.103194
O72   O     O_2   0.363123 0.412644 0.061671 -0.523134
C149  C     C_2   0.222677 0.121281 0.088988 0.438736
H45   H     H_    0.113321 0.145781 0.086731 0.110464
O73   O     O_2   0.189772 0.087852 0.072802 -0.526439
C150  C     C_2   0.136607 0.882791 0.916204 0.459771
H46   H     H_    0.003813 0.864449 0.914430 0.100202
O74   O     O_2   0.139833 0.911554 0.939461 -0.522365
C151  C     C_2   0.776993 0.878598 0.588841 0.440075
H47   H     H_    0.886618 0.854141 0.586708 0.110604
O75   O     O_2   0.809421 0.911902 0.572406 -0.525920
C152  C     C_2   0.863402 0.117017 0.416084 0.453291
H48   H     H_    0.993830 0.136208 0.415226 0.103126
O76   O     O_2   0.862953 0.087209 0.438246 -0.523206

loop_
_geom_bond_atom_site_label_1
_geom_bond_atom_site_label_2
_ccdc_geom_bond_type
O17   V3    S    
C13   O25   S    
C16   O28   S    
C56   C64   A    
O18   V4    S    
C120  H16   S    
N6    C109  S    
C80   C136  S    
O12   V1    S    
C151  O75   D    
C135  O59   D    
C113  H9    S    
O7    C6    A    
C7    C82   S    
C37   C45   A    
C131  H27   S    
C10   N2    A    
N8    C111  S    
C61   C125  S    
C11   N3    A    
C84   C92   A    
C130  O54   D    
C116  H12   S    
N2    C105  S    
C95   C143  S    
O15   V4    S    
C115  O39   D    
O14   V4    S    
C67   C75   A    
C117  H13   S    
C138  H34   S    
O16   V3    S    
C56   C120  S    
C137  O61   D    
C30   C54   A    
C83   C91   A    
C124  O48   D    
C1    C88   S    
C28   C52   A    
O8    V1    S    
C42   C57   A    
C81   C89   A    
C2    C87   S    
C150  O74   D    
C41   C58   A    
C148  H44   S    
C98   C146  S    
C75   C131  S    
C26   C50   A    
C152  H48   S    
C118  O42   D    
C119  O43   D    
C128  O52   D    
C96   C104  A    
C66   C106  A    
O19   V1    S    
C46   C61   A    
C96   C144  S    
C147  H43   S    
C34   C42   A    
C93   C101  A    
C45   C62   A    
O1    V3    S    
C145  H41   S    
C17   C25   A    
C118  H14   S    
C22   O34   S    
O3    C2    A    
C16   N8    A    
C137  H33   S    
O13   V3    S    
C73   C129  S    
C20   C28   A    
C27   C35   A    
C64   C128  S    
C21   C29   A    
C26   C34   A    
C94   C102  A    
C76   C84   A    
C115  H11   S    
O11   V2    S    
C69   C109  A    
C126  H22   S    
C121  O45   D    
C142  O66   D    
C103  C151  S    
C135  H31   S    
C24   C32   A    
C132  H28   S    
N4    C107  S    
C78   C134  S    
C54   C62   A    
N5    C110  S    
C100  C148  S    
C70   C78   A    
O9    V1    S    
C14   O26   S    
C49   C57   A    
N3    C108  S    
N4    C20   A    
C125  O49   D    
N7    C23   A    
C69   C77   A    
C123  H19   S    
O16   C8    A    
O7    V2    S    
C149  H45   S    
C54   C118  S    
C66   C74   A    
C30   C38   A    
O12   C4    A    
O3    V4    S    
C53   C61   A    
C103  C111  A    
C11   O23   S    
N1    C17   A    
C130  H26   S    
C73   C81   A    
C114  O38   D    
C68   C76   A    
C19   C27   A    
O5    V1    S    
C139  O63   D    
O17   V1    S    
C8    C81   S    
C136  O60   D    
C101  C149  S    
C67   H3    S    
C124  H20   S    
O19   V3    S    
C35   C36   A    
C18   C26   A    
O20   V4    S    
C62   C126  S    
C150  H46   S    
C122  O46   D    
C117  O41   D    
C101  C109  A    
C141  O65   D    
C55   C119  S    
C128  H24   S    
C144  O68   D    
C90   C138  S    
C14   C46   A    
C99   C107  A    
C140  H36   S    
C125  H21   S    
C65   C105  A    
C6    C83   S    
C70   C110  A    
C71   C79   A    
C39   C47   A    
C40   C48   A    
C23   C31   A    
C72   C80   A    
C95   C103  A    
C74   C130  S    
C90   C98   A    
C133  H29   S    
C76   C132  S    
C78   C86   A    
O10   V2    S    
C99   C147  S    
C127  H23   S    
C91   C139  S    
C133  O57   D    
N2    C18   A    
C127  O51   D    
O11   C3    A    
C142  H38   S    
N6    C22   A    
C16   C48   A    
O8    C5    A    
C89   C137  S    
C12   O24   S    
C36   C44   A    
O9    C1    A    
C48   C63   A    
O2    V4    S    
C145  O69   D    
C28   C36   A    
C65   C73   A    
C43   C60   A    
C10   C42   A    
C50   C114  S    
C57   C121  S    
C9    C41   A    
O6    V2    S    
C31   C39   A    
O18   V2    S    
C3    C86   S    
C132  O56   D    
C149  O73   D    
C33   C41   A    
O14   C6    A    
C52   C116  S    
C79   C135  S    
C12   N4    A    
C23   O35   S    
C35   C43   A    
C33   C34   A    
O4    C1    A    
C13   N5    A    
C143  H39   S    
C74   C82   A    
C71   C111  A    
C102  C150  S    
C18   O30   S    
C60   C124  S    
C114  H10   S    
C72   C112  A    
C15   N7    A    
C113  O37   D    
C38   C46   A    
C29   C37   A    
C89   C97   A    
N8    C24   A    
C136  H32   S    
O1    C4    A    
C120  O44   D    
C87   C95   A    
C68   H4    S    
C31   C55   A    
O2    C3    A    
C146  O70   D    
C77   C85   A    
C4    C85   S    
C68   C108  A    
C5    C84   S    
C17   O29   S    
C94   C142  S    
C11   C43   A    
C104  C112  A    
C27   C51   A    
C122  H18   S    
C143  O67   D    
C134  O58   D    
C98   C106  A    
C55   C63   A    
C116  O40   D    
C139  H35   S    
C72   H8    S    
C15   O27   S    
C144  H40   S    
C53   C117  S    
C47   C64   A    
C91   C99   A    
C129  O53   D    
C65   H1    S    
C52   C60   A    
C85   C93   A    
C92   C140  S    
C49   C113  S    
C50   C58   A    
C82   C90   A    
C63   C127  S    
O15   C7    A    
C86   C94   A    
C147  O71   D    
C29   C53   A    
C129  H25   S    
C9    N1    A    
C59   C123  S    
O20   V2    S    
C80   C88   A    
C126  O50   D    
C140  O64   D    
O13   C5    A    
C152  O76   D    
N7    C112  S    
C131  O55   D    
N3    C19   A    
C141  H37   S    
O5    C8    A    
C13   C45   A    
O10   C2    A    
O6    C7    A    
C51   C59   A    
C79   C87   A    
C134  H30   S    
C10   O22   S    
C138  O62   D    
C51   C115  S    
C104  C152  S    
C32   C40   A    
C67   C107  A    
C37   C38   A    
C70   H6    S    
C25   C49   A    
C77   C133  S    
C14   N6    A    
O4    V3    S    
C75   C83   A    
C44   C59   A    
N5    C21   A    
C66   H2    S    
C102  C110  A    
C119  H15   S    
C58   C122  S    
C146  H42   S    
C100  C108  A    
C19   O31   S    
C121  H17   S    
C97   C105  A    
C151  H47   S    
C123  O47   D    
C97   C145  S    
C22   C30   A    
C20   O32   S    
C21   O33   S    
C92   C100  A    
C9    O21   S    
C39   C40   A    
C32   C56   A    
N1    C106  S    
C69   H5    S    
C93   C141  S    
C12   C44   A    
C24   O36   S    
C88   C96   A    
C15   C47   A    
C25   C33   A    
C148  O72   D    
C71   H7    S    
