data_mof_unit_16716.cif
_audit_creation_date              2012-12-11T16:52:30-0500
_audit_creation_method            fapswitch 2.2
_symmetry_space_group_name_H-M    P1
_symmetry_Int_Tables_number       1
_space_group_crystal_system       orthorhombic
_cell_length_a                    7.189929
_cell_length_b                    26.059418
_cell_length_c                    28.911877
_cell_angle_alpha                 90.0
_cell_angle_beta                  90.0
_cell_angle_gamma                 90.0
_cell_volume                      5417.08439276

loop_
_atom_site_label
_atom_site_type_symbol
_atom_type_description
_atom_site_fract_x
_atom_site_fract_y
_atom_site_fract_z
_atom_type_partial_charge
O1    O     O_R   0.601030 0.796770 0.202460 -0.539053
O2    O     O_R   0.398970 0.203230 0.797540 -0.539053
O3    O     O_R   0.398970 0.203230 0.702460 -0.539053
O4    O     O_R   0.601030 0.796770 0.297540 -0.539053
O5    O     O_R   0.101030 0.703230 0.297540 -0.539053
O6    O     O_R   0.898970 0.296770 0.702460 -0.539053
O7    O     O_R   0.898970 0.296770 0.797540 -0.539053
O8    O     O_R   0.101030 0.703230 0.202460 -0.539053
O9    O     O_R   0.271290 0.802910 0.297210 -0.529349
O10   O     O_R   0.728710 0.197090 0.702790 -0.529349
O11   O     O_R   0.728710 0.197090 0.797210 -0.529349
O12   O     O_R   0.271290 0.802910 0.202790 -0.529349
O13   O     O_R   0.771290 0.697090 0.202790 -0.529349
O14   O     O_R   0.228710 0.302910 0.797210 -0.529349
O15   O     O_R   0.228710 0.302910 0.702790 -0.529349
O16   O     O_R   0.771290 0.697090 0.297210 -0.529349
C1    C     C_R   0.440636 0.816122 0.312021 0.668547
C2    C     C_R   0.559364 0.183878 0.687979 0.668547
C3    C     C_R   0.559364 0.183878 0.812021 0.668547
C4    C     C_R   0.440636 0.816122 0.187978 0.668547
C5    C     C_R   0.940636 0.683878 0.187978 0.668547
C6    C     C_R   0.059364 0.316122 0.812021 0.668547
C7    C     C_R   0.059364 0.316122 0.687979 0.668547
C8    C     C_R   0.940636 0.683878 0.312021 0.668547
O17   O     O_3   0.434520 0.717290 0.250000 -0.352058
O18   O     O_3   0.565480 0.282710 0.750000 -0.352058
O19   O     O_3   0.934520 0.782710 0.250000 -0.352058
O20   O     O_3   0.065480 0.217290 0.750000 -0.352058
V1    V     V_3+5 0.159680 0.756060 0.250000 1.503737
V2    V     V_3+5 0.840320 0.243940 0.750000 1.503737
V3    V     V_3+5 0.659680 0.743940 0.250000 1.503737
V4    V     V_3+5 0.340320 0.256060 0.750000 1.503737
C9    C     C_R   0.885586 0.386262 0.643394 -0.047986
C10   C     C_R   0.114414 0.613738 0.356606 -0.047986
C11   C     C_R   0.114414 0.613738 0.143394 -0.047986
C12   C     C_R   0.885586 0.386262 0.856606 -0.047986
C13   C     C_R   0.385586 0.113738 0.856606 -0.047986
C14   C     C_R   0.614414 0.886262 0.143394 -0.047986
C15   C     C_R   0.614414 0.886262 0.356606 -0.047986
C16   C     C_R   0.385586 0.113738 0.643394 -0.047986
C17   C     C_R   0.878448 0.421457 0.606765 -0.180563
C18   C     C_R   0.121552 0.578543 0.393235 -0.180563
C19   C     C_R   0.121552 0.578543 0.106765 -0.180564
C20   C     C_R   0.878448 0.421457 0.893235 -0.180564
C21   C     C_R   0.378447 0.078544 0.893235 -0.180563
C22   C     C_R   0.621553 0.921456 0.106765 -0.180563
C23   C     C_R   0.621552 0.921456 0.393235 -0.180563
C24   C     C_R   0.378447 0.078544 0.606765 -0.180563
H1    H     H_    0.752005 0.443293 0.601202 0.111146
H2    H     H_    0.247995 0.556707 0.398798 0.111146
H3    H     H_    0.247995 0.556707 0.101202 0.111146
H4    H     H_    0.752005 0.443293 0.898798 0.111146
H5    H     H_    0.252005 0.056708 0.898798 0.111146
H6    H     H_    0.747995 0.943292 0.101202 0.111146
H7    H     H_    0.747995 0.943292 0.398798 0.111146
H8    H     H_    0.252005 0.056708 0.601202 0.111146
C25   C     C_R   0.030066 0.428197 0.576860 0.081599
C26   C     C_R   0.969934 0.571803 0.423140 0.081599
C27   C     C_R   0.969935 0.571803 0.076860 0.081599
C28   C     C_R   0.030065 0.428196 0.923140 0.081599
C29   C     C_R   0.530064 0.071804 0.923140 0.081598
C30   C     C_R   0.469936 0.928196 0.076859 0.081598
C31   C     C_R   0.469935 0.928196 0.423140 0.081599
C32   C     C_R   0.530065 0.071804 0.576860 0.081599
C33   C     C_R   0.191509 0.398970 0.584495 -0.146516
C34   C     C_R   0.808491 0.601030 0.415505 -0.146516
C35   C     C_R   0.808492 0.601030 0.084494 -0.146516
C36   C     C_R   0.191508 0.398970 0.915506 -0.146516
C37   C     C_R   0.691508 0.101030 0.915506 -0.146516
C38   C     C_R   0.308492 0.898970 0.084494 -0.146516
C39   C     C_R   0.308492 0.898970 0.415506 -0.146516
C40   C     C_R   0.691508 0.101030 0.584494 -0.146516
H9    H     H_    0.311917 0.403686 0.562404 0.109463
H10   H     H_    0.688083 0.596314 0.437596 0.109463
H11   H     H_    0.688084 0.596315 0.062403 0.109463
H12   H     H_    0.311916 0.403685 0.937597 0.109463
H13   H     H_    0.811915 0.096315 0.937597 0.109463
H14   H     H_    0.188085 0.903685 0.062403 0.109463
H15   H     H_    0.188084 0.903685 0.437597 0.109463
H16   H     H_    0.811915 0.096315 0.562403 0.109463
C41   C     C_R   0.200186 0.363507 0.620903 -0.144819
C42   C     C_R   0.799813 0.636493 0.379097 -0.144819
C43   C     C_R   0.799814 0.636493 0.120903 -0.144819
C44   C     C_R   0.200186 0.363507 0.879097 -0.144819
C45   C     C_R   0.700186 0.136493 0.879097 -0.144819
C46   C     C_R   0.299814 0.863506 0.120903 -0.144819
C47   C     C_R   0.299814 0.863506 0.379097 -0.144819
C48   C     C_R   0.700186 0.136493 0.620903 -0.144819
H17   H     H_    0.326257 0.341275 0.625215 0.132462
H18   H     H_    0.673742 0.658725 0.374785 0.132462
H19   H     H_    0.673743 0.658725 0.125215 0.132462
H20   H     H_    0.326257 0.341275 0.874785 0.132462
H21   H     H_    0.826256 0.158725 0.874785 0.132461
H22   H     H_    0.173743 0.841275 0.125215 0.132461
H23   H     H_    0.173743 0.841275 0.374785 0.132461
H24   H     H_    0.826257 0.158725 0.625215 0.132461
C49   C     C_R   0.047611 0.355985 0.650727 -0.086273
C50   C     C_R   0.952389 0.644015 0.349273 -0.086274
C51   C     C_R   0.952389 0.644015 0.150727 -0.086274
C52   C     C_R   0.047611 0.355985 0.849273 -0.086274
C53   C     C_R   0.547611 0.144015 0.849273 -0.086274
C54   C     C_R   0.452389 0.855984 0.150727 -0.086274
C55   C     C_R   0.452389 0.855984 0.349273 -0.086274
C56   C     C_R   0.547611 0.144015 0.650727 -0.086274
C57   C     C_R   0.091049 0.453053 0.493981 -0.152796
C58   C     C_R   0.908951 0.546947 0.506019 -0.152796
C59   C     C_R   0.908952 0.546948 0.993981 -0.152796
C60   C     C_R   0.091048 0.453052 0.006019 -0.152796
C61   C     C_R   0.591050 0.046947 0.006019 -0.152797
C62   C     C_R   0.408950 0.953053 0.993981 -0.152797
C63   C     C_R   0.408950 0.953053 0.506019 -0.152796
C64   C     C_R   0.591050 0.046947 0.493981 -0.152796
H25   H     H_    0.159058 0.416532 0.488253 0.111025
H26   H     H_    0.840942 0.583468 0.511747 0.111025
H27   H     H_    0.840944 0.583469 0.988252 0.111025
H28   H     H_    0.159056 0.416531 0.011748 0.111025
H29   H     H_    0.659059 0.083468 0.011747 0.111025
H30   H     H_    0.340940 0.916532 0.988253 0.111025
H31   H     H_    0.340940 0.916532 0.511747 0.111025
H32   H     H_    0.659060 0.083468 0.488253 0.111025
C65   C     C_R   0.073779 0.487240 0.456850 -0.148621
C66   C     C_R   0.926221 0.512760 0.543150 -0.148621
C67   C     C_R   0.926222 0.512760 0.956850 -0.148621
C68   C     C_R   0.073778 0.487240 0.043150 -0.148621
C69   C     C_R   0.573781 0.012759 0.043149 -0.148621
C70   C     C_R   0.426219 0.987241 0.956851 -0.148621
C71   C     C_R   0.426219 0.987241 0.543149 -0.148621
C72   C     C_R   0.573781 0.012759 0.456851 -0.148621
H33   H     H_    0.129823 0.476164 0.423559 0.114577
H34   H     H_    0.870177 0.523836 0.576441 0.114577
H35   H     H_    0.870177 0.523836 0.923558 0.114576
H36   H     H_    0.129823 0.476164 0.076442 0.114576
H37   H     H_    0.629828 0.023835 0.076441 0.114577
H38   H     H_    0.370172 0.976165 0.923559 0.114577
H39   H     H_    0.370173 0.976165 0.576441 0.114577
H40   H     H_    0.629827 0.023835 0.423559 0.114577
C73   C     C_R   0.982735 0.534698 0.462373 0.087274
C74   C     C_R   0.017265 0.465302 0.537627 0.087274
C75   C     C_R   0.017264 0.465302 0.962373 0.087275
C76   C     C_R   0.982736 0.534698 0.037627 0.087275
C77   C     C_R   0.482737 0.965301 0.037626 0.087274
C78   C     C_R   0.517263 0.034699 0.962374 0.087274
C79   C     C_R   0.517263 0.034698 0.537626 0.087274
C80   C     C_R   0.482737 0.965301 0.462374 0.087274
C81   C     C_1   0.724418 0.383581 0.673074 0.289982
N1    N     N_1   0.594322 0.381845 0.696568 -0.305938
C82   C     C_1   0.275582 0.616419 0.326926 0.289982
N2    N     N_1   0.405678 0.618155 0.303432 -0.305938
C83   C     C_1   0.275582 0.616419 0.173074 0.289983
N3    N     N_1   0.405678 0.618155 0.196568 -0.305938
C84   C     C_1   0.724418 0.383581 0.826926 0.289982
N4    N     N_1   0.594322 0.381845 0.803432 -0.305938
C85   C     C_1   0.224418 0.116419 0.826926 0.289983
N5    N     N_1   0.094323 0.118155 0.803432 -0.305938
C86   C     C_1   0.775582 0.883581 0.173074 0.289983
N6    N     N_1   0.905677 0.881845 0.196568 -0.305938
C87   C     C_1   0.775581 0.883581 0.326926 0.289983
N7    N     N_1   0.905677 0.881845 0.303432 -0.305938
C88   C     C_1   0.224418 0.116419 0.673074 0.289983
N8    N     N_1   0.094323 0.118155 0.696568 -0.305938

loop_
_geom_bond_atom_site_label_1
_geom_bond_atom_site_label_2
_ccdc_geom_bond_type
O17   V3    S    
C16   C56   A    
C48   H24   S    
O18   V4    S    
C87   N7    T    
O12   V1    S    
O19   V1    S    
C16   C88   S    
C37   H13   S    
C82   N2    T    
C10   C18   A    
C59   C67   A    
C19   H3    S    
C62   H30   S    
C39   H15   S    
C81   N1    T    
C61   H29   S    
O15   V4    S    
O16   V3    S    
C35   C43   A    
C11   C83   S    
O11   C3    A    
C58   H26   S    
C8    C50   S    
O8    V1    S    
C64   C79   A    
C57   H25   S    
C71   H39   S    
C72   H40   S    
C23   C31   A    
C5    C51   S    
C24   C32   A    
C38   H14   S    
C29   C37   A    
C34   H10   S    
C67   C75   A    
O1    V3    S    
C33   H9    S    
C30   C38   A    
O3    C2    A    
O2    V4    S    
C65   C73   A    
C59   C76   A    
C16   C24   A    
C46   H22   S    
C27   C35   A    
C57   C74   A    
C45   H21   S    
C26   C34   A    
O11   V2    S    
C69   C77   A    
C47   H23   S    
C84   N4    T    
C61   C78   A    
C11   C19   A    
C22   H6    S    
C19   C27   A    
C41   H17   S    
C20   H4    S    
O15   C7    A    
C23   H7    S    
C21   H5    S    
O16   C8    A    
O7    V2    S    
C43   C51   A    
C15   C87   S    
C42   C50   A    
C18   C26   A    
C14   C86   S    
C60   C68   A    
C11   C51   A    
C70   H38   S    
C17   H1    S    
C40   C48   A    
C68   H36   S    
C68   C76   A    
O5    V1    S    
C20   C28   A    
C6    C52   S    
O13   C5    A    
C36   C44   A    
C13   C85   S    
C66   C74   A    
C25   C33   A    
C64   H32   S    
C58   C73   A    
C2    C56   S    
C67   H35   S    
C70   C78   A    
C44   C52   A    
C62   C77   A    
C58   C66   A    
C37   C45   A    
C34   C42   A    
C10   C82   S    
O10   V2    S    
C33   C41   A    
C88   N8    T    
C18   H2    S    
C31   C80   S    
O12   C4    A    
O8    C5    A    
C57   C65   A    
C12   C52   A    
C71   C79   A    
O9    C1    A    
C72   C80   A    
C59   H27   S    
C31   C39   A    
C9    C81   S    
C63   C80   A    
C62   C70   A    
C47   C55   A    
O4    C1    A    
C63   H31   S    
C61   C69   A    
O6    V2    S    
C22   C30   A    
C63   C71   A    
C39   C47   A    
C12   C20   A    
C35   H11   S    
C30   C77   S    
C13   C21   A    
C46   C54   A    
C45   C53   A    
C26   C73   S    
C15   C23   A    
C69   H37   S    
C24   H8    S    
C65   H33   S    
O1    C4    A    
C7    C49   S    
O2    C3    A    
O13   V3    S    
O14   V4    S    
C60   C75   A    
C12   C84   S    
C15   C55   A    
C32   C79   S    
O9    V1    S    
C36   H12   S    
O7    C6    A    
C43   H19   S    
C42   H18   S    
C9    C17   A    
O14   C6    A    
O20   V2    S    
C1    C55   S    
C17   C25   A    
C14   C54   A    
C83   N3    T    
C14   C22   A    
C13   C53   A    
C3    C53   S    
C60   H28   S    
O5    C8    A    
C41   C49   A    
C27   C76   S    
O10   C2    A    
O6    C7    A    
C21   C29   A    
C10   C50   A    
C25   C74   S    
C9    C49   A    
C32   C40   A    
O3    V4    S    
C64   C72   A    
O4    V3    S    
C28   C75   S    
C29   C78   S    
C4    C54   S    
C28   C36   A    
C40   H16   S    
C86   N6    T    
C44   H20   S    
C85   N5    T    
C48   C56   A    
C66   H34   S    
C38   C46   A    
