data_mof_unit_19995.cif
_audit_creation_date              2012-12-10T20:34:10-0500
_audit_creation_method            fapswitch 2.2
_symmetry_space_group_name_H-M    P1
_symmetry_Int_Tables_number       1
_space_group_crystal_system       triclinic
_cell_length_a                    9.872745
_cell_length_b                    10.730813
_cell_length_c                    13.58515
_cell_angle_alpha                 90.265066
_cell_angle_beta                  82.334803
_cell_angle_gamma                 89.697707
_cell_volume                      1426.34484521

loop_
_atom_site_label
_atom_site_type_symbol
_atom_type_description
_atom_site_fract_x
_atom_site_fract_y
_atom_site_fract_z
_atom_type_partial_charge
C1    C     C_R   0.500843 0.739839 0.495987 0.911995
C2    C     C_1   0.454131 0.506780 0.790070 -0.196654
C3    C     C_R   0.385785 0.939374 0.480547 -0.114775
C4    C     C_R   0.505546 0.871286 0.482814 -0.194123
C5    C     C_R   0.632434 0.935905 0.470079 0.493014
C6    C     C_R   0.630645 0.065787 0.474368 -0.345580
C7    C     C_R   0.506026 0.130352 0.481355 -0.159162
C8    C     C_R   0.388428 0.064201 0.474560 -0.011054
C9    C     C_3   0.236777 0.077929 0.484958 0.792437
C10   C     C_3   0.232009 0.933208 0.489264 0.239634
C11   C     C_R   0.913608 0.483981 0.586062 0.131395
C12   C     C_R   0.474826 0.500705 0.685929 0.927762
C13   C     C_R   0.944983 0.493837 0.413064 0.461068
C14   C     C_R   0.088484 0.499591 0.413480 -0.216183
C15   C     C_R   0.055716 0.482388 0.585877 0.238036
C16   C     C_3   0.045924 0.558149 0.678517 -0.521348
C17   C     C_3   0.891722 0.561135 0.678319 -0.490334
C18   C     C_R   0.501303 0.260705 0.495648 0.920879
C19   C     C_R   0.524992 0.500796 0.314136 0.848615
C20   C     C_1   0.543975 0.504696 0.210102 -0.164548
C21   C     C_2   0.551797 0.510460 0.018413 -0.278797
C22   C     C_2   0.432178 0.519393 0.983631 0.542945
C23   C     C_1   0.439488 0.512966 0.878172 -0.169499
C24   C     C_1   0.553545 0.507877 0.122144 0.050922
H1    H     H_    0.154973 0.500251 0.343578 0.182067
H2    H     H_    0.077461 0.503926 0.741270 0.205284
H3    H     H_    0.096295 0.649969 0.666357 0.235609
H4    H     H_    0.835145 0.509765 0.741652 0.210843
H5    H     H_    0.850024 0.654797 0.665304 0.219771
H6    H     H_    0.648100 0.502314 0.969432 0.117729
H7    H     H_    0.726332 0.114618 0.475041 0.170996
H8    H     H_    0.196847 0.884224 0.424794 0.026119
N1    N     N_R   0.857130 0.500860 0.500650 -0.147803
N2    N     N_R   0.142770 0.500820 0.500650 -0.120484
O1    O     O_R   0.385310 0.683210 0.499990 -0.595651
O2    O     O_R   0.614650 0.683240 0.500000 -0.579483
O3    O     O_R   0.368820 0.499950 0.640340 -0.602001
O4    O     O_R   0.598170 0.499990 0.640350 -0.615259
O5    O     O_R   0.385350 0.316760 0.500000 -0.563652
O6    O     O_R   0.614690 0.316790 0.500010 -0.650882
O7    O     O_R   0.401830 0.500010 0.359650 -0.627294
O8    O     O_R   0.631180 0.500050 0.359660 -0.586498
Zn1   Zn    Zn3+2 0.346870 0.499980 0.499990 0.980325
Zn2   Zn    Zn3+2 0.653130 0.500020 0.500010 0.960348
O9    O     O_3   0.310489 0.527347 0.049652 -0.640587
C25   C     C_3   0.195013 0.561450 0.003954 0.089624
H9    H     H_    0.102705 0.538277 0.056555 0.160487
H10   H     H_    0.186425 0.506233 0.935520 0.140428
C26   C     C_3   0.192431 0.702263 0.984916 -0.349150
H11   H     H_    0.187890 0.753057 0.056788 0.223587
H12   H     H_    0.286902 0.730797 0.936777 0.224551
C27   C     C_3   0.069315 0.739107 0.934379 -0.957580
H13   H     H_    0.076167 0.693788 0.860344 0.267674
H14   H     H_    0.067437 0.841737 0.924515 0.270429
H15   H     H_    0.972885 0.710455 0.979913 0.264290
O10   O     O_3   0.756533 0.873351 0.464559 -0.643445
C28   C     C_3   0.832505 0.888064 0.369227 0.035602
H16   H     H_    0.940608 0.864122 0.375498 0.153115
H17   H     H_    0.832845 0.985877 0.342100 0.131756
C29   C     C_3   0.781578 0.799142 0.293646 -0.318008
H18   H     H_    0.779906 0.702937 0.323048 0.285749
H19   H     H_    0.675991 0.825489 0.281755 0.188358
C30   C     C_3   0.873602 0.801639 0.194231 -0.945781
H20   H     H_    0.876234 0.896816 0.162312 0.265572
H21   H     H_    0.832943 0.736362 0.141875 0.267220
H22   H     H_    0.979030 0.771847 0.203615 0.267784
O11   O     O_3   0.188309 0.135730 0.576060 -0.733931
H23   H     H_    0.090874 0.157362 0.574216 0.326455
O12   O     O_3   0.180974 0.134946 0.404186 -0.701371
C31   C     C_3   0.241335 0.097931 0.307696 -0.041259
H24   H     H_    0.157351 0.071389 0.265066 0.164575
H25   H     H_    0.310476 0.015669 0.305354 0.114540
C32   C     C_3   0.318672 0.207779 0.255955 -0.261116
H26   H     H_    0.248939 0.289453 0.256281 0.233766
H27   H     H_    0.404713 0.233656 0.296745 0.207481
C33   C     C_3   0.375400 0.175451 0.148842 -0.944670
H28   H     H_    0.447888 0.095650 0.146786 0.257234
H29   H     H_    0.430646 0.256845 0.113387 0.279852
H30   H     H_    0.290920 0.151223 0.105905 0.265892
O13   O     O_3   0.172607 0.888749 0.582801 -0.597386
C34   C     C_3   0.028263 0.890490 0.587216 0.114173
H31   H     H_    0.993785 0.799055 0.561417 0.158499
H32   H     H_    0.990290 0.963851 0.539516 0.142721
C35   C     C_3   0.963676 0.915072 0.694343 -0.350294
H33   H     H_    0.982227 0.834113 0.741273 0.219437
H34   H     H_    0.011979 0.998097 0.723952 0.251293
C36   C     C_3   0.809996 0.938775 0.701305 -0.909937
H35   H     H_    0.789782 0.024272 0.659688 0.270542
H36   H     H_    0.766310 0.952086 0.780303 0.256495
H37   H     H_    0.758257 0.858728 0.670588 0.284774
O14   O     O_3   0.896113 0.477541 0.323572 -0.634588
C37   C     C_3   0.896921 0.348242 0.302160 0.092386
H38   H     H_    0.810128 0.302945 0.348936 0.172518
H39   H     H_    0.993867 0.301538 0.316014 0.140879
C38   C     C_3   0.881964 0.328498 0.192736 -0.327018
H40   H     H_    0.792583 0.381827 0.173958 0.236709
H41   H     H_    0.974803 0.363440 0.146012 0.214865
C39   C     C_3   0.862934 0.190969 0.169251 -0.998977
H42   H     H_    0.952076 0.135535 0.186364 0.260294
H43   H     H_    0.853786 0.179668 0.089132 0.272404
H44   H     H_    0.768396 0.155024 0.213308 0.264356

loop_
_geom_bond_atom_site_label_1
_geom_bond_atom_site_label_2
_ccdc_geom_bond_type
C36   H35   S    
C30   H21   S    
C38   H40   S    
C17   H5    S    
C32   H26   S    
C5    O10   S    
C19   C20   S    
C35   C36   S    
C2    C12   S    
C34   H31   S    
C38   C39   S    
C7    C8    A    
O9    C25   S    
O4    Zn2   S    
C25   C26   S    
C29   C30   S    
C27   H15   S    
C33   H29   S    
C5    C6    A    
C28   H17   S    
C15   C16   S    
O10   C28   S    
C29   H19   S    
C12   O3    A    
C18   O6    A    
C36   H37   S    
C11   C15   A    
C20   C24   T    
C8    C9    S    
N1    Zn2   S    
C33   H30   S    
C31   H24   S    
O1    Zn1   S    
C9    C10   S    
C15   N2    A    
C19   O8    A    
C26   C27   S    
C16   H3    S    
C6    H7    S    
C30   H22   S    
C21   C22   D    
C13   O14   S    
O7    Zn1   S    
O8    Zn2   S    
C34   H32   S    
C27   H14   S    
C16   H2    S    
C25   H10   S    
O11   H23   S    
C11   N1    A    
C33   H28   S    
C3    C8    A    
O14   C37   S    
C10   O13   S    
C16   C17   S    
C28   C29   S    
O5    Zn1   S    
C26   H12   S    
C37   C38   S    
C29   H18   S    
O3    Zn1   S    
C18   O5    A    
C9    O11   S    
C13   N1    A    
O6    Zn2   S    
C7    C18   S    
C31   C32   S    
C37   H39   S    
C35   H33   S    
C39   H42   S    
C39   H43   S    
C36   H36   S    
C9    O12   S    
C32   C33   S    
O2    Zn2   S    
C32   H27   S    
C3    C4    A    
C34   C35   S    
C27   H13   S    
C1    O1    A    
C25   H9    S    
C11   C17   S    
C17   H4    S    
N2    Zn1   S    
C35   H34   S    
O13   C34   S    
C14   N2    A    
C38   H41   S    
C6    C7    A    
C39   H44   S    
C21   H6    S    
C1    C4    S    
C3    C10   S    
C28   H16   S    
C37   H38   S    
C14   H1    S    
C12   O4    A    
O12   C31   S    
C30   H20   S    
C10   H8    S    
C4    C5    A    
C22   O9    S    
C26   H11   S    
C21   C24   S    
C2    C23   T    
C22   C23   S    
C31   H25   S    
C13   C14   A    
C19   O7    A    
C1    O2    A    
