data_mof_unit_24169.cif
_audit_creation_date              2012-12-10T17:35:41-0500
_audit_creation_method            fapswitch 2.2
_symmetry_space_group_name_H-M    P1
_symmetry_Int_Tables_number       1
_space_group_crystal_system       triclinic
_cell_length_a                    10.525643
_cell_length_b                    12.12627
_cell_length_c                    12.781592
_cell_angle_alpha                 95.039338
_cell_angle_beta                  91.561807
_cell_angle_gamma                 87.738434
_cell_volume                      1623.36574142

loop_
_atom_site_label
_atom_site_type_symbol
_atom_type_description
_atom_site_fract_x
_atom_site_fract_y
_atom_site_fract_z
_atom_type_partial_charge
C1    C     C_R   0.500623 0.523289 0.700175 0.908752
C2    C     C_R   0.613907 0.167655 0.585086 0.475531
C3    C     C_R   0.554983 0.862130 0.540952 0.486309
C4    C     C_R   0.445005 0.137873 0.459054 0.486329
C5    C     C_R   0.548494 0.978124 0.532141 -0.122329
C6    C     C_R   0.451499 0.021876 0.467860 -0.122338
C7    C     C_R   0.741778 0.501526 0.500569 0.929866
C8    C     C_R   0.258221 0.498474 0.499432 0.929886
C9    C     C_3   0.961307 0.461124 0.590931 -0.333806
C10   C     C_3   0.038691 0.538877 0.409071 -0.333805
C11   C     C_3   0.043811 0.562320 0.582188 0.422349
C12   C     C_R   0.499376 0.476711 0.299823 0.908794
C13   C     C_3   0.956188 0.437680 0.417814 0.422351
C14   C     C_3   0.123905 0.496200 0.498739 -0.110949
C15   C     C_3   0.876095 0.503801 0.501263 -0.110942
C16   C     C_3   0.041554 0.396081 0.505375 0.058660
C17   C     C_3   0.958445 0.603920 0.494627 0.058653
C18   C     C_R   0.491739 0.460666 0.187532 -0.126047
C19   C     C_R   0.508265 0.539335 0.812463 -0.126074
C20   C     C_R   0.608133 0.613696 0.974769 0.433105
C21   C     C_R   0.391873 0.386300 0.025222 0.433024
C22   C     C_R   0.596465 0.610762 0.864460 0.000750
C23   C     C_R   0.438056 0.468881 0.866079 -0.207302
C24   C     C_R   0.403572 0.389216 0.135528 0.000760
C25   C     C_R   0.561926 0.531132 0.133917 -0.207320
C26   C     C_R   0.456900 0.463747 0.972798 0.012157
C27   C     C_R   0.543091 0.536257 0.027196 0.012143
C28   C     C_R   0.364453 0.948537 0.413011 -0.012672
C29   C     C_R   0.635548 0.051462 0.586982 -0.012670
C30   C     C_R   0.386098 0.832343 0.414909 0.475539
H1    H     H_    0.927469 0.430472 0.664239 0.186720
H2    H     H_    0.873169 0.743494 0.563867 0.210209
H3    H     H_    0.248581 0.291770 0.149473 0.209103
H4    H     H_    0.272485 0.385913 0.247977 0.156963
H5    H     H_    0.751666 0.707970 0.850500 0.209032
H6    H     H_    0.727452 0.614002 0.751919 0.156929
H7    H     H_    0.675025 0.760144 0.000197 0.343603
H8    H     H_    0.325057 0.239844 0.999714 0.343530
H9    H     H_    0.369851 0.258269 0.387417 0.385215
H10   H     H_    0.630147 0.741738 0.612588 0.385202
H11   H     H_    0.699202 0.214144 0.715944 0.321249
H12   H     H_    0.072529 0.569529 0.335763 0.186723
H13   H     H_    0.300839 0.785840 0.284036 0.321261
H14   H     H_    0.199212 0.038324 0.421890 0.210789
H15   H     H_    0.189594 0.930136 0.335371 0.182441
H16   H     H_    0.800788 0.961685 0.578062 0.210755
H17   H     H_    0.810417 0.069858 0.664603 0.182437
H18   H     H_    0.628178 0.585323 0.177424 0.223836
H19   H     H_    0.371793 0.414697 0.822574 0.223836
H20   H     H_    0.021034 0.656273 0.709284 0.328265
H21   H     H_    0.978964 0.343728 0.290717 0.328269
H22   H     H_    0.010505 0.233755 0.517523 0.208116
H23   H     H_    0.126839 0.256507 0.436142 0.210225
H24   H     H_    0.989495 0.766242 0.482476 0.208120
N1    N     N_R   0.523490 0.207800 0.519350 -0.180681
N2    N     N_R   0.476510 0.792200 0.480650 -0.180689
N3    N     N_3   0.089076 0.282097 0.509403 -0.409710
N4    N     N_3   0.910921 0.717903 0.490602 -0.409719
N5    N     N_3   0.320881 0.328529 0.195992 -0.412966
N6    N     N_3   0.679230 0.671403 0.804000 -0.412970
N7    N     N_3   0.250783 0.992199 0.363234 -0.367705
N8    N     N_3   0.749230 0.007797 0.636734 -0.367688
O1    O     O_R   0.506270 0.421700 0.658830 -0.583834
O2    O     O_3   0.905105 0.371293 0.333261 -0.745480
O3    O     O_3   0.683225 0.688841 0.032585 -0.776108
O4    O     O_3   0.316742 0.311188 0.967405 -0.776098
O5    O     O_3   0.361732 0.178279 0.385768 -0.759753
O6    O     O_3   0.638237 0.821732 0.614258 -0.759683
O7    O     O_3   0.684813 0.242817 0.646192 -0.732808
O8    O     O_3   0.315200 0.757179 0.353797 -0.732806
O9    O     O_R   0.493730 0.578300 0.341170 -0.583834
O10   O     O_R   0.491200 0.609310 0.646410 -0.621755
O11   O     O_R   0.508800 0.390690 0.353590 -0.621751
O12   O     O_R   0.693580 0.406210 0.506230 -0.542739
O13   O     O_R   0.306420 0.593790 0.493770 -0.542743
O14   O     O_R   0.678510 0.593830 0.493810 -0.657940
O15   O     O_R   0.321490 0.406170 0.506190 -0.657928
O16   O     O_3   0.094894 0.628707 0.666741 -0.745478
Zn1   Zn    Zn3+2 0.510060 0.374730 0.508290 1.010667
Zn2   Zn    Zn3+2 0.489940 0.625270 0.491710 1.010666

loop_
_geom_bond_atom_site_label_1
_geom_bond_atom_site_label_2
_ccdc_geom_bond_type
C21   C26   A    
C21   O4    S    
C10   H12   S    
C3    O6    S    
H2    N4    S    
H17   N8    S    
O1    Zn1   S    
C26   C27   A    
H16   N8    S    
C2    C29   A    
C18   C24   A    
C9    C16   S    
C2    N1    A    
C22   N6    S    
C5    C6    A    
C11   C14   S    
C23   H19   S    
C10   C17   S    
C1    O1    A    
C23   C26   A    
C6    C28   A    
H8    O4    S    
H7    O3    S    
C2    O7    S    
O13   Zn2   S    
C17   N4    S    
C28   N7    S    
C7    C15   S    
H3    N5    S    
C12   O11   A    
C18   C25   A    
H20   O16   S    
O9    Zn2   S    
C30   O8    S    
C7    O12   A    
C5    C29   A    
O15   Zn1   S    
C1    C19   S    
C1    O10   A    
C20   O3    S    
C19   C22   A    
C4    C6    A    
C10   C14   S    
H23   N3    S    
C3    C5    A    
C30   N2    A    
C8    O13   A    
H5    N6    S    
C19   C23   A    
C11   O16   S    
N1    Zn1   S    
C3    N2    A    
O11   Zn1   S    
C9    C11   S    
C25   H18   S    
C12   O9    A    
C20   C22   A    
H13   O8    S    
O12   Zn1   S    
C13   C15   S    
C4    N1    A    
H4    N5    S    
C14   C16   S    
C21   C24   A    
H11   O7    S    
H24   N4    S    
C15   C17   S    
C29   N8    S    
C11   C17   S    
C8    C14   S    
H9    O5    S    
H21   O2    S    
O14   Zn2   S    
H6    N6    S    
C10   C13   S    
C4    O5    S    
C7    O14   A    
C20   C27   A    
H14   N7    S    
C25   C27   A    
N2    Zn2   S    
C28   C30   A    
C9    C15   S    
O10   Zn2   S    
C8    O15   A    
C13   O2    S    
C24   N5    S    
H15   N7    S    
C16   N3    S    
H22   N3    S    
C9    H1    S    
H10   O6    S    
C13   C16   S    
C12   C18   S    
