data_mof_unit_34445.cif
_audit_creation_date              2012-12-11T18:06:52-0500
_audit_creation_method            fapswitch 2.2
_symmetry_space_group_name_H-M    P1
_symmetry_Int_Tables_number       1
_space_group_crystal_system       triclinic
_cell_length_a                    8.459895
_cell_length_b                    13.106906
_cell_length_c                    26.977462
_cell_angle_alpha                 98.54503
_cell_angle_beta                  92.386265
_cell_angle_gamma                 80.497857
_cell_volume                      2917.10135634

loop_
_atom_site_label
_atom_site_type_symbol
_atom_type_description
_atom_site_fract_x
_atom_site_fract_y
_atom_site_fract_z
_atom_type_partial_charge
Ba1   Ba    Ba6+2 0.859560 0.448380 0.523550 1.579935
Ba2   Ba    Ba6+2 0.330270 0.551530 0.476440 1.595154
C1    C     C_3   0.648139 0.110314 0.703914 -0.182493
C2    C     C_R   0.821711 0.507619 0.163114 0.583598
C3    C     C_2   0.729733 0.518574 0.268213 -0.115907
C4    C     C_3   0.076489 0.248628 0.656990 0.347512
C5    C     C_3   0.672457 0.503113 0.318424 -0.004523
C6    C     C_1   0.960247 0.456031 0.342311 -0.002408
C7    C     C_2   0.004571 0.456173 0.295197 -0.128120
C8    C     C_2   0.886220 0.490475 0.254116 0.182499
C9    C     C_R   0.019420 0.516447 0.102634 -0.095744
C10   C     C_R   0.138024 0.489581 0.138579 -0.033495
C11   C     C_R   0.297328 0.461581 0.123376 -0.051411
C12   C     C_3   0.597420 0.211544 0.677812 0.574362
C13   C     C_R   0.859779 0.539370 0.117570 -0.047795
C14   C     C_2   0.806046 0.480592 0.356137 -0.227796
C15   C     C_2   0.380626 0.522017 0.641686 -0.234720
C16   C     C_3   0.076709 0.246454 0.713825 -0.450993
C17   C     C_R   0.261154 0.485730 0.985300 0.023140
C18   C     C_R   0.978937 0.550203 0.965909 0.004770
C19   C     C_R   0.139550 0.518058 0.950199 0.042109
C20   C     C_R   0.418308 0.450395 0.967321 -0.111765
C21   C     C_R   0.453201 0.444242 0.916906 -0.069487
C22   C     C_R   0.334895 0.476594 0.882029 -0.018680
C23   C     C_3   0.570184 0.748730 0.632008 0.259989
C24   C     C_R   0.178521 0.515859 0.898606 -0.094452
C25   C     C_R   0.061036 0.550590 0.863379 -0.036011
C26   C     C_R   0.109795 0.558084 0.813880 0.591452
C27   C     C_R   0.370764 0.467438 0.830668 0.560131
C28   C     C_3   0.056967 0.224063 0.353925 0.251839
C29   C     C_2   0.462967 0.513693 0.732312 -0.112557
C30   C     C_3   0.514999 0.507797 0.679145 -0.004608
C31   C     C_1   0.226844 0.536357 0.655424 0.048832
C32   C     C_2   0.187253 0.518448 0.700641 -0.139811
C33   C     C_2   0.307887 0.515191 0.744130 0.193323
C34   C     C_3   0.624208 0.798993 0.683246 -0.019563
C35   C     C_R   0.221392 0.487050 0.036548 0.021071
C36   C     C_R   0.060197 0.520211 0.052117 0.017463
C37   C     C_R   0.939752 0.557425 0.017900 -0.009246
C38   C     C_R   0.337519 0.456936 0.073344 -0.110892
C39   C     C_R   0.745009 0.593754 0.087017 0.049194
C40   C     C_3   0.116747 0.190349 0.300401 -0.430438
C41   C     C_R   0.860759 0.567245 0.928210 -0.074563
C42   C     C_R   0.898653 0.573340 0.878648 0.056715
C43   C     C_R   0.787221 0.606568 0.038028 0.179424
C44   C     C_R   0.753122 0.821395 0.475522 -0.265737
C45   C     C_3   0.005998 0.860851 0.335497 0.534443
C46   C     C_R   0.402403 0.177966 0.500663 -0.201282
C47   C     C_R   0.400797 0.010299 0.527709 -0.094792
C48   C     C_R   0.331643 0.114526 0.527654 0.053142
C49   C     C_R   0.559815 0.146065 0.482782 0.018087
C50   C     C_R   0.628088 0.037007 0.480434 -0.058644
C51   C     C_R   0.543121 0.967622 0.501790 -0.045417
C52   C     C_3   0.984676 0.766688 0.578502 0.328114
C53   C     C_R   0.608250 0.858919 0.499447 0.046125
C54   C     C_R   0.841218 0.888162 0.457149 0.014769
C55   C     C_R   0.779303 0.995189 0.459173 -0.126144
C56   C     C_3   0.955559 0.972417 0.322701 -0.177856
C57   C     C_3   0.952994 0.884783 0.591796 -0.257468
C58   C     C_3   0.570045 0.254620 0.367372 0.227086
C59   C     C_3   0.511483 0.158214 0.340075 -0.410388
C60   C     C_3   0.710639 0.124716 0.596592 -0.163600
C61   C     C_3   0.089182 0.924074 0.623979 -0.346527
C62   C     C_3   0.439333 0.265311 0.699962 -0.362969
C63   C     C_3   0.513653 0.893082 0.762532 -0.248468
C64   C     C_3   0.817067 0.093742 0.725847 -0.389455
C65   C     C_3   0.101486 0.794419 0.290695 -0.271290
C66   C     C_3   0.869787 0.709223 0.342657 -0.181613
C67   C     C_3   0.475338 0.808961 0.363816 0.362245
C68   C     C_3   0.859083 0.978884 0.273460 -0.474653
C69   C     C_3   0.588110 0.653786 0.108808 -0.364588
C70   C     C_3   0.761278 0.595537 0.842279 -0.321762
C71   C     C_3   0.734201 0.779673 0.013413 -0.242656
C72   C     C_3   0.750202 0.463506 0.405946 -0.229945
C73   C     C_3   0.435738 0.533972 0.590788 -0.241659
C74   C     C_3   0.302099 0.275672 0.487246 -0.215528
C75   C     C_3   0.451855 0.915326 0.346772 -0.405310
C76   C     C_R   0.094906 0.493460 0.189321 0.586190
H1    H     H_    0.208891 0.119345 0.298367 0.108719
H2    H     H_    0.633478 0.039501 0.677003 0.092098
H3    H     H_    0.611537 0.092219 0.333731 0.129925
H4    H     H_    0.458607 0.174363 0.303200 0.096875
H5    H     H_    0.419905 0.136766 0.362937 0.122634
H6    H     H_    0.568545 0.108899 0.735572 0.083215
H7    H     H_    0.460921 0.717243 0.638420 0.013463
H8    H     H_    0.668423 0.686894 0.617161 0.041539
H9    H     H_    0.673994 0.735081 0.705194 0.070362
H10   H     H_    0.720610 0.845114 0.679087 0.091759
H11   H     H_    0.150372 0.302192 0.734238 0.094314
H12   H     H_    0.015624 0.173176 0.274739 0.096827
H13   H     H_    0.065565 0.005069 0.319434 0.088619
H14   H     H_    0.884809 0.021352 0.353872 0.094324
H15   H     H_    0.580997 0.802466 0.389024 -0.012963
H16   H     H_    0.373718 0.804150 0.386981 0.130812
H17   H     H_    0.539786 0.917197 0.317831 0.124890
H18   H     H_    0.468034 0.973803 0.379938 0.070531
H19   H     H_    0.953596 0.251037 0.642162 0.129174
H20   H     H_    0.330423 0.935247 0.330940 0.125716
H21   H     H_    0.126768 0.422794 0.286212 0.140297
H22   H     H_    0.391517 0.439590 0.150012 0.165398
H23   H     H_    0.171531 0.252012 0.287174 0.114609
H24   H     H_    0.554604 0.522621 0.760730 0.118715
H25   H     H_    0.575407 0.414653 0.905362 0.115816
H26   H     H_    0.517966 0.424682 0.990995 0.068339
H27   H     H_    0.462470 0.431569 0.065211 0.092063
H28   H     H_    0.638597 0.556859 0.244957 0.145710
H29   H     H_    0.735892 0.571922 0.936180 0.105988
H30   H     H_    0.118098 0.322126 0.651814 0.053137
H31   H     H_    0.069052 0.501180 0.705647 0.148530
H32   H     H_    0.341341 0.963433 0.548080 0.112562
H33   H     H_    0.850188 0.044401 0.444204 0.104187
H34   H     H_    0.874766 0.739009 0.561854 -0.033797
H35   H     H_    0.803573 0.739613 0.474222 0.047439
H36   H     H_    0.957166 0.275915 0.729519 0.166101
H37   H     H_    0.120946 0.166932 0.723190 0.127988
H38   H     H_    0.042662 0.154728 0.371004 0.072514
H39   H     H_    0.935417 0.270100 0.353316 0.028441
H40   H     H_    0.472053 0.149197 0.615204 0.168769
H41   H     H_    0.726044 0.164758 0.564535 0.165929
H42   H     H_    0.690779 0.044077 0.583243 0.063841
H43   H     H_    0.821716 0.120363 0.619372 0.118610
H44   H     H_    0.095708 0.897288 0.661291 0.147500
H45   H     H_    0.082400 0.745274 0.550958 0.092790
H46   H     H_    0.205618 0.897131 0.605184 0.151643
H47   H     H_    0.065186 0.009566 0.630258 0.154409
H48   H     H_    0.455755 0.300439 0.739244 0.159904
H49   H     H_    0.379485 0.324351 0.677173 0.050079
H50   H     H_    0.365571 0.203878 0.699656 0.103883
H51   H     H_    0.439902 0.927998 0.691467 0.221509
H52   H     H_    0.403855 0.943012 0.778870 0.112923
H53   H     H_    0.615958 0.936778 0.769999 0.109113
H54   H     H_    0.537467 0.821533 0.780952 0.122723
H55   H     H_    0.905228 0.089488 0.696477 0.128026
H56   H     H_    0.840577 0.907396 0.613237 0.100166
H57   H     H_    0.830534 0.156772 0.757281 0.153804
H58   H     H_    0.839910 0.018203 0.740923 0.110415
H59   H     H_    0.019365 0.768955 0.259773 0.081287
H60   H     H_    0.184950 0.838298 0.275338 0.083947
H61   H     H_    0.174695 0.724127 0.302157 0.168682
H62   H     H_    0.773459 0.869189 0.363225 0.156140
H63   H     H_    0.808798 0.681503 0.308047 0.111174
H64   H     H_    0.810184 0.693804 0.375863 0.054295
H65   H     H_    0.994181 0.666945 0.343252 0.121144
H66   H     H_    0.810806 0.061774 0.270435 0.132159
H67   H     H_    0.939037 0.921465 0.557078 0.102010
H68   H     H_    0.936736 0.947621 0.240713 0.134551
H69   H     H_    0.757535 0.934782 0.271733 0.146805
H70   H     H_    0.579624 0.737899 0.105559 0.099808
H71   H     H_    0.485449 0.624051 0.088173 0.116809
H72   H     H_    0.575716 0.651309 0.149263 0.153459
H73   H     H_    0.773700 0.532367 0.809777 0.155132
H74   H     H_    0.642798 0.598313 0.859130 0.093570
H75   H     H_    0.761044 0.672441 0.829716 0.142374
H76   H     H_    0.562725 0.682818 0.015937 0.197183
H77   H     H_    0.652247 0.827708 0.989499 0.110338
H78   H     H_    0.608370 0.298635 0.339125 0.026828
H79   H     H_    0.857603 0.770469 0.999003 0.122296
H80   H     H_    0.730706 0.821161 0.052464 0.105406
H81   H     H_    0.810655 0.388895 0.416406 0.139716
H82   H     H_    0.769487 0.530111 0.434809 0.135262
H83   H     H_    0.621678 0.456641 0.404498 0.126354
H84   H     H_    0.379297 0.608641 0.578928 0.118923
H85   H     H_    0.564961 0.537789 0.591244 0.133460
H86   H     H_    0.415356 0.466013 0.563405 0.130143
H87   H     H_    0.341469 0.296027 0.452789 0.108495
H88   H     H_    0.176889 0.263152 0.478438 0.153923
H89   H     H_    0.472991 0.304739 0.388182 0.097382
H90   H     H_    0.308345 0.341930 0.517237 0.110132
N1    N     N_R   0.935256 0.497541 0.202122 -0.414347
N2    N     N_R   0.262156 0.513149 0.796713 -0.416532
N3    N     N_2   0.574036 0.181377 0.624360 -0.452858
N4    N     N_2   0.489520 0.865392 0.709189 -0.423693
N5    N     N_2   0.862240 0.819579 0.343120 -0.449456
N6    N     N_2   0.684153 0.678806 0.011649 -0.441799
O1    O     O_2   0.907040 0.557650 0.617910 -0.464801
O2    O     O_2   0.160097 0.879570 0.474368 -0.481276
O3    O     O_3   0.109277 0.866465 0.378705 -0.627143
O4    O     O_3   0.139040 0.557570 0.557730 -0.517424
O5    O     O_3   0.571310 0.369620 0.475470 -0.522056
O6    O     O_2   0.348200 0.764910 0.523260 -0.463494
O7    O     O_3   0.532222 0.823953 0.599832 -0.662809
O8    O     O_2   0.341053 0.577350 0.330565 -0.448477
O9    O     O_3   0.494109 0.728795 0.322535 -0.615203
O10   O     O_2   0.200447 0.494335 0.221422 -0.600489
O11   O     O_2   0.499117 0.416733 0.816443 -0.628411
O12   O     O_3   0.702693 0.226024 0.397707 -0.641566
O13   O     O_2   0.691178 0.481126 0.165807 -0.620126
O14   O     O_2   0.017777 0.607537 0.786830 -0.614522
O15   O     O_3   0.684960 0.360550 0.588460 -0.481767
O16   O     O_2   0.827448 0.435990 0.669363 -0.494114
O17   O     O_3   0.027415 0.724995 0.622747 -0.630623
O18   O     O_3   0.710211 0.281145 0.687120 -0.605687
O19   O     O_2   0.841490 0.235060 0.476710 -0.448315
O20   O     O_3   0.099640 0.305100 0.564190 -0.504250
O21   O     O_2   0.006402 0.120529 0.546004 -0.509991
O22   O     O_3   0.173965 0.161164 0.630493 -0.658922
O23   O     O_2   0.282660 0.442310 0.382060 -0.475272
O24   O     O_3   0.050670 0.442340 0.442260 -0.489467
O25   O     O_3   0.504750 0.639360 0.411530 -0.509184
O26   O     O_3   0.169323 0.274016 0.383979 -0.640554
O27   O     O_3   0.618400 0.630290 0.524520 -0.513349
O28   O     O_3   0.090070 0.694820 0.435810 -0.471208
P1    P     P_3+3 0.072810 0.589830 0.610360 0.981241
P2    P     P_3+3 0.661990 0.251250 0.462170 0.934235
P3    P     P_3+3 0.152799 0.171654 0.566013 0.898833
P4    P     P_3+3 0.116900 0.410080 0.389630 0.965928
P5    P     P_3+3 0.045485 0.831814 0.434959 0.949782
P6    P     P_3+3 0.670884 0.392468 0.655129 0.936206
P7    P     P_3+3 0.531849 0.766950 0.536324 0.906229
P8    P     P_3+3 0.506041 0.609646 0.345693 0.947150

loop_
_geom_bond_atom_site_label_1
_geom_bond_atom_site_label_2
_ccdc_geom_bond_type
C28   O26   S    
C52   H45   S    
O24   P4    S    
Ba2   O23   S    
C46   C74   S    
H51   N4    S    
C67   C75   S    
Ba1   O24   S    
Ba2   O28   S    
C4    H30   S    
C19   C24   A    
Ba1   O27   S    
C18   C41   A    
C4    O22   S    
C63   H52   S    
C71   N6    S    
C28   H38   S    
C34   H10   S    
C8    N1    S    
C60   N3    S    
C24   C25   A    
O19   P2    D    
Ba2   O6    S    
C72   H81   S    
C58   C59   S    
C73   H84   S    
C14   C72   S    
H40   N3    S    
C2    O13   D    
C73   H85   S    
C17   C19   A    
C22   C24   A    
C32   C33   S    
C35   C38   A    
C67   H15   S    
C59   H4    S    
C26   O14   D    
C36   C37   A    
C69   H72   S    
O15   P6    S    
C71   H79   S    
O8    P8    D    
C20   H26   S    
C54   C55   A    
C66   H65   S    
O7    P7    S    
Ba1   Ba2   S    
C45   C65   S    
O22   P3    S    
C65   H60   S    
C22   C27   A    
C11   C38   A    
C17   C35   A    
C69   H71   S    
C9    C13   A    
C25   C42   A    
C46   C49   A    
C21   H25   S    
C27   O11   D    
H62   N5    S    
C70   H74   S    
C10   C76   A    
C44   C53   A    
C58   O12   S    
C21   C22   A    
C66   H64   S    
Ba2   P4    S    
C27   N2    Am   
C30   P6    S    
C65   H61   S    
C7    C8    S    
C60   H42   S    
C37   C43   A    
C12   O18   S    
C62   H49   S    
C46   C48   A    
C69   H70   S    
C40   H1    S    
C7    H21   S    
O4    P1    S    
O18   P6    S    
C16   H36   S    
O23   P4    D    
Ba2   O27   S    
C15   C31   D    
C1    H2    S    
O27   P7    S    
C63   H53   S    
C23   O7    S    
C61   H46   S    
C52   C57   S    
C51   C53   A    
C34   H9    S    
C4    C16   S    
C34   N4    S    
C58   H89   S    
C2    N1    Am   
H76   N6    S    
C63   N4    S    
C52   H34   S    
C49   C50   A    
C29   H24   S    
C66   H63   S    
C17   C20   A    
C13   C39   A    
C67   H16   S    
C52   O17   S    
C3    C5    S    
C18   C37   A    
C6    C7    D    
C16   H11   S    
C62   H50   S    
C75   H20   S    
C71   H80   S    
C31   P1    S    
C76   N1    Am   
O3    P5    S    
C73   H86   S    
O9    P8    S    
C9    C36   A    
Ba1   O19   S    
C41   C42   A    
C58   H78   S    
C35   C36   A    
C53   P7    S    
C64   H55   S    
Ba1   O4    S    
C29   C30   S    
O21   P3    D    
C5    P8    S    
C66   N5    S    
C70   H73   S    
C12   C62   S    
C71   H77   S    
C23   H7    S    
C31   C32   D    
O12   P2    S    
C74   H87   S    
C41   H29   S    
C50   C51   A    
C18   C19   A    
C74   H88   S    
C60   H41   S    
C61   H47   S    
C1    C12   S    
C67   O9    S    
C64   H58   S    
C57   H67   S    
O16   P6    D    
C5    C14   S    
C62   H48   S    
O28   P5    S    
O17   P1    S    
C59   H5    S    
C15   C30   S    
C29   C33   D    
C38   H27   S    
C1    C64   S    
Ba2   O5    S    
Ba1   P1    S    
C40   H23   S    
C25   C26   A    
C63   H54   S    
C49   P2    S    
O2    P5    D    
C4    H19   S    
C56   H13   S    
C26   N2    Am   
C33   N2    S    
O20   P3    S    
Ba1   O1    S    
O26   P4    S    
C70   H75   S    
C75   H18   S    
C44   H35   S    
Ba2   O24   S    
C3    H28   S    
C68   H66   S    
C56   C68   S    
C6    P4    S    
C12   N3    S    
C16   H37   S    
C72   H83   S    
C9    C10   A    
C28   H39   S    
C72   H82   S    
Ba2   O4    S    
C57   H56   S    
C57   C61   S    
C10   C11   A    
C39   C69   S    
O25   P8    S    
C2    C13   A    
Ba1   O20   S    
O1    P1    D    
C3    C8    D    
C45   O3    S    
C59   H3    S    
C43   N6    S    
C45   C56   S    
C61   H44   S    
Ba1   O5    S    
C55   H33   S    
C54   P5    S    
Ba2   O25   S    
C11   H22   S    
C47   C51   A    
C23   H8    S    
C75   H17   S    
C42   C70   S    
C76   O10   D    
O6    P7    D    
C65   H59   S    
C68   H68   S    
C50   C55   A    
C23   C34   S    
C64   H57   S    
C48   P3    S    
O5    P2    S    
C6    C14   D    
C47   C48   A    
C44   C54   A    
C1    H6    S    
C15   C73   S    
C32   H31   S    
C39   C43   A    
C20   C21   A    
C28   C40   S    
C68   H69   S    
C45   N5    S    
C40   H12   S    
Ba1   P2    S    
C56   H14   S    
C60   H43   S    
Ba1   O15   S    
C47   H32   S    
C74   H90   S    
