data_mof_unit_62539.cif
_audit_creation_date              2012-12-11T17:26:13-0500
_audit_creation_method            fapswitch 2.2
_symmetry_space_group_name_H-M    P1
_symmetry_Int_Tables_number       1
_space_group_crystal_system       triclinic
_cell_length_a                    6.948673
_cell_length_b                    18.956811
_cell_length_c                    20.732213
_cell_angle_alpha                 107.573909
_cell_angle_beta                  90.246055
_cell_angle_gamma                 90.547672
_cell_volume                      2603.293433

loop_
_atom_site_label
_atom_site_type_symbol
_atom_type_description
_atom_site_fract_x
_atom_site_fract_y
_atom_site_fract_z
_atom_type_partial_charge
O1    O     O_R   0.505770 0.444240 0.557370 -0.534294
O2    O     O_R   0.169820 0.415250 0.421330 -0.534959
O3    O     O_R   0.005590 0.555760 0.442630 -0.534736
C1    C     C_R   0.338712 0.393630 0.395295 0.719884
O4    O     O_R   0.175660 0.435500 0.555540 -0.537078
O5    O     O_R   0.011460 0.576150 0.577800 -0.533030
C2    C     C_R   0.344465 0.421153 0.575639 0.725612
O6    O     O_R   0.499890 0.423850 0.422200 -0.533383
O7    O     O_3   0.341200 0.546120 0.507150 -0.365791
V1    V     V_3+5 0.063980 0.491440 0.498670 1.436613
O8    O     O_R   0.682100 0.584750 0.578670 -0.535884
C3    C     C_R   0.852039 0.606240 0.604596 0.722216
O9    O     O_R   0.676270 0.564500 0.444460 -0.536824
C4    C     C_R   0.845124 0.578853 0.424358 0.728224
V2    V     V_3+5 0.564720 0.508560 0.501330 1.437984
O10   O     O_3   0.837360 0.453880 0.492850 -0.366410
H1    H     H_    0.189207 0.705684 0.290841 0.113024
C5    C     C_R   0.071015 0.767693 0.228680 -0.150566
C6    C     C_R   0.903760 0.793188 0.205042 0.135367
C7    C     C_R   0.723711 0.775163 0.226737 -0.150162
C8    C     C_R   0.711081 0.732280 0.271349 -0.149284
H2    H     H_    0.570735 0.719011 0.287376 0.112579
C9    C     C_R   0.878337 0.706785 0.294987 0.135682
C10   C     C_R   0.058384 0.724811 0.273292 -0.148938
C11   C     C_1   0.916667 0.837921 0.158992 -0.054638
C12   C     C_1   0.865441 0.662052 0.341036 -0.051852
C13   C     C_1   0.855522 0.624411 0.379223 -0.182540
C14   C     C_1   0.926629 0.875560 0.120804 -0.184426
C15   C     C_1   0.916336 0.831626 0.833081 -0.184160
C16   C     C_1   0.900972 0.780189 0.780810 0.016609
C17   C     C_1   0.881452 0.719800 0.719192 0.014007
C18   C     C_1   0.866091 0.668356 0.666925 -0.190168
C19   C     C_1   0.352942 0.331295 0.332776 -0.193210
C20   C     C_1   0.375706 0.280068 0.280660 0.010151
C21   C     C_1   0.406760 0.220017 0.219282 0.009694
C22   C     C_1   0.429519 0.168781 0.167171 -0.192588
H3    H     H_    0.662127 0.331576 0.741195 0.128405
C23   C     C_R   0.554299 0.253143 0.789121 -0.161002
C24   C     C_R   0.401428 0.206305 0.794602 0.068146
C25   C     C_R   0.234642 0.203259 0.754728 0.274902
C26   C     C_R   0.222817 0.246570 0.710387 -0.175938
C27   C     C_R   0.376224 0.293121 0.704918 0.080443
C28   C     C_R   0.542040 0.296032 0.744591 -0.143781
C29   C     C_1   0.417358 0.161872 0.840905 0.053672
C30   C     C_1   0.363504 0.337893 0.658909 -0.029500
C31   C     C_1   0.353912 0.375558 0.620750 -0.184981
C32   C     C_1   0.428455 0.124392 0.879181 -0.135428
O11   O     O_R   0.282550 0.076220 0.077760 -0.534645
O12   O     O_R   0.606940 0.064510 0.944450 -0.533004
O13   O     O_R   0.770980 0.923830 0.922210 -0.532391
C33   C     C_R   0.438152 0.078884 0.924345 0.727229
O14   O     O_R   0.612630 0.084760 0.078660 -0.536444
O15   O     O_R   0.776710 0.944230 0.057380 -0.536601
C34   C     C_R   0.443737 0.106425 0.104669 0.713484
O16   O     O_R   0.276820 0.055820 0.942590 -0.528127
O17   O     O_3   0.441200 0.953910 0.992830 -0.369680
V3    V     V_3+5 0.718480 0.008550 0.001330 1.454925
O18   O     O_R   0.106020 0.935440 0.055580 -0.539085
C35   C     C_R   0.937125 0.921115 0.075669 0.719914
O19   O     O_R   0.100330 0.915180 0.921370 -0.535925
C36   C     C_R   0.930395 0.893730 0.895418 0.732508
V4    V     V_3+5 0.217720 0.991360 0.998720 1.451172
O20   O     O_3   0.945130 0.046090 0.007170 -0.364164
H4    H     H_    0.211361 0.780962 0.212653 0.111876
H5    H     H_    0.592889 0.794290 0.209187 0.112684
H6    H     H_    0.683539 0.256563 0.819363 0.162947
Br1   Br    Br    0.020068 0.140540 0.759248 -0.576127
H7    H     H_    0.093753 0.243789 0.680165 0.151790

loop_
_geom_bond_atom_site_label_1
_geom_bond_atom_site_label_2
_ccdc_geom_bond_type
O5    V1    S    
O2    C1    A    
O8    C3    A    
O16   V4    S    
H3    C28   S    
C24   C29   S    
O1    V2    S    
C4    C13   S    
C26   H7    S    
O4    C2    A    
C26   C27   A    
O11   V4    S    
C6    C7    A    
C29   C32   T    
C1    O6    A    
C16   C17   S    
C9    C10   A    
V4    O20   S    
O9    V2    S    
C19   C20   T    
O15   C35   A    
C23   C28   A    
O3    V1    S    
V1    O10   S    
O9    C4    A    
C3    C18   S    
C11   C14   T    
O11   C34   A    
C5    H4    S    
C12   C13   T    
C15   C16   T    
O3    C4    A    
O18   V4    S    
C5    C10   A    
O5    C3    A    
C8    H2    S    
C25   C26   A    
O14   C34   A    
V3    O20   S    
O6    V2    S    
O17   V4    S    
C8    C9    A    
O7    V2    S    
C23   C24   A    
C6    C11   S    
C15   C36   S    
C14   C35   S    
H1    C10   S    
C22   C34   S    
O14   V3    S    
V2    O10   S    
O2    V1    S    
C2    C31   S    
C30   C31   T    
C7    H5    S    
O4    V1    S    
O12   V3    S    
C7    C8    A    
O19   V4    S    
C20   C21   S    
O7    V1    S    
C9    C12   S    
C24   C25   A    
O17   V3    S    
O13   C36   A    
O15   V3    S    
C1    C19   S    
C5    C6    A    
C32   C33   S    
C21   C22   T    
C33   O16   A    
O18   C35   A    
O1    C2    A    
O13   V3    S    
O8    V2    S    
C25   Br1   S    
C17   C18   T    
C23   H6    S    
C27   C28   A    
O19   C36   A    
O12   C33   A    
C27   C30   S    
