data_mof_unit_35066.cif
_audit_creation_date              2012-12-11T16:28:08-0500
_audit_creation_method            fapswitch 2.2
_symmetry_space_group_name_H-M    P1
_symmetry_Int_Tables_number       1
_space_group_crystal_system       triclinic
_cell_length_a                    30.060443
_cell_length_b                    22.576514
_cell_length_c                    18.036043
_cell_angle_alpha                 89.798066
_cell_angle_beta                  122.413155
_cell_angle_gamma                 89.741076
_cell_volume                      10332.9938324

loop_
_atom_site_label
_atom_site_type_symbol
_atom_type_description
_atom_site_fract_x
_atom_site_fract_y
_atom_site_fract_z
_atom_type_partial_charge
C1    C     C_R   0.541278 0.585909 0.737490 -0.160035
C2    C     C_R   0.682626 0.360817 0.415570 -0.170754
C3    C     C_R   0.756754 0.719142 0.907425 -0.200962
C4    C     C_R   0.270944 0.809242 0.937630 -0.204478
C5    C     C_R   0.705714 0.131124 0.974423 -0.199081
C6    C     C_R   0.782174 0.718155 0.133223 -0.204259
C7    C     C_R   0.264384 0.203046 0.926186 -0.202299
C8    C     C_R   0.791192 0.207598 0.873243 -0.230653
C9    C     C_R   0.243669 0.837810 0.140843 -0.227326
C10   C     C_R   0.242893 0.167615 0.134727 -0.228199
C11   C     C_R   0.798093 0.752844 0.917574 -0.231784
C12   C     C_R   0.316083 0.780691 0.953499 -0.231313
C13   C     C_R   0.681522 0.642474 0.416328 -0.170748
C14   C     C_R   0.657290 0.154790 0.952027 -0.227879
C15   C     C_R   0.740939 0.683344 0.122273 -0.229184
C16   C     C_R   0.308133 0.233366 0.940096 -0.232654
C17   C     C_R   0.594337 0.582502 0.424127 -0.123983
C18   C     C_R   0.405448 0.418222 0.575967 -0.130896
C19   C     C_R   0.406000 0.582627 0.576335 -0.120632
C20   C     C_R   0.594479 0.418071 0.423983 -0.122621
C21   C     C_R   0.074965 0.109255 0.424313 -0.126539
C22   C     C_R   0.924711 0.890820 0.575442 -0.124828
C23   C     C_R   0.924702 0.109240 0.575053 -0.123198
C24   C     C_R   0.317959 0.359029 0.583850 -0.170909
C25   C     C_R   0.076401 0.891004 0.425816 -0.123810
C26   C     C_R   0.388879 0.599767 0.274366 0.066357
C27   C     C_R   0.610526 0.397665 0.719884 0.069848
C28   C     C_R   0.616012 0.585460 0.738675 0.064923
C29   C     C_R   0.387990 0.403068 0.271718 0.065486
C30   C     C_R   0.881888 0.079088 0.255825 0.069031
C31   C     C_R   0.117164 0.918204 0.742007 0.045722
C32   C     C_R   0.116751 0.082566 0.741192 0.046001
C33   C     C_R   0.884291 0.914116 0.260522 0.036833
C34   C     C_R   0.593045 0.604338 0.784132 -0.000886
C35   C     C_R   0.872349 0.222381 0.580171 -0.164500
C36   C     C_R   0.414807 0.377519 0.235970 -0.000954
C37   C     C_R   0.416475 0.626505 0.240774 -0.000788
C38   C     C_R   0.582177 0.365344 0.747139 -0.001459
C39   C     C_R   0.094867 0.098889 0.789126 0.008604
C40   C     C_R   0.907932 0.894552 0.216793 0.008644
C41   C     C_R   0.902253 0.092110 0.203795 0.004996
C42   C     C_R   0.095620 0.902207 0.790683 0.008566
C43   C     C_R   0.643683 0.596308 0.495023 0.031154
C44   C     C_R   0.355865 0.405176 0.505229 0.031686
C45   C     C_R   0.356055 0.595340 0.505760 0.027649
C46   C     C_R   0.128880 0.777662 0.421814 -0.165991
C47   C     C_R   0.644404 0.405436 0.494647 0.029038
C48   C     C_R   0.110877 0.142361 0.496238 0.027012
C49   C     C_R   0.888699 0.857852 0.503394 0.026333
C50   C     C_R   0.889062 0.142923 0.502908 0.023670
C51   C     C_R   0.112368 0.857758 0.498458 0.026256
C52   C     C_R   0.216138 0.616211 0.445696 -0.177801
C53   C     C_R   0.784688 0.383573 0.556939 -0.178474
C54   C     C_R   0.783763 0.618942 0.558085 -0.178507
C55   C     C_R   0.215729 0.381540 0.441337 -0.177458
C56   C     C_R   0.822093 0.291699 0.427342 -0.178945
C57   C     C_R   0.128196 0.221311 0.418736 -0.166963
C58   C     C_R   0.179562 0.709187 0.575472 -0.180618
C59   C     C_R   0.178833 0.289346 0.571439 -0.180374
C60   C     C_R   0.820627 0.710955 0.427662 -0.179590
C61   C     C_R   0.259186 0.595152 0.444009 -0.157865
C62   C     C_R   0.741476 0.404999 0.557845 -0.160384
C63   C     C_R   0.740728 0.597430 0.558985 -0.161323
C64   C     C_R   0.258740 0.403704 0.440924 -0.159342
C65   C     C_R   0.847541 0.239355 0.429868 -0.160672
C66   C     C_R   0.154407 0.761818 0.572713 -0.162783
C67   C     C_R   0.152990 0.237682 0.568939 -0.163122
C68   C     C_R   0.871650 0.778598 0.580761 -0.166392
C69   C     C_R   0.846419 0.762680 0.430229 -0.159958
C70   C     C_R   0.310550 0.609684 0.511921 0.141876
C71   C     C_R   0.690152 0.391111 0.489067 0.141388
C72   C     C_R   0.689306 0.611586 0.489924 0.142008
C73   C     C_R   0.310199 0.390031 0.510347 0.142065
C74   C     C_R   0.870325 0.202738 0.504764 0.143554
C75   C     C_R   0.131380 0.797981 0.497317 0.144987
C76   C     C_R   0.129944 0.201689 0.494084 0.145429
C77   C     C_R   0.869615 0.798498 0.505300 0.145643
C78   C     C_1   0.332779 0.602531 0.235561 0.005083
C79   C     C_R   0.275501 0.661264 0.587079 -0.163367
C80   C     C_1   0.667008 0.398386 0.762479 -0.001340
C81   C     C_1   0.671518 0.575137 0.776760 0.003822
C82   C     C_1   0.331791 0.403131 0.232266 0.004816
C83   C     C_1   0.827395 0.072168 0.227367 -0.020260
C84   C     C_1   0.172212 0.929108 0.777347 0.004996
C85   C     C_1   0.172221 0.073616 0.776984 0.008698
C86   C     C_1   0.828346 0.922246 0.220398 0.010641
C87   C     C_R   0.725690 0.339421 0.414706 -0.162485
C88   C     C_R   0.724424 0.664032 0.415505 -0.166242
C89   C     C_R   0.463738 0.403509 0.275570 -0.158928
C90   C     C_R   0.275080 0.336848 0.584201 -0.164447
C91   C     C_R   0.846898 0.274530 0.577585 -0.163746
C92   C     C_R   0.154019 0.725228 0.424625 -0.163078
C93   C     C_R   0.154082 0.272797 0.421310 -0.164746
C94   C     C_R   0.845852 0.727055 0.578142 -0.164649
C95   C     C_R   0.224110 0.652249 0.514973 0.114831
C96   C     C_R   0.776951 0.347860 0.487531 0.114824
C97   C     C_R   0.775751 0.655074 0.488434 0.115595
C98   C     C_R   0.223794 0.345309 0.510920 0.115260
C99   C     C_R   0.818943 0.307711 0.499477 0.113408
C100  C     C_R   0.464781 0.598719 0.278713 -0.158810
C101  C     C_R   0.182194 0.692457 0.503084 0.114225
C102  C     C_R   0.182098 0.305346 0.499300 0.114842
C103  C     C_R   0.817590 0.694740 0.499968 0.115889
C104  C     C_R   0.397783 0.672978 0.174371 0.140557
C105  C     C_R   0.598457 0.308132 0.795529 0.137479
C106  C     C_R   0.622080 0.632293 0.869858 0.134724
C107  C     C_R   0.394305 0.333935 0.166064 0.139925
C108  C     C_R   0.873791 0.112346 0.110489 0.133087
C109  C     C_R   0.126329 0.879686 0.880723 0.136631
C110  C     C_R   0.124968 0.123088 0.877661 0.135585
C111  C     C_R   0.534170 0.395238 0.713615 -0.157690
C112  C     C_R   0.884696 0.854945 0.142135 0.138643
C113  C     C_R   0.386997 0.712018 0.041016 -0.213947
C114  C     C_R   0.592273 0.233443 0.886199 -0.210761
C115  C     C_R   0.658508 0.631894 0.026058 -0.211826
C116  C     C_R   0.379385 0.300580 0.027716 -0.214645
C117  C     C_R   0.873235 0.168468 0.994995 -0.213414
C118  C     C_R   0.158740 0.884314 0.035708 -0.210268
C119  C     C_R   0.159624 0.118684 0.033391 -0.210495
C120  C     C_R   0.866703 0.824333 0.000870 -0.210992
C121  C     C_R   0.411556 0.672781 0.111507 -0.172538
C122  C     C_R   0.042888 0.081686 0.741300 -0.172728
C123  C     C_R   0.574431 0.286303 0.838364 -0.169333
C124  C     C_R   0.620038 0.612846 0.941710 -0.169834
C125  C     C_R   0.405913 0.336951 0.100701 -0.172738
C126  C     C_R   0.900961 0.141001 0.077336 -0.170037
C127  C     C_R   0.120603 0.899929 0.948554 -0.168246
C128  C     C_R   0.121428 0.101959 0.947398 -0.167544
C129  C     C_R   0.893827 0.860536 0.074213 -0.175533
C130  C     C_R   0.364047 0.716334 0.172169 -0.250184
C131  C     C_R   0.638489 0.274531 0.797586 -0.242816
C132  C     C_R   0.660072 0.672280 0.881593 -0.250487
C133  C     C_R   0.958873 0.914417 0.262573 -0.164483
C134  C     C_R   0.360444 0.290793 0.163028 -0.249013
C135  C     C_R   0.818832 0.107955 0.056186 -0.252691
C136  C     C_R   0.168166 0.842925 0.899781 -0.253763
C137  C     C_R   0.164562 0.162059 0.893558 -0.253509
C138  C     C_R   0.852471 0.810416 0.140659 -0.247537
C139  C     C_R   0.337066 0.754444 0.099970 0.076544
C140  C     C_R   0.661255 0.225069 0.853424 0.075122
C141  C     C_R   0.702987 0.684114 0.965046 0.083337
C142  C     C_R   0.331843 0.255258 0.088968 0.076952
C143  C     C_R   0.789854 0.143254 0.980251 0.074677
C144  C     C_R   0.955705 0.078675 0.256094 -0.173042
C145  C     C_R   0.210494 0.835904 0.985421 0.086799
C146  C     C_R   0.207246 0.170933 0.978352 0.086222
C147  C     C_R   0.823786 0.774725 0.067253 0.077613
C148  C     C_R   0.347550 0.750157 0.032059 0.193393
C149  C     C_R   0.636493 0.203865 0.896472 0.186505
C150  C     C_R   0.700696 0.666682 0.038359 0.189877
C151  C     C_R   0.340425 0.262208 0.019220 0.193558
C152  C     C_R   0.818047 0.172386 0.948451 0.190703
C153  C     C_R   0.204243 0.852657 0.054683 0.185527
C154  C     C_R   0.203153 0.152566 0.049439 0.186114
C155  C     C_R   0.043237 0.918691 0.741976 -0.171697
C156  C     C_R   0.830043 0.783348 0.995303 0.189993
C157  C     C_R   0.295332 0.790933 0.088284 0.068748
C158  C     C_R   0.710468 0.199987 0.874323 0.070362
C159  C     C_R   0.747786 0.713005 0.976601 0.070457
C160  C     C_R   0.291062 0.217999 0.078488 0.068605
C161  C     C_R   0.735087 0.155981 0.941671 0.067651
C162  C     C_R   0.258463 0.811842 0.002877 0.072469
C163  C     C_R   0.253648 0.197696 0.993349 0.072534
C164  C     C_R   0.785332 0.735159 0.060338 0.071777
C165  C     C_R   0.644155 0.581331 0.569983 -0.132886
C166  C     C_R   0.318388 0.640225 0.585442 -0.172171
C167  C     C_R   0.355453 0.420041 0.430341 -0.129651
C168  C     C_R   0.355289 0.580053 0.430696 -0.128893
C169  C     C_R   0.644868 0.420389 0.569451 -0.131335
C170  C     C_R   0.124832 0.109303 0.570885 -0.124317
C171  C     C_R   0.874809 0.890990 0.428905 -0.123782
C172  C     C_R   0.875393 0.110063 0.428722 -0.120865
C173  C     C_R   0.125555 0.890731 0.572243 -0.124349
C174  C     C_R   0.738292 0.221326 0.836585 -0.195673
C175  C     C_R   0.287905 0.805510 0.157364 -0.200461
C176  C     C_R   0.285587 0.201347 0.149074 -0.200282
H1    H     H_    0.513979 0.586785 0.759122 0.102203
H2    H     H_    0.355807 0.715993 0.223497 0.127195
H3    H     H_    0.353767 0.289213 0.216088 0.126074
H4    H     H_    0.657138 0.690543 0.823624 0.124011
H5    H     H_    0.168549 0.822833 0.845741 0.119642
H6    H     H_    0.799011 0.078129 0.074584 0.135286
H7    H     H_    0.847745 0.807147 0.195697 0.118650
H8    H     H_    0.162982 0.182216 0.837700 0.119080
H9    H     H_    0.542389 0.310226 0.835902 0.114028
H10   H     H_    0.438841 0.640170 0.113959 0.116615
H11   H     H_    0.433117 0.369532 0.103594 0.116943
H12   H     H_    0.493295 0.397186 0.259569 0.102533
H13   H     H_    0.590392 0.581634 0.933050 0.118137
H14   H     H_    0.087948 0.928548 0.934555 0.112844
H15   H     H_    0.943490 0.144032 0.115948 0.115116
H16   H     H_    0.920030 0.894195 0.076330 0.118622
H17   H     H_    0.090590 0.071566 0.935768 0.113911
H18   H     H_    0.395910 0.709378 0.990299 0.123463
H19   H     H_    0.573279 0.217401 0.919154 0.124497
H20   H     H_    0.656795 0.617177 0.081716 0.123468
H21   H     H_    0.386804 0.305253 0.975439 0.122152
H22   H     H_    0.895066 0.190827 0.971142 0.122747
H23   H     H_    0.494870 0.605872 0.264252 0.102626
H24   H     H_    0.153861 0.898941 0.088093 0.121441
H25   H     H_    0.156531 0.102996 0.087286 0.121575
H26   H     H_    0.872338 0.830403 0.946809 0.123497
H27   H     H_    0.721166 0.250971 0.780940 0.134753
H28   H     H_    0.316894 0.794563 0.225045 0.134090
H29   H     H_    0.315029 0.211603 0.216458 0.133906
H30   H     H_    0.732913 0.697195 0.845150 0.139020
H31   H     H_    0.246665 0.829823 0.873970 0.141314
H32   H     H_    0.719933 0.094854 0.020621 0.142985
H33   H     H_    0.812161 0.729201 0.199933 0.127728
H34   H     H_    0.502773 0.383421 0.723027 0.102813
H35   H     H_    0.240081 0.182910 0.862622 0.138021
H36   H     H_    0.678554 0.578281 0.635517 0.106057
H37   H     H_    0.320835 0.424774 0.365385 0.107007
H38   H     H_    0.320430 0.574868 0.366261 0.107336
H39   H     H_    0.679664 0.425844 0.633841 0.107765
H40   H     H_    0.152253 0.122480 0.637368 0.103435
H41   H     H_    0.847054 0.878206 0.362370 0.106452
H42   H     H_    0.848544 0.124322 0.362358 0.112105
H43   H     H_    0.152822 0.877537 0.639194 0.103048
H44   H     H_    0.583643 0.579107 0.356741 0.085774
H45   H     H_    0.016660 0.079441 0.765026 0.099610
H46   H     H_    0.416336 0.421707 0.643463 0.086911
H47   H     H_    0.417740 0.579862 0.644371 0.087769
H48   H     H_    0.583209 0.421483 0.356253 0.085937
H49   H     H_    0.055254 0.121896 0.356009 0.096188
H50   H     H_    0.944113 0.878107 0.643624 0.097209
H51   H     H_    0.943957 0.121556 0.643089 0.097038
H52   H     H_    0.058143 0.878466 0.358186 0.094573
H53   H     H_    0.176736 0.608085 0.389999 0.116643
H54   H     H_    0.823985 0.391263 0.613203 0.115920
H55   H     H_    0.823114 0.610816 0.614403 0.116005
H56   H     H_    0.986024 0.913490 0.240699 0.097740
H57   H     H_    0.176399 0.389284 0.384748 0.116331
H58   H     H_    0.801430 0.317230 0.366879 0.118682
H59   H     H_    0.200441 0.684005 0.636247 0.117315
H60   H     H_    0.199525 0.314399 0.631797 0.116972
H61   H     H_    0.799752 0.686081 0.367142 0.111448
H62   H     H_    0.252042 0.569567 0.388086 0.108629
H63   H     H_    0.748462 0.430336 0.613865 0.109021
H64   H     H_    0.747854 0.571621 0.615051 0.109236
H65   H     H_    0.251562 0.429525 0.384847 0.108623
H66   H     H_    0.847184 0.226422 0.371844 0.115384
H67   H     H_    0.982378 0.075069 0.233386 0.099023
H68   H     H_    0.155127 0.775273 0.630870 0.109818
H69   H     H_    0.153202 0.224745 0.626959 0.109243
H70   H     H_    0.846035 0.775808 0.372116 0.105565
H71   H     H_    0.357602 0.651558 0.639034 0.111565
H72   H     H_    0.643473 0.349923 0.361366 0.111883
H73   H     H_    0.642247 0.653496 0.361907 0.111929
H74   H     H_    0.357234 0.348277 0.638496 0.109367
H75   H     H_    0.889997 0.195491 0.639185 0.107992
H76   H     H_    0.111026 0.804139 0.362399 0.108000
H77   H     H_    0.110365 0.194831 0.359823 0.107159
H78   H     H_    0.016919 0.921160 0.765521 0.099306
H79   H     H_    0.889627 0.804897 0.639850 0.108202
H80   H     H_    0.844708 0.285461 0.633975 0.115188
H81   H     H_    0.155827 0.713758 0.368035 0.117403
H82   H     H_    0.156375 0.283743 0.364943 0.116805
H83   H     H_    0.843754 0.715949 0.634653 0.115580
H84   H     H_    0.282908 0.689499 0.640926 0.115591
H85   H     H_    0.718463 0.311433 0.360735 0.118249
H86   H     H_    0.716990 0.692328 0.361332 0.116747
H87   H     H_    0.282554 0.308473 0.638325 0.114570
H88   H     H_    0.811984 0.227905 0.845897 0.131587
H89   H     H_    0.652046 0.288483 0.756250 0.124563
H90   H     H_    0.239784 0.849956 0.195197 0.132637
H91   H     H_    0.240633 0.154048 0.190307 0.132653
H92   H     H_    0.803264 0.757512 0.862802 0.132435
H93   H     H_    0.324087 0.778756 0.901650 0.131762
H94   H     H_    0.637489 0.136625 0.982486 0.135912
H95   H     H_    0.740234 0.670126 0.179470 0.126598
H96   H     H_    0.314809 0.237223 0.886869 0.130403
N1    N     N_R   0.532910 0.558440 0.665240 -0.046463
N2    N     N_R   0.402970 0.441090 0.454460 -0.040715
N3    N     N_R   0.402970 0.558910 0.454460 -0.041708
N4    N     N_R   0.597030 0.441090 0.545540 -0.041185
N5    N     N_R   0.097030 0.058910 0.545540 -0.040358
N6    N     N_R   0.902970 0.941090 0.454460 -0.040219
N7    N     N_R   0.902970 0.058910 0.454460 -0.040486
N8    N     N_R   0.097030 0.941090 0.545540 -0.040399
N9    N     N_R   0.566200 0.559270 0.454460 -0.037315
N10   N     N_R   0.433800 0.440730 0.545540 -0.037004
N11   N     N_R   0.433800 0.559270 0.545540 -0.038077
N12   N     N_R   0.467090 0.441560 0.334760 -0.046799
N13   N     N_R   0.566200 0.440730 0.454460 -0.037656
N14   N     N_R   0.066200 0.059270 0.454460 -0.041212
N15   N     N_R   0.933800 0.940730 0.545540 -0.041171
N16   N     N_R   0.933800 0.059270 0.545540 -0.041459
N17   N     N_R   0.066200 0.940730 0.454460 -0.041405
N18   N     N_R   0.421050 0.559750 0.334770 -0.060888
N19   N     N_R   0.578950 0.440250 0.665230 -0.059832
N20   N     N_R   0.578950 0.559750 0.665230 -0.060328
N21   N     N_R   0.421050 0.440250 0.334770 -0.060637
N22   N     N_R   0.921050 0.059750 0.334770 -0.059565
N23   N     N_R   0.467090 0.558440 0.334760 -0.047118
N24   N     N_R   0.078950 0.940250 0.665230 -0.057862
N25   N     N_R   0.078950 0.059750 0.665230 -0.057892
N26   N     N_R   0.921050 0.940250 0.334770 -0.057459
N27   N     N_1   0.287584 0.604925 0.203410 -0.090835
N28   N     N_1   0.712450 0.398890 0.797608 -0.091262
N29   N     N_1   0.716133 0.566712 0.807952 -0.092877
N30   N     N_1   0.286523 0.403061 0.199634 -0.091136
N31   N     N_1   0.783688 0.066757 0.205262 -0.090768
N32   N     N_1   0.216426 0.937410 0.805531 -0.081098
N33   N     N_1   0.216808 0.067136 0.805779 -0.079619
N34   N     N_R   0.532910 0.441560 0.665240 -0.047207
N35   N     N_1   0.783374 0.928415 0.187938 -0.078553
N36   N     N_R   0.032910 0.058440 0.665240 -0.043748
N37   N     N_R   0.967090 0.941560 0.334760 -0.043712
N38   N     N_R   0.967090 0.058440 0.334760 -0.045330
N39   N     N_R   0.032910 0.941560 0.665240 -0.043956
N40   N     N_R   0.597030 0.558910 0.545540 -0.040193
Ni1   Ni    Ni4+2 0.483090 0.500000 0.604440 0.203765
Ni2   Ni    Ni4+2 0.516910 0.500000 0.395560 0.203723
Ni3   Ni    Ni4+2 0.983090 0.000000 0.604440 0.205984
Ni4   Ni    Ni4+2 0.016910 0.000000 0.395560 0.205548
Ni5   Ni    Ni4+2 0.586780 0.500000 0.604440 0.223058
Ni6   Ni    Ni4+2 0.413220 0.500000 0.395560 0.220581
Ni7   Ni    Ni4+2 0.086780 0.000000 0.604440 0.234950
Ni8   Ni    Ni4+2 0.913220 0.000000 0.395560 0.235880

loop_
_geom_bond_atom_site_label_1
_geom_bond_atom_site_label_2
_ccdc_geom_bond_type
C36   C89   A    
C111  N34   A    
C3    C159  A    
C31   C42   A    
N2    N10   A    
C10   C154  A    
C105  C131  A    
C137  H8    S    
N38   Ni4   S    
C106  C132  A    
C57   C76   A    
C42   C109  S    
C147  C164  A    
C54   C63   A    
C129  H16   S    
N18   Ni6   S    
C105  C123  A    
C118  C153  A    
C131  C140  A    
C168  N3    A    
C158  C174  A    
N14   Ni4   S    
C136  H5    S    
C1    C34   A    
C134  H3    S    
C4    C12   A    
C60   C103  A    
C117  C126  A    
N25   N36   A    
C88   C97   A    
C21   C48   A    
C119  C128  A    
C100  N23   A    
C124  H13   S    
N4    N13   A    
C127  H14   S    
N6    N15   A    
C34   C106  S    
C160  C163  A    
C112  C138  A    
C137  C146  A    
C12   H93   S    
C28   N20   A    
C58   H59   S    
C64   H65   S    
C98   C102  S    
C7    C163  A    
C62   H63   S    
C24   C90   A    
C5    C161  A    
C142  C151  A    
C123  H9    S    
C17   C43   A    
C18   C44   A    
C146  C154  A    
C20   H48   S    
C58   C101  A    
C47   C71   S    
C97   C103  S    
C22   C49   A    
N17   Ni4   S    
C89   H12   S    
N20   Ni5   S    
C172  H42   S    
C31   N24   A    
C68   C77   A    
C59   C102  A    
C26   N18   A    
C81   N29   T    
C37   C104  S    
C131  H89   S    
C13   C72   A    
C83   N31   T    
C13   H73   S    
N8    N17   A    
C52   C61   A    
C29   C82   S    
C116  H21   S    
C14   C149  A    
C16   C151  A    
C20   C47   A    
C3    C11   A    
C31   C84   S    
C170  H40   S    
C139  C157  A    
C106  C124  A    
C108  C126  A    
C157  C162  A    
C143  C161  A    
C143  C152  A    
N1    Ni1   S    
C115  H20   S    
C96   C99   S    
N39   Ni3   S    
C120  H26   S    
C113  H18   S    
C48   C76   S    
C69   C77   A    
N9    N40   A    
C118  H24   S    
C92   H81   S    
C88   H86   S    
C40   C112  S    
C26   C78   S    
C39   C122  A    
C113  C148  A    
C8    C152  A    
C175  H28   S    
C107  C134  A    
C50   C74   S    
C8    C174  A    
C52   H53   S    
C32   C85   S    
N3    Ni6   S    
C30   C83   S    
C55   C98   A    
N15   Ni3   S    
C59   C67   A    
C84   N32   T    
C141  C159  A    
N22   N38   A    
C64   C73   A    
C30   C41   A    
N3    N11   A    
C21   N14   A    
C53   H54   S    
C173  N8    A    
C23   N16   A    
C135  C143  A    
C9    C153  A    
C87   C96   A    
C122  N36   A    
C56   H58   S    
C44   C73   S    
C169  N4    A    
C46   C75   A    
C47   C169  A    
C109  C127  A    
C141  C150  A    
N22   Ni8   S    
C169  H39   S    
C139  C148  A    
C33   C40   A    
C120  C129  A    
C128  H17   S    
C107  C125  A    
C108  C135  A    
C27   C80   S    
C29   N21   A    
C68   C94   A    
C65   C74   A    
N36   Ni3   S    
N24   N39   A    
N19   N34   A    
C2    C87   A    
C132  H4    S    
C114  C123  A    
N7    Ni8   S    
C116  C125  A    
C112  C129  A    
C8    H88   S    
C118  C127  A    
C167  H37   S    
C132  C141  A    
C89   N12   A    
C7    H35   S    
C19   C45   A    
C165  H36   S    
C22   H50   S    
C125  H11   S    
C38   C105  S    
C24   H74   S    
C133  H56   S    
C67   H69   S    
C68   H79   S    
C60   C69   A    
C49   C77   S    
C62   C71   A    
C9    C175  A    
C20   N13   A    
C57   H77   S    
C45   C168  A    
C172  N7    A    
C22   N15   A    
C19   N11   A    
C113  C121  A    
N13   Ni2   S    
N9    Ni2   S    
C110  C128  A    
N25   Ni7   S    
C159  C164  A    
C50   C172  A    
C60   H61   S    
N16   Ni3   S    
C27   N19   A    
C140  C149  A    
C116  C151  A    
C117  H22   S    
C95   C101  S    
C61   C70   A    
C35   C74   A    
C146  C163  A    
C6    H33   S    
C61   H62   S    
C155  H78   S    
C24   C73   A    
C46   C92   A    
C27   C38   A    
C120  C156  A    
C52   C95   A    
C32   C39   A    
N4    Ni5   S    
C2    H72   S    
C130  H2    S    
C158  C161  A    
C121  H10   S    
C54   C97   A    
C87   H85   S    
C17   N9    A    
C28   C34   A    
C104  C130  A    
C53   C96   A    
C130  C139  A    
C167  N2    A    
C133  N37   A    
C16   H96   S    
C43   C165  A    
C114  H19   S    
C19   H47   S    
C41   C144  A    
N11   Ni1   S    
C63   H64   S    
C23   C50   A    
N23   Ni2   S    
C44   C167  A    
C176  H29   S    
C79   C95   A    
C134  C142  A    
C35   H75   S    
C147  C156  A    
C5    C14   A    
C171  H41   S    
C171  N6    A    
C92   C101  A    
C48   C170  A    
C33   N26   A    
C86   N35   T    
C6    C164  A    
C94   C103  A    
N8    Ni7   S    
C4    C162  A    
C79   H84   S    
N26   Ni8   S    
C30   N22   A    
C4    H31   S    
N5    N14   A    
C115  C124  A    
C45   C70   S    
N34   Ni1   S    
C110  C137  A    
C93   C102  A    
C14   H94   S    
C26   C37   A    
N12   Ni2   S    
C9    H90   S    
C42   C155  A    
C5    H32   S    
C66   H68   S    
C66   C75   A    
C144  N38   A    
C126  H15   S    
C18   H46   S    
N10   Ni1   S    
C111  H34   S    
C93   H82   S    
C69   H70   S    
C63   C72   A    
C91   H80   S    
C114  C149  A    
C15   C150  A    
C43   C72   S    
C41   C108  S    
C59   H60   S    
C119  H25   S    
N21   Ni6   S    
C29   C36   A    
N24   Ni7   S    
C166  H71   S    
C51   C75   S    
C70   C166  A    
N26   N37   A    
C145  C162  A    
C168  H38   S    
C56   C65   A    
C144  H67   S    
C13   C88   A    
C51   C173  A    
C170  N5    A    
C6    C15   A    
C1    H1    S    
C58   C66   A    
C39   C110  S    
C122  H45   S    
N1    N20   A    
C1    N1    A    
C136  C145  A    
C140  C158  A    
C57   C93   A    
C36   C107  S    
C160  C176  A    
C55   H57   S    
C15   H95   S    
N37   Ni4   S    
C10   C176  A    
C155  N39   A    
C10   H91   S    
N18   N23   A    
C49   C171  A    
N2    Ni6   S    
C104  C121  A    
C165  N40   A    
C25   N17   A    
C33   C86   S    
C25   C51   A    
C138  H7    S    
C53   C62   A    
C94   H83   S    
C18   N10   A    
C138  C147  A    
C11   H92   S    
C55   C64   A    
N19   Ni5   S    
C90   H87   S    
C17   H44   S    
C46   H76   S    
C11   C156  A    
C157  C175  A    
C78   N27   T    
C54   H55   S    
C85   N33   T    
C7    C16   A    
C28   C81   S    
C3    H30   S    
C142  C160  A    
C23   H51   S    
C32   N25   A    
C119  C154  A    
C21   H49   S    
C40   C133  A    
C25   H52   S    
C56   C99   A    
C91   C99   A    
N7    N16   A    
C12   C148  A    
C65   H66   S    
C145  C153  A    
N12   N21   A    
C115  C150  A    
C174  H27   S    
C117  C152  A    
C37   C100  A    
C79   C166  A    
C173  H43   S    
N5    Ni7   S    
C80   N28   T    
N6    Ni8   S    
C100  H23   S    
C82   N30   T    
N40   Ni5   S    
C67   C76   A    
C135  H6    S    
C38   C111  A    
C90   C98   A    
C2    C71   A    
C109  C136  A    
C35   C91   A    
