data_mof_unit_54316.cif
_audit_creation_date              2012-10-26T20:58:56-0400
_audit_creation_method            fapswitch 2.2
_symmetry_space_group_name_H-M    P1
_symmetry_Int_Tables_number       1
_space_group_crystal_system       triclinic
_cell_length_a                    27.82725
_cell_length_b                    10.601463
_cell_length_c                    9.433997
_cell_angle_alpha                 90.669569
_cell_angle_beta                  90.031398
_cell_angle_gamma                 89.841997
_cell_volume                      2782.9183252

loop_
_atom_site_label
_atom_site_type_symbol
_atom_type_description
_atom_site_fract_x
_atom_site_fract_y
_atom_site_fract_z
_atom_type_partial_charge
C1    C     C_R   0.499972 0.259478 0.499239 0.554183
C2    C     C_R   0.872897 0.377082 0.525929 0.018785
C3    C     C_R   0.354633 0.503004 0.500919 0.003540
C4    C     C_R   0.645367 0.496996 0.499081 0.003540
C5    C     C_R   0.975577 0.385628 0.530466 -0.001489
C6    C     C_R   0.024423 0.614372 0.469534 -0.001489
C7    C     C_R   0.973294 0.608424 0.461197 0.020613
C8    C     C_R   0.026706 0.391576 0.538803 0.020614
C9    C     C_R   0.949061 0.494576 0.495260 0.030921
C10   C     C_R   0.050939 0.505424 0.504740 0.030921
C11   C     C_R   0.950311 0.272204 0.551822 -0.116524
C12   C     C_R   0.500028 0.740522 0.500761 0.554183
C13   C     C_R   0.049689 0.727796 0.448178 -0.116524
C14   C     C_R   0.899886 0.265093 0.552620 0.009885
C15   C     C_R   0.100113 0.734907 0.447380 0.009885
C16   C     C_R   0.407557 0.500685 0.500073 0.544701
C17   C     C_R   0.592443 0.499315 0.499927 0.544702
C18   C     C_R   0.054655 0.287911 0.584051 -0.148858
C19   C     C_R   0.945345 0.712089 0.415948 -0.148858
C20   C     C_3   0.539996 0.042959 0.563827 -0.126394
C21   C     C_3   0.460004 0.957041 0.436173 -0.126394
C22   C     C_3   0.538934 0.956630 0.430601 -0.125028
C23   C     C_R   0.102113 0.510216 0.507496 -0.037380
C24   C     C_3   0.461066 0.043370 0.569399 -0.125028
C25   C     C_3   0.500063 0.877492 0.501948 0.046341
C26   C     C_3   0.499937 0.122508 0.498052 0.046341
C27   C     C_3   0.501133 0.961516 0.635259 -0.117343
C28   C     C_3   0.498867 0.038484 0.364741 -0.117343
C29   C     C_3   0.523397 0.596879 0.052420 -0.003278
C30   C     C_3   0.476603 0.403121 0.947580 -0.003278
C31   C     C_3   0.480153 0.599016 0.952827 0.238678
C32   C     C_3   0.519847 0.400983 0.047173 0.238678
C33   C     C_3   0.543720 0.495515 0.949285 -0.020522
C34   C     C_R   0.897886 0.489784 0.492504 -0.037380
C35   C     C_3   0.456280 0.504485 0.050715 -0.020522
C36   C     C_R   0.178558 0.403238 0.542589 0.394089
C37   C     C_R   0.821442 0.596761 0.457411 0.394089
C38   C     C_R   0.178313 0.618285 0.471819 0.388081
C39   C     C_R   0.821687 0.381715 0.528182 0.388081
C40   C     C_R   0.279431 0.505103 0.631452 -0.058697
C41   C     C_R   0.720569 0.494897 0.368548 -0.058697
C42   C     C_R   0.329494 0.502409 0.630201 -0.149636
C43   C     C_R   0.670506 0.497591 0.369799 -0.149636
C44   C     C_R   0.328710 0.506733 0.373058 -0.147106
C45   C     C_R   0.128380 0.401270 0.544456 0.026417
C46   C     C_R   0.671290 0.493267 0.626942 -0.147106
C47   C     C_R   0.278593 0.509560 0.374662 -0.057425
C48   C     C_R   0.721407 0.490440 0.625338 -0.057425
C49   C     C_R   0.253831 0.508594 0.503816 0.250163
C50   C     C_R   0.746169 0.491406 0.496184 0.250163
C51   C     C_3   0.445493 0.807195 0.997723 -0.336406
C52   C     C_3   0.554507 0.192805 0.002276 -0.336406
C53   C     C_3   0.875294 0.138188 0.579430 -0.236786
C54   C     C_3   0.907553 0.022206 0.598445 -0.471326
C55   C     C_3   0.124706 0.861812 0.420570 -0.236786
C56   C     C_R   0.871620 0.598730 0.455544 0.026417
C57   C     C_3   0.092447 0.977794 0.401555 -0.471326
C58   C     C_R   0.104281 0.292346 0.584689 -0.122147
C59   C     C_R   0.895719 0.707654 0.415311 -0.122146
C60   C     C_R   0.127103 0.622918 0.474071 0.018785
Cu1   Cu    Cu3+1 0.500010 0.499990 0.643150 0.935763
Cu2   Cu    Cu3+1 0.499990 0.500010 0.356850 0.935762
H1    H     H_    0.347064 0.507507 0.271918 0.118125
H2    H     H_    0.419701 0.510606 0.097040 0.096944
H3    H     H_    0.258936 0.511971 0.275633 0.125863
H4    H     H_    0.741064 0.488029 0.724367 0.125863
H5    H     H_    0.123783 0.209239 0.618253 0.161672
H6    H     H_    0.876217 0.790761 0.381747 0.161672
H7    H     H_    0.651564 0.500159 0.269543 0.121580
H8    H     H_    0.348436 0.499841 0.730457 0.121580
H9    H     H_    0.739558 0.495472 0.268394 0.125466
H10   H     H_    0.260442 0.504528 0.731606 0.125466
H11   H     H_    0.969793 0.186248 0.564388 0.114963
H12   H     H_    0.652936 0.492493 0.728082 0.118125
H13   H     H_    0.030207 0.813752 0.435612 0.114963
H14   H     H_    0.039641 0.201611 0.622994 0.099182
H15   H     H_    0.960359 0.798389 0.377006 0.099181
H16   H     H_    0.570769 0.917869 0.373954 0.114971
H17   H     H_    0.429231 0.082131 0.626046 0.114971
H18   H     H_    0.428852 0.687661 0.828779 0.265232
H19   H     H_    0.429261 0.888954 0.942684 0.138218
H20   H     H_    0.478487 0.840184 0.052949 0.148073
H21   H     H_    0.419386 0.771340 0.076639 0.142075
H22   H     H_    0.571148 0.312339 0.171221 0.265232
H23   H     H_    0.572677 0.081492 0.615971 0.114840
H24   H     H_    0.570739 0.111046 0.057316 0.138218
H25   H     H_    0.580614 0.228660 0.923361 0.142075
H26   H     H_    0.521513 0.159816 0.947051 0.148073
H27   H     H_    0.929408 0.004407 0.501738 0.139920
H28   H     H_    0.931161 0.034214 0.692600 0.150907
H29   H     H_    0.884740 0.938035 0.616023 0.164912
H30   H     H_    0.853499 0.146929 0.677701 0.199792
H31   H     H_    0.851372 0.116194 0.488117 0.199461
H32   H     H_    0.068839 0.965786 0.307400 0.150907
H33   H     H_    0.070592 0.995593 0.498262 0.139920
H34   H     H_    0.427323 0.918508 0.384029 0.114840
H35   H     H_    0.115260 0.061965 0.383977 0.164912
H36   H     H_    0.148628 0.883806 0.511883 0.199461
H37   H     H_    0.146501 0.853071 0.322299 0.199792
H38   H     H_    0.502209 0.927656 0.746105 0.139989
H39   H     H_    0.497791 0.072344 0.253895 0.139989
H40   H     H_    0.542670 0.678018 0.101215 0.100291
H41   H     H_    0.457330 0.321981 0.898785 0.100291
H42   H     H_    0.580299 0.489394 0.902960 0.096944
N1    N     N_R   0.202276 0.509981 0.505546 -0.393232
N2    N     N_R   0.797724 0.490019 0.494454 -0.393232
N3    N     N_3   0.500040 0.499970 0.858290 -0.239263
N4    N     N_3   0.499960 0.500030 0.141710 -0.239263
N5    N     N_2   0.457164 0.709605 0.895017 -0.495167
N6    N     N_2   0.542836 0.290395 0.104983 -0.495167
O1    O     O_R   0.500020 0.316850 0.620870 -0.511658
O2    O     O_2   0.796320 0.701440 0.423851 -0.504520
O3    O     O_2   0.795504 0.280145 0.563446 -0.526479
O4    O     O_2   0.204496 0.719855 0.436554 -0.526479
O5    O     O_R   0.499980 0.683150 0.379130 -0.511658
O6    O     O_R   0.500000 0.316860 0.379090 -0.477567
O7    O     O_R   0.500000 0.683140 0.620910 -0.477567
O8    O     O_R   0.430270 0.500020 0.620880 -0.513848
O9    O     O_R   0.569730 0.499980 0.379120 -0.513849
O10   O     O_R   0.430250 0.500030 0.379090 -0.506561
O11   O     O_R   0.569750 0.499970 0.620910 -0.506561
O12   O     O_2   0.203680 0.298560 0.576149 -0.504519

loop_
_geom_bond_atom_site_label_1
_geom_bond_atom_site_label_2
_ccdc_geom_bond_type
C39   N2    A    
C3    C42   A    
C34   C56   A    
C23   C45   A    
C30   N3    S    
C33   H42   S    
C15   C60   A    
C33   N3    S    
C24   C27   S    
C47   C49   A    
C4    C46   A    
C53   C54   S    
Cu2   O6    S    
C32   N6    S    
C30   C35   S    
C24   C26   S    
C54   H28   S    
C16   O10   A    
C38   O4    S    
C11   C14   A    
Cu2   N4    S    
C40   C49   A    
C29   C33   S    
C42   H8    S    
Cu2   O5    S    
Cu1   O11   S    
C19   H15   S    
C37   O2    S    
C35   N4    S    
C37   C56   A    
C2    C39   A    
C18   C58   A    
C13   H13   S    
C39   O3    S    
C22   C25   S    
C30   H41   S    
C29   N4    S    
C35   H2    S    
C1    O6    A    
C51   H19   S    
Cu2   O10   S    
C44   C47   A    
C41   H9    S    
C12   O5    A    
C2    C34   A    
C40   C42   A    
C36   N1    A    
C51   N5    S    
C22   C28   S    
C41   C43   A    
C2    C14   A    
C28   H39   S    
C44   H1    S    
C23   C60   A    
C27   H38   S    
C46   C48   A    
C3    C44   A    
Cu1   O7    S    
C52   H26   S    
C22   H16   S    
C54   H27   S    
C11   H11   S    
C49   N1    S    
C21   H34   S    
C19   C59   A    
C53   H31   S    
H22   N6    S    
C15   C55   S    
H18   N5    S    
C36   O12   S    
C5    C9    A    
C16   O8    A    
C59   H6    S    
C24   H17   S    
C52   N6    S    
C57   H35   S    
C20   H23   S    
C53   H30   S    
C31   N5    S    
C36   C45   A    
C48   C50   A    
C51   H20   S    
Cu2   O9    S    
C38   C60   A    
C4    C17   S    
C17   O11   A    
C4    C43   A    
C21   C28   S    
C20   C22   S    
C7    C19   A    
C57   H32   S    
C13   C15   A    
C57   H33   S    
C9    C34   A    
C31   C35   S    
C45   C58   A    
Cu1   O1    S    
C51   H21   S    
C41   C50   A    
C46   H12   S    
C7    C9    A    
C21   C25   S    
C18   H14   S    
C40   H10   S    
Cu1   O8    S    
C31   N3    S    
C52   H25   S    
C6    C10   A    
C5    C8    A    
C5    C11   A    
C6    C7    A    
C20   C27   S    
C10   C23   A    
C25   C27   S    
C26   C28   S    
C56   C59   A    
C12   C25   S    
C32   C33   S    
C38   N1    A    
C55   C57   S    
C54   H29   S    
C29   C31   S    
C1    O1    A    
C6    C13   A    
C30   C32   S    
C1    C26   S    
C20   C26   S    
C55   H36   S    
C52   H24   S    
C29   H40   S    
Cu1   Cu2   S    
Cu1   N3    S    
C8    C18   A    
C17   O9    A    
C12   O7    A    
C58   H5    S    
C37   N2    A    
C14   C53   S    
C8    C10   A    
C32   N4    S    
C21   C24   S    
C55   H37   S    
C50   N2    S    
C48   H4    S    
C43   H7    S    
C47   H3    S    
C3    C16   S    
