data_mof_unit_66190.cif
_audit_creation_date              2012-12-10T20:39:10-0500
_audit_creation_method            fapswitch 2.2
_symmetry_space_group_name_H-M    P1
_symmetry_Int_Tables_number       1
_space_group_crystal_system       orthorhombic
_cell_length_a                    28.124955
_cell_length_b                    28.125625
_cell_length_c                    51.392332
_cell_angle_alpha                 90.0
_cell_angle_beta                  90.0
_cell_angle_gamma                 90.0
_cell_volume                      40652.9759532

loop_
_atom_site_label
_atom_site_type_symbol
_atom_type_description
_atom_site_fract_x
_atom_site_fract_y
_atom_site_fract_z
_atom_type_partial_charge
C1    C     C_R   1.000000 0.500000 0.179728 0.834326
C2    C     C_R   0.500000 1.000000 0.986225 -0.065976
C3    C     C_R   0.796990 0.659551 0.766522 -0.150677
C4    C     C_R   0.659546 0.203014 0.233483 -0.150137
C5    C     C_R   0.340453 0.796988 0.766520 -0.150134
C6    C     C_R   0.796982 0.659543 0.233483 -0.150643
C7    C     C_R   0.203010 0.340449 0.766522 -0.150677
C8    C     C_R   0.340454 0.203014 0.766518 -0.150675
C9    C     C_R   0.659547 0.796988 0.233480 -0.150673
C10   C     C_R   0.203018 0.659543 0.766517 -0.150124
C11   C     C_R   0.796989 0.340449 0.233478 -0.150158
C12   C     C_R   0.659546 0.796986 0.766518 -0.150675
C13   C     C_R   1.000000 0.500000 0.013775 -0.065975
C14   C     C_R   0.340452 0.203011 0.233480 -0.150674
C15   C     C_R   0.796982 0.340457 0.766517 -0.150124
C16   C     C_R   0.203010 0.659551 0.233478 -0.150157
C17   C     C_R   0.840460 0.296980 0.733487 -0.150324
C18   C     C_R   0.159554 0.703005 0.266526 -0.150312
C19   C     C_R   0.703013 0.840452 0.733479 -0.150610
C20   C     C_R   0.296985 0.159547 0.266518 -0.150609
C21   C     C_R   0.159540 0.703020 0.733487 -0.150324
C22   C     C_R   0.840446 0.296995 0.266526 -0.150312
C23   C     C_R   0.296987 0.159548 0.733479 -0.150610
C24   C     C_R   1.000000 0.500000 0.986225 -0.065976
C25   C     C_R   0.703015 0.840453 0.266518 -0.150610
C26   C     C_R   0.840460 0.703020 0.266513 -0.150556
C27   C     C_R   0.159554 0.296995 0.733474 -0.150537
C28   C     C_R   0.703013 0.159548 0.266520 -0.150245
C29   C     C_R   0.296985 0.840454 0.733482 -0.150240
C30   C     C_R   0.159540 0.296980 0.266513 -0.150556
C31   C     C_R   0.840446 0.703005 0.733475 -0.150536
C32   C     C_R   0.296987 0.840452 0.266520 -0.150245
C33   C     C_R   0.703015 0.159546 0.733482 -0.150240
C34   C     C_R   0.375583 0.832063 0.233463 -0.181778
C35   C     C_R   1.000000 0.500000 0.513805 -0.065379
C36   C     C_R   0.624418 0.167936 0.766539 -0.181776
C37   C     C_R   0.167942 0.375586 0.233464 -0.182144
C38   C     C_R   0.832067 0.624422 0.766542 -0.182110
C39   C     C_R   0.624417 0.167937 0.233463 -0.181778
C40   C     C_R   0.375582 0.832064 0.766539 -0.181776
C41   C     C_R   0.832058 0.624414 0.233464 -0.182144
C42   C     C_R   0.167933 0.375577 0.766542 -0.182110
C43   C     C_R   0.375582 0.167936 0.766538 -0.182133
C44   C     C_R   0.624418 0.832065 0.233461 -0.182133
C45   C     C_R   0.167942 0.624414 0.766536 -0.181793
C46   C     C_R   1.000000 0.500000 0.486195 -0.065352
C47   C     C_R   0.832067 0.375578 0.233458 -0.181763
C48   C     C_R   0.624417 0.832063 0.766538 -0.182133
C49   C     C_R   0.375582 0.167935 0.233461 -0.182132
C50   C     C_R   0.832058 0.375586 0.766536 -0.181793
C51   C     C_R   0.167933 0.624422 0.233458 -0.181764
C52   C     C_R   0.875588 0.332057 0.733467 -0.181684
C53   C     C_R   0.124425 0.667928 0.266544 -0.182151
C54   C     C_R   0.667937 0.875581 0.733460 -0.182121
C55   C     C_R   0.332062 0.124418 0.266538 -0.182127
C56   C     C_R   0.124411 0.667943 0.733467 -0.181683
C57   C     C_R   0.500000 1.000000 0.513775 -0.065985
C58   C     C_R   0.875575 0.332071 0.266544 -0.182151
C59   C     C_R   0.332063 0.124419 0.733460 -0.182123
C60   C     C_R   0.667938 0.875582 0.266538 -0.182126
C61   C     C_R   0.875588 0.667943 0.266533 -0.181791
C62   C     C_R   0.124425 0.332072 0.733456 -0.182250
C63   C     C_R   0.667937 0.124418 0.266539 -0.181807
C64   C     C_R   0.332062 0.875582 0.733462 -0.181809
C65   C     C_R   0.124411 0.332057 0.266533 -0.181791
C66   C     C_R   0.875575 0.667928 0.733456 -0.182250
C67   C     C_R   0.332063 0.875582 0.266539 -0.181807
C68   C     C_R   0.500000 1.000000 0.486225 -0.065985
C69   C     C_R   0.667938 0.124418 0.733462 -0.181809
C70   C     C_R   0.371711 0.871711 0.250001 -0.017547
C71   C     C_R   0.628289 0.128288 0.750000 -0.017546
C72   C     C_R   0.128288 0.371711 0.249999 -0.017437
C73   C     C_R   0.871710 0.628287 0.749999 -0.017327
C74   C     C_R   0.628289 0.128289 0.250001 -0.017547
C75   C     C_R   0.371710 0.871712 0.750000 -0.017546
C76   C     C_R   0.871711 0.628289 0.249999 -0.017437
C77   C     C_R   0.128290 0.371712 0.749999 -0.017327
C78   C     C_R   0.371711 0.128289 0.749999 -0.017364
C79   C     C_R   0.583874 0.024511 0.013766 0.165341
C80   C     C_R   0.628289 0.871712 0.250000 -0.017364
C81   C     C_R   0.128288 0.628289 0.750001 -0.017573
C82   C     C_R   0.871710 0.371712 0.250001 -0.017461
C83   C     C_R   0.628289 0.871711 0.749999 -0.017365
C84   C     C_R   0.371710 0.128288 0.250000 -0.017363
C85   C     C_R   0.871711 0.371711 0.750001 -0.017573
C86   C     C_R   0.128290 0.628287 0.250001 -0.017461
C87   C     C_R   0.301162 0.801160 0.250002 0.149121
C88   C     C_R   0.698840 0.198837 0.750001 0.149121
C89   C     C_R   0.198837 0.301160 0.249998 0.149319
C90   C     C_R   0.416126 0.975489 0.986234 0.165341
C91   C     C_R   0.801159 0.698836 0.749998 0.149346
C92   C     C_R   0.698837 0.198840 0.250002 0.149121
C93   C     C_R   0.301160 0.801163 0.750001 0.149120
C94   C     C_R   0.801163 0.698840 0.249998 0.149319
C95   C     C_R   0.198841 0.301164 0.749998 0.149347
C96   C     C_R   0.301162 0.198840 0.749998 0.149350
C97   C     C_R   0.698840 0.801163 0.249999 0.149351
C98   C     C_R   0.198837 0.698840 0.750002 0.149131
C99   C     C_R   0.801159 0.301164 0.250002 0.149160
C100  C     C_R   0.698837 0.801160 0.749998 0.149351
C101  C     C_R   0.024481 0.583881 0.013766 0.165340
C102  C     C_R   0.301160 0.198837 0.249999 0.149351
C103  C     C_R   0.801163 0.301160 0.750002 0.149131
C104  C     C_R   0.198841 0.698836 0.250002 0.149160
C105  C     C_1   0.265116 0.765113 0.250002 -0.045920
C106  C     C_1   0.734886 0.234884 0.750002 -0.045915
C107  C     C_1   0.234884 0.265113 0.249998 -0.046391
C108  C     C_1   0.765113 0.734883 0.749998 -0.046429
C109  C     C_1   0.734884 0.234887 0.250002 -0.045920
C110  C     C_1   0.265113 0.765116 0.750002 -0.045915
C111  C     C_1   0.765116 0.734887 0.249998 -0.046391
C112  C     C_R   1.000000 0.500000 0.820272 0.834325
C113  C     C_R   0.975519 0.416119 0.986234 0.165341
C114  C     C_1   0.234887 0.265117 0.749998 -0.046429
C115  C     C_1   0.265116 0.234887 0.749998 -0.046427
C116  C     C_1   0.734887 0.765116 0.249998 -0.046426
C117  C     C_1   0.234884 0.734887 0.750002 -0.045912
C118  C     C_1   0.765113 0.265117 0.250002 -0.045954
C119  C     C_1   0.734884 0.765113 0.749998 -0.046427
C120  C     C_1   0.265113 0.234884 0.249998 -0.046426
C121  C     C_1   0.765116 0.265113 0.750002 -0.045911
C122  C     C_1   0.234887 0.734883 0.250002 -0.045955
C123  C     C_R   0.457986 0.995495 0.055011 0.599318
C124  C     C_R   0.416126 0.975489 0.013766 0.165342
C125  C     C_R   0.542014 0.004504 0.944989 0.599316
C126  C     C_R   0.995510 0.457986 0.055011 0.599316
C127  C     C_R   0.004489 0.542014 0.944989 0.599317
C128  C     C_R   0.542014 0.004504 0.055011 0.599317
C129  C     C_R   0.457986 0.995496 0.944989 0.599317
C130  C     C_R   0.004490 0.542014 0.055011 0.599317
C131  C     C_R   0.995511 0.457985 0.944989 0.599317
C132  C     C_R   0.957836 0.496748 0.555118 0.599031
C133  C     C_R   0.042163 0.496732 0.444882 0.598993
C134  C     C_R   0.495532 0.957983 0.555011 0.599350
C135  C     C_R   0.583874 0.024510 0.986234 0.165341
C136  C     C_R   0.504468 0.042016 0.444989 0.599348
C137  C     C_R   0.042164 0.503252 0.555118 0.599031
C138  C     C_R   0.957837 0.503268 0.444882 0.598993
C139  C     C_R   0.504469 0.042016 0.555011 0.599349
C140  C     C_R   0.495532 0.957983 0.444989 0.599349
C141  C     C_R   0.542677 0.009590 0.027598 -0.104630
C142  C     C_R   0.457323 0.990410 0.972402 -0.104631
C143  C     C_R   0.009575 0.542680 0.027598 -0.104631
C144  C     C_R   0.990425 0.457320 0.972402 -0.104631
C145  C     C_R   0.457323 0.990410 0.027598 -0.104631
C146  C     C_R   0.975519 0.416119 0.013766 0.165341
C147  C     C_R   0.542677 0.009590 0.972402 -0.104630
C148  C     C_R   0.990425 0.457320 0.027598 -0.104631
C149  C     C_R   0.009575 0.542679 0.972402 -0.104631
C150  C     C_R   0.043756 0.499923 0.527640 -0.105932
C151  C     C_R   0.956244 0.499940 0.472360 -0.105976
C152  C     C_R   0.509554 0.042684 0.527598 -0.104607
C153  C     C_R   0.490447 0.957315 0.472402 -0.104608
C154  C     C_R   0.956244 0.500077 0.527640 -0.105932
C155  C     C_R   0.043756 0.500060 0.472360 -0.105976
C156  C     C_R   0.490447 0.957315 0.527598 -0.104607
C157  C     C_R   0.024481 0.583881 0.986234 0.165341
C158  C     C_R   0.509553 0.042684 0.472402 -0.104608
C159  C     C_R   0.087303 0.497931 0.513667 0.166834
C160  C     C_R   0.912696 0.497966 0.486333 0.166805
C161  C     C_R   0.524438 0.083893 0.513766 0.165444
C162  C     C_R   0.475562 0.916106 0.486234 0.165443
C163  C     C_R   0.912696 0.502069 0.513667 0.166833
C164  C     C_R   0.500000 0.000000 0.179728 0.834304
C165  C     C_R   0.087304 0.502035 0.486333 0.166805
C166  C     C_R   0.475563 0.916106 0.513766 0.165444
C167  C     C_R   0.524438 0.083894 0.486234 0.165443
C168  C     C_R   0.995855 0.456997 0.390152 0.191731
C169  C     C_R   0.995867 0.543005 0.609848 0.191752
C170  C     C_R   0.456798 0.000002 0.390196 0.191168
C171  C     C_R   0.543202 0.999998 0.609804 0.191168
C172  C     C_R   0.004144 0.543003 0.390152 0.191731
C173  C     C_R   0.004133 0.456995 0.609848 0.191753
C174  C     C_R   0.543202 0.999998 0.390196 0.191168
C175  C     C_R   0.500000 0.000000 0.820272 0.834304
C176  C     C_R   0.456798 0.000002 0.609804 0.191170
C177  C     C_R   0.500025 0.956799 0.890196 0.191148
C178  C     C_R   0.499974 0.043201 0.109804 0.191148
C179  C     C_R   0.956798 0.500014 0.890196 0.191150
C180  C     C_R   0.043202 0.499982 0.109804 0.191149
C181  C     C_R   0.499975 0.043201 0.890196 0.191148
C182  C     C_R   0.500026 0.956799 0.109804 0.191147
C183  C     C_R   0.043202 0.499986 0.890196 0.191150
C184  C     C_R   0.956798 0.500017 0.109804 0.191149
C185  C     C_R   0.995990 0.457133 0.362940 -0.228850
C186  C     C_R   0.500000 1.000000 0.679728 0.834339
C187  C     C_R   0.996001 0.542868 0.637060 -0.228826
C188  C     C_R   0.456951 0.000004 0.362978 -0.228506
C189  C     C_R   0.543048 0.999996 0.637022 -0.228505
C190  C     C_R   0.004010 0.542867 0.362940 -0.228850
C191  C     C_R   0.003999 0.457132 0.637060 -0.228825
C192  C     C_R   0.543048 0.999996 0.362978 -0.228507
C193  C     C_R   0.456951 0.000004 0.637022 -0.228506
C194  C     C_R   0.500026 0.956952 0.862978 -0.228523
C195  C     C_R   0.499972 0.043047 0.137022 -0.228523
C196  C     C_R   0.956951 0.500016 0.862978 -0.228524
C197  C     C_R   0.500000 0.000000 0.320272 0.834338
C198  C     C_R   0.043049 0.499981 0.137021 -0.228524
C199  C     C_R   0.499974 0.043047 0.862978 -0.228524
C200  C     C_R   0.500027 0.956952 0.137022 -0.228523
C201  C     C_R   0.043048 0.499984 0.862978 -0.228524
C202  C     C_R   0.956951 0.500019 0.137021 -0.228523
C203  C     C_R   1.000000 0.500000 0.349067 -0.087722
C204  C     C_R   1.000000 0.500000 0.650933 -0.087718
C205  C     C_R   0.500000 0.000000 0.349095 -0.088210
C206  C     C_R   0.500000 1.000000 0.650905 -0.088210
C207  C     C_R   0.500000 1.000000 0.849095 -0.088211
C208  C     C_R   1.000000 0.500000 0.679738 0.834372
C209  C     C_R   0.500000 0.000000 0.150905 -0.088211
C210  C     C_R   1.000000 0.500000 0.849095 -0.088219
C211  C     C_R   1.000000 0.500000 0.150905 -0.088217
C212  C     C_R   1.000000 0.500000 0.403931 0.201426
C213  C     C_R   1.000000 0.500000 0.596069 0.201408
C214  C     C_R   0.500000 0.000000 0.403989 0.200704
C215  C     C_R   0.500000 1.000000 0.596011 0.200702
C216  C     C_R   0.500000 1.000000 0.903989 0.200713
C217  C     C_R   0.500000 1.000000 0.096011 0.200713
C218  C     C_R   1.000000 0.500000 0.903989 0.200713
C219  C     C_R   1.000000 0.500000 0.320262 0.834369
C220  C     C_R   1.000000 0.500000 0.096011 0.200714
C221  C     C_R   0.908792 0.591208 0.250000 0.805702
C222  C     C_R   0.091209 0.408792 0.750000 0.805434
C223  C     C_R   0.408791 0.908792 0.250000 0.805744
C224  C     C_R   0.591208 0.091208 0.750000 0.805745
C225  C     C_R   0.091208 0.408792 0.250000 0.805702
C226  C     C_R   0.908791 0.591208 0.750000 0.805433
C227  C     C_R   0.591208 0.091208 0.250000 0.805744
C228  C     C_R   0.408791 0.908792 0.750000 0.805744
C229  C     C_R   0.908792 0.408792 0.750000 0.805836
C230  C     C_R   0.500000 1.000000 0.013775 -0.065976
C231  C     C_R   0.091209 0.591208 0.250000 0.805564
C232  C     C_R   0.408791 0.091208 0.750000 0.805550
C233  C     C_R   0.591208 0.908792 0.250000 0.805549
C234  C     C_R   0.091208 0.591208 0.750000 0.805836
C235  C     C_R   0.908791 0.408792 0.250000 0.805564
C236  C     C_R   0.591208 0.908792 0.750000 0.805550
C237  C     C_R   0.408791 0.091208 0.250000 0.805549
C238  C     C_R   0.340454 0.796986 0.233483 -0.150137
C239  C     C_R   0.659547 0.203012 0.766520 -0.150134
C240  C     C_R   0.203018 0.340457 0.233483 -0.150643
H1    H     H_    0.343929 0.766642 0.220631 0.145107
H2    H     H_    0.656073 0.766646 0.220627 0.144836
H3    H     H_    0.233366 0.656065 0.779366 0.145106
H4    H     H_    0.766650 0.343918 0.220623 0.145106
H5    H     H_    0.656071 0.766643 0.779370 0.144836
H6    H     H_    0.343927 0.233354 0.220627 0.144836
H7    H     H_    0.766634 0.343935 0.779366 0.145106
H8    H     H_    0.233350 0.656082 0.220623 0.145105
H9    H     H_    0.843939 0.266633 0.720638 0.145014
H10   H     H_    0.156084 0.733343 0.279382 0.144998
H11   H     H_    0.733356 0.843925 0.720627 0.144868
H12   H     H_    0.656072 0.233355 0.779372 0.145108
H13   H     H_    0.266641 0.156073 0.279371 0.144864
H14   H     H_    0.156061 0.733367 0.720638 0.145014
H15   H     H_    0.843916 0.266657 0.279382 0.144998
H16   H     H_    0.266644 0.156075 0.720627 0.144869
H17   H     H_    0.733359 0.843927 0.279371 0.144864
H18   H     H_    0.843939 0.733367 0.279362 0.144892
H19   H     H_    0.156084 0.266657 0.720618 0.144878
H20   H     H_    0.733357 0.156074 0.279373 0.145033
H21   H     H_    0.266640 0.843928 0.720630 0.145031
H22   H     H_    0.156061 0.266633 0.279362 0.144892
H23   H     H_    0.233366 0.343934 0.220634 0.144836
H24   H     H_    0.843916 0.733343 0.720618 0.144878
H25   H     H_    0.266643 0.843926 0.279373 0.145033
H26   H     H_    0.733360 0.156072 0.720630 0.145031
H27   H     H_    0.405716 0.828144 0.220520 0.166727
H28   H     H_    0.594284 0.171855 0.779481 0.166728
H29   H     H_    0.171866 0.405723 0.220525 0.166605
H30   H     H_    0.828152 0.594295 0.779488 0.166598
H31   H     H_    0.594284 0.171856 0.220520 0.166727
H32   H     H_    0.405716 0.828145 0.779481 0.166727
H33   H     H_    0.828134 0.594277 0.220525 0.166605
H34   H     H_    0.766650 0.656082 0.779378 0.144837
H35   H     H_    0.171848 0.405705 0.779488 0.166598
H36   H     H_    0.405715 0.171855 0.779480 0.166601
H37   H     H_    0.594285 0.828146 0.220519 0.166601
H38   H     H_    0.171866 0.594277 0.779475 0.166729
H39   H     H_    0.828151 0.405705 0.220512 0.166721
H40   H     H_    0.594284 0.828145 0.779480 0.166601
H41   H     H_    0.405715 0.171854 0.220519 0.166601
H42   H     H_    0.828134 0.405723 0.779475 0.166729
H43   H     H_    0.171848 0.594295 0.220512 0.166721
H44   H     H_    0.905726 0.328134 0.720528 0.166794
H45   H     H_    0.656071 0.233357 0.220631 0.145107
H46   H     H_    0.094296 0.671843 0.279490 0.166555
H47   H     H_    0.671856 0.905714 0.720518 0.166605
H48   H     H_    0.328142 0.094286 0.279481 0.166604
H49   H     H_    0.094274 0.671866 0.720528 0.166794
H50   H     H_    0.905704 0.328157 0.279490 0.166555
H51   H     H_    0.328143 0.094286 0.720518 0.166606
H52   H     H_    0.671858 0.905714 0.279481 0.166603
H53   H     H_    0.905726 0.671866 0.279472 0.166760
H54   H     H_    0.094296 0.328157 0.720510 0.166525
H55   H     H_    0.671857 0.094285 0.279481 0.166700
H56   H     H_    0.343928 0.766645 0.779372 0.145108
H57   H     H_    0.328142 0.905715 0.720520 0.166698
H58   H     H_    0.094274 0.328134 0.279472 0.166760
H59   H     H_    0.905704 0.671843 0.720510 0.166524
H60   H     H_    0.328143 0.905714 0.279481 0.166700
H61   H     H_    0.671858 0.094285 0.720520 0.166698
H62   H     H_    0.992776 0.423652 0.352689 0.188434
H63   H     H_    0.992796 0.576350 0.647310 0.188429
H64   H     H_    0.423312 0.000055 0.352732 0.188686
H65   H     H_    0.576688 0.999946 0.647268 0.188686
H66   H     H_    0.007224 0.576348 0.352689 0.188434
H67   H     H_    0.766634 0.656065 0.220634 0.144836
H68   H     H_    0.007204 0.423650 0.647310 0.188429
H69   H     H_    0.576688 0.999945 0.352732 0.188686
H70   H     H_    0.423312 0.000054 0.647268 0.188686
H71   H     H_    0.500095 0.923314 0.852732 0.188694
H72   H     H_    0.499903 0.076686 0.147268 0.188694
H73   H     H_    0.923312 0.500076 0.852732 0.188693
H74   H     H_    0.076688 0.499918 0.147268 0.188692
H75   H     H_    0.499905 0.076686 0.852732 0.188694
H76   H     H_    0.500097 0.923314 0.147268 0.188694
H77   H     H_    0.076688 0.499924 0.852732 0.188693
H78   H     H_    0.233350 0.343918 0.779378 0.144837
H79   H     H_    0.923312 0.500081 0.147268 0.188692
H80   H     H_    0.343928 0.233357 0.779370 0.144835
I1    I     I_    0.644626 0.054483 0.033688 -0.117131
I2    I     I_    0.846080 0.480448 0.467758 -0.117030
I3    I     I_    0.554359 0.144669 0.533688 -0.117567
I4    I     I_    0.445644 0.855329 0.466312 -0.117546
I5    I     I_    0.846088 0.519615 0.532242 -0.117748
I6    I     I_    0.153920 0.519553 0.467758 -0.117030
I7    I     I_    0.445645 0.855329 0.533688 -0.117566
I8    I     I_    0.554354 0.144672 0.466312 -0.117546
I9    I     I_    0.989358 0.391071 0.409757 -0.253398
I10   I     I_    0.989387 0.608932 0.590243 -0.253515
I11   I     I_    0.390512 0.000458 0.409769 -0.253214
I12   I     I_    0.355374 0.945517 0.966312 -0.117131
I13   I     I_    0.609488 0.999543 0.590231 -0.253208
I14   I     I_    0.010642 0.608929 0.409757 -0.253398
I15   I     I_    0.010613 0.391068 0.590243 -0.253515
I16   I     I_    0.609487 0.999542 0.409769 -0.253215
I17   I     I_    0.390512 0.000457 0.590231 -0.253207
I18   I     I_    0.500518 0.890515 0.909769 -0.253180
I19   I     I_    0.499479 0.109485 0.090231 -0.253181
I20   I     I_    0.890513 0.500490 0.909769 -0.253180
I21   I     I_    0.109488 0.499503 0.090231 -0.253180
I22   I     I_    0.499482 0.109485 0.909769 -0.253180
I23   I     I_    0.054430 0.644643 0.033688 -0.117132
I24   I     I_    0.500521 0.890515 0.090231 -0.253181
I25   I     I_    0.109487 0.499510 0.909769 -0.253180
I26   I     I_    0.890512 0.500497 0.090231 -0.253181
I27   I     I_    0.945570 0.355357 0.966312 -0.117131
I28   I     I_    0.355375 0.945516 0.033688 -0.117131
I29   I     I_    0.644626 0.054482 0.966312 -0.117131
I30   I     I_    0.945569 0.355357 0.033688 -0.117132
I31   I     I_    0.054431 0.644642 0.966312 -0.117132
I32   I     I_    0.153912 0.480386 0.532242 -0.117748
N1    N     N_R   0.500000 1.000000 0.067966 -0.347845
N2    N     N_R   0.500000 1.000000 0.932033 -0.347845
N3    N     N_R   1.000000 0.500000 0.067966 -0.347845
N4    N     N_R   1.000000 0.500000 0.932033 -0.347845
N5    N     N_R   1.000000 0.500000 0.568033 -0.347730
N6    N     N_R   1.000000 0.500000 0.431966 -0.347695
N7    N     N_R   0.500000 1.000000 0.567967 -0.347867
N8    N     N_R   0.500000 1.000000 0.432033 -0.347866
O1    O     O_3   0.000000 0.500000 0.250000 -0.468750
O2    O     O_R   0.039230 0.500000 0.807660 -0.642319
O3    O     O_R   0.500000 0.960770 0.192340 -0.642321
O4    O     O_R   0.500000 0.039230 0.807660 -0.642321
O5    O     O_R   0.539230 0.000000 0.692340 -0.642320
O6    O     O_R   0.460770 0.000000 0.307660 -0.642320
O7    O     O_R   0.000000 0.539230 0.692340 -0.642267
O8    O     O_R   1.000000 0.460770 0.307660 -0.642268
O9    O     O_R   0.460770 0.000000 0.692340 -0.642319
O10   O     O_R   0.539230 0.000000 0.307660 -0.642320
O11   O     O_R   0.000000 0.460770 0.692340 -0.642266
O12   O     O_3   1.000000 0.500000 0.750000 -0.468752
O13   O     O_R   0.000000 0.539230 0.307660 -0.642269
O14   O     O_R   0.905530 0.555290 0.235160 -0.643153
O15   O     O_R   0.094470 0.444710 0.764840 -0.643066
O16   O     O_R   0.444710 0.905530 0.235160 -0.643031
O17   O     O_R   0.555290 0.094470 0.764840 -0.643032
O18   O     O_R   0.094470 0.444710 0.235160 -0.643153
O19   O     O_R   0.905530 0.555290 0.764840 -0.643066
O20   O     O_R   0.555290 0.094470 0.235160 -0.643031
O21   O     O_R   0.444710 0.905530 0.764840 -0.643032
O22   O     O_R   0.905530 0.444710 0.764840 -0.643072
O23   O     O_3   0.500000 0.000000 0.250000 -0.468711
O24   O     O_R   0.094470 0.555290 0.235160 -0.642985
O25   O     O_R   0.444710 0.094470 0.764840 -0.643102
O26   O     O_R   0.555290 0.905530 0.235160 -0.643102
O27   O     O_R   0.094470 0.555290 0.764840 -0.643072
O28   O     O_R   0.905530 0.444710 0.235160 -0.642985
O29   O     O_R   0.555290 0.905530 0.764840 -0.643102
O30   O     O_R   0.444710 0.094470 0.235160 -0.643103
O31   O     O_R   0.405530 0.055290 0.735160 -0.643101
O32   O     O_R   0.594470 0.944710 0.264840 -0.643101
O33   O     O_R   0.944710 0.405530 0.735160 -0.642792
O34   O     O_3   0.500000 1.000000 0.750000 -0.468711
O35   O     O_R   0.055290 0.594470 0.264840 -0.643356
O36   O     O_R   0.594470 0.944710 0.735160 -0.643101
O37   O     O_R   0.405530 0.055290 0.264840 -0.643100
O38   O     O_R   0.055290 0.594470 0.735160 -0.642791
O39   O     O_R   0.944710 0.405530 0.264840 -0.643356
O40   O     O_R   0.405530 0.944710 0.264840 -0.643051
O41   O     O_R   0.594470 0.055290 0.735160 -0.643051
O42   O     O_R   0.944710 0.594470 0.264840 -0.642786
O43   O     O_R   0.055290 0.405530 0.735160 -0.643349
O44   O     O_R   0.594470 0.055290 0.264840 -0.643051
O45   O     O_R   0.039230 0.500000 0.192340 -0.642318
O46   O     O_R   0.405530 0.944710 0.735160 -0.643050
O47   O     O_R   0.055290 0.405530 0.264840 -0.642786
O48   O     O_R   0.944710 0.594470 0.735160 -0.643349
O49   O     O_2   0.417386 0.997150 0.068838 -0.496923
O50   O     O_2   0.582614 0.002850 0.931162 -0.496922
O51   O     O_2   0.997178 0.417387 0.068838 -0.496922
O52   O     O_2   0.002820 0.582613 0.931162 -0.496923
O53   O     O_2   0.582614 0.002850 0.068838 -0.496923
O54   O     O_2   0.417386 0.997150 0.931162 -0.496922
O55   O     O_2   0.002822 0.582613 0.068838 -0.496923
O56   O     O_R   0.960770 0.500000 0.807660 -0.642318
O57   O     O_2   0.997180 0.417387 0.931162 -0.496923
O58   O     O_2   0.918133 0.488908 0.569089 -0.497238
O59   O     O_2   0.081863 0.488878 0.430910 -0.497408
O60   O     O_2   0.497220 0.917386 0.568838 -0.496814
O61   O     O_2   0.502780 0.082614 0.431162 -0.496817
O62   O     O_2   0.081867 0.511092 0.569089 -0.497238
O63   O     O_2   0.918137 0.511122 0.430910 -0.497408
O64   O     O_2   0.502780 0.082614 0.568838 -0.496814
O65   O     O_2   0.497220 0.917386 0.431162 -0.496817
O66   O     O_R   0.500000 0.039230 0.192340 -0.642322
O67   O     O_R   0.500000 0.960770 0.807660 -0.642321
O68   O     O_R   0.960770 0.500000 0.192340 -0.642318
Zn1   Zn    Zn3+2 0.000000 0.556130 0.272120 0.985346
Zn2   Zn    Zn3+2 0.500000 0.943870 0.227880 0.985346
Zn3   Zn    Zn3+2 0.943870 0.500000 0.772120 0.985332
Zn4   Zn    Zn3+2 0.056130 0.500000 0.227880 0.985331
Zn5   Zn    Zn3+2 0.500000 0.943870 0.772120 0.985347
Zn6   Zn    Zn3+2 0.500000 0.056130 0.227880 0.985346
Zn7   Zn    Zn3+2 0.056130 0.500000 0.772120 0.985332
Zn8   Zn    Zn3+2 0.943870 0.500000 0.227880 0.985331
Zn9   Zn    Zn3+2 1.000000 0.443870 0.727880 0.985352
Zn10  Zn    Zn3+2 0.443870 0.000000 0.272120 0.985348
Zn11  Zn    Zn3+2 0.556130 1.000000 0.727880 0.985348
Zn12  Zn    Zn3+2 0.000000 0.443870 0.272120 0.985346
Zn13  Zn    Zn3+2 0.000000 0.556130 0.727880 0.985352
Zn14  Zn    Zn3+2 0.556130 0.000000 0.272120 0.985347
Zn15  Zn    Zn3+2 0.443870 1.000000 0.727880 0.985348
Zn16  Zn    Zn3+2 0.500000 0.056130 0.772120 0.985347

loop_
_geom_bond_atom_site_label_1
_geom_bond_atom_site_label_2
_ccdc_geom_bond_type
C145  C230  A    
C67   H60   S    
C171  I13   S    
O2    Zn7   S    
C62   C77   A    
C27   C95   A    
C35   C154  A    
C175  C207  S    
C114  C115  T    
C20   H13   S    
C182  I24   S    
C46   C155  A    
C86   C231  S    
C33   C88   A    
C195  C209  A    
C187  H63   S    
C58   C82   A    
C92   C109  S    
C14   C102  A    
C59   H51   S    
C12   H5    S    
O42   Zn1   S    
C139  C152  A    
C163  I5    S    
C137  N5    A    
C7    C42   A    
C21   H14   S    
C11   C47   A    
C56   H49   S    
C16   C104  A    
C123  C145  A    
C39   H31   S    
C6    C94   A    
C25   C60   A    
C1    O68   A    
O20   Zn6   S    
C126  N3    A    
C36   C71   A    
C33   C69   A    
C93   C110  S    
C196  C210  A    
O68   Zn8   S    
C29   C64   A    
C87   C238  A    
C82   C235  S    
C36   H28   S    
C170  I11   S    
C224  O17   A    
C233  O32   A    
C68   C158  A    
C91   C108  S    
C17   C52   A    
C54   C83   A    
O11   Zn9   S    
C47   H39   S    
C109  C118  T    
C16   H8    S    
C139  O64   S    
O40   Zn10  S    
C188  C205  A    
O24   Zn4   S    
C150  C159  A    
C198  H74   S    
C183  C201  A    
C160  C163  A    
C56   C81   A    
C85   C229  S    
C169  C187  A    
O46   Zn15  S    
C129  C142  A    
C172  C190  A    
C169  I10   S    
C88   C239  A    
C187  C204  A    
C173  C191  A    
C202  H79   S    
C235  O28   A    
C30   H22   S    
C113  C146  A    
C186  O9    A    
C173  C213  A    
C52   H44   S    
C156  C166  A    
C189  C206  A    
O12   Zn9   S    
C63   H55   S    
C70   C223  S    
C18   C104  A    
O34   Zn11  S    
C170  C214  A    
C63   C74   A    
C196  H73   S    
C72   C225  S    
C135  I29   S    
C131  O57   S    
O1    Zn8   S    
C103  C121  S    
C107  C120  T    
C41   H33   S    
C3    H34   S    
C162  I4    S    
C45   C81   A    
C10   H3    S    
C200  C209  A    
C199  H75   S    
O48   Zn13  S    
C177  I18   S    
C22   C58   A    
C232  O31   A    
C138  C151  A    
C169  C213  A    
C197  O6    A    
C4    H45   S    
C113  C144  A    
C33   H26   S    
O45   Zn4   S    
C41   C76   A    
C224  O41   A    
C136  N8    A    
O29   Zn5   S    
C155  C165  A    
C62   H54   S    
C130  N3    A    
C181  C216  A    
C193  H70   S    
C34   C238  A    
C180  C198  A    
C195  H72   S    
C28   C63   A    
C184  C220  A    
O6    Zn10  S    
C15   C103  A    
C78   C232  S    
C138  O63   S    
C57   C152  A    
C231  O24   A    
C192  C205  A    
C94   C111  S    
C178  C217  A    
O34   Zn16  S    
C84   C237  S    
C79   I1    S    
C16   C51   A    
C202  C211  A    
C172  I14   S    
O47   Zn12  S    
O8    Zn12  S    
C23   C59   A    
C194  C207  A    
C69   H61   S    
O66   Zn6   S    
C112  O2    A    
C49   C84   A    
C234  O38   A    
C39   C74   A    
C104  C122  S    
O23   Zn14  S    
C140  O65   S    
C11   C99   A    
O37   Zn10  S    
C123  O49   S    
O17   Zn16  S    
O5    Zn11  S    
C216  N2    S    
O1    Zn4   S    
C132  C154  A    
C35   C150  A    
C231  O35   A    
C176  C193  A    
C212  N6    S    
C178  I19   S    
C152  C161  A    
C50   C85   A    
C25   H17   S    
C36   C239  A    
C46   C151  A    
C89   C240  A    
C37   H29   S    
C59   C78   A    
C199  C207  A    
C134  O60   S    
C232  O25   A    
C40   H32   S    
C61   C76   A    
C127  N4    A    
C57   C156  A    
O7    Zn13  S    
C186  C206  S    
C159  I32   S    
C204  C208  S    
C34   H27   S    
C176  I17   S    
C68   C153  A    
C5    H56   S    
C222  O43   A    
O27   Zn7   S    
C2    C147  A    
C191  H68   S    
C159  C165  A    
C194  H71   S    
C130  C143  A    
C27   C62   A    
C87   C105  S    
C10   C45   A    
C176  C215  A    
C32   H25   S    
C100  C119  S    
C165  I6    S    
C22   H15   S    
C161  C167  A    
C32   C67   A    
C19   C54   A    
C25   C97   A    
C31   C91   A    
O21   Zn5   S    
C2    C142  A    
C137  C150  A    
O35   Zn1   S    
C57   C68   A    
C181  C199  A    
O16   Zn2   S    
C60   C80   A    
C71   C224  S    
O32   Zn14  S    
C239  H12   S    
C81   C234  S    
O4    Zn16  S    
C23   H16   S    
C219  O8    A    
C227  O44   A    
C124  I28   S    
C76   C221  S    
C65   C72   A    
O12   Zn13  S    
C135  C147  A    
C48   C83   A    
C66   C73   A    
C67   C70   A    
C132  N5    A    
O34   Zn15  S    
C214  N8    S    
C173  I15   S    
C127  C149  A    
C19   H11   S    
C79   C141  A    
O18   Zn4   S    
C133  O59   S    
C17   H9    S    
C64   C75   A    
C105  C122  T    
O1    Zn12  S    
C126  O51   S    
C30   C65   A    
C2    C230  A    
C77   C222  S    
C42   C77   A    
C170  C188  A    
C64   H57   S    
C133  N6    A    
C174  C192  A    
C130  O55   S    
C129  N2    A    
C26   C94   A    
C223  O16   A    
C1    C211  S    
C197  C205  S    
C8    C43   A    
C12   C48   A    
C223  O40   A    
C183  I25   S    
O26   Zn2   S    
C43   C78   A    
C238  H1    S    
C50   H42   S    
C208  O7    A    
C26   C61   A    
C90   I12   S    
C30   C89   A    
C73   C226  S    
O33   Zn9   S    
C95   C114  S    
O44   Zn14  S    
C110  C117  T    
C3    C91   A    
C175  O4    A    
C236  O36   A    
C229  O33   A    
C101  I23   S    
C18   C53   A    
C228  O46   A    
C162  C166  A    
C134  C156  A    
C220  N3    S    
C227  O20   A    
C28   H20   S    
C127  O52   S    
C158  C167  A    
C111  C116  T    
C193  C206  A    
C128  C141  A    
C34   C70   A    
C140  C153  A    
C171  C215  A    
O43   Zn9   S    
C48   H40   S    
C101  C157  A    
O1    Zn1   S    
C108  C119  T    
O15   Zn7   S    
C51   C86   A    
O31   Zn15  S    
C180  I21   S    
C146  C148  A    
C179  C196  A    
O36   Zn11  S    
C177  C194  A    
C185  H62   S    
C44   C80   A    
C182  C200  A    
C168  I9    S    
C125  C147  A    
C126  C148  A    
C37   C240  A    
C201  H77   S    
C31   H24   S    
C174  C214  A    
C112  C210  S    
C174  I16   S    
C219  O13   A    
C189  H65   S    
C181  I22   S    
C123  N1    A    
C164  O66   A    
C26   H18   S    
C164  C209  S    
C89   C107  S    
C97   C116  S    
C38   H30   S    
C90   C142  A    
C42   H35   S    
C60   H52   S    
C15   H7    S    
C61   H53   S    
C6    H67   S    
O56   Zn3   S    
C197  O10   A    
C191  C204  A    
C102  C120  S    
C124  C145  A    
O13   Zn1   S    
C157  I31   S    
O38   Zn13  S    
C75   C228  S    
C9    C97   A    
C22   C99   A    
O12   Zn3   S    
O23   Zn6   S    
C90   C124  A    
C80   C233  S    
C217  N1    S    
C21   C56   A    
O19   Zn3   S    
C19   C100  A    
C208  O11   A    
C225  O18   A    
C43   H36   S    
O3    Zn2   S    
C79   C135  A    
C222  O15   A    
O41   Zn11  S    
C40   C75   A    
C153  C162  A    
C185  C203  A    
C141  C230  A    
C226  O48   A    
C134  N7    A    
O39   Zn12  S    
C29   C93   A    
C21   C98   A    
C237  O30   A    
C53   H46   S    
C24   C144  A    
C137  O62   S    
C128  O53   S    
O12   Zn7   S    
C13   C143  A    
C12   C100  A    
C125  N2    A    
C58   H50   S    
C213  N5    S    
C83   C236  S    
C160  I2    S    
C45   H38   S    
C5    C40   A    
C166  I7    S    
O67   Zn5   S    
C55   C84   A    
C35   C46   A    
C149  C157  A    
C131  C144  A    
C4    C92   A    
O14   Zn8   S    
C31   C66   A    
C7    H78   S    
C168  C212  A    
C8    C96   A    
C125  O50   S    
C233  O26   A    
C8    H80   S    
C192  H69   S    
C52   C85   A    
C234  O27   A    
C188  H64   S    
C190  C203  A    
C47   C82   A    
C14   C49   A    
C20   C102  A    
O9    Zn15  S    
C66   H59   S    
C23   C96   A    
C171  C189  A    
C69   C71   A    
C15   C50   A    
C49   H41   S    
C10   C98   A    
C200  H76   S    
C139  N7    A    
C112  O56   A    
C179  I20   S    
C113  I27   S    
C3    C38   A    
C6    C41   A    
C29   H21   S    
C96   C115  S    
C53   C86   A    
C186  O5    A    
C65   H58   S    
O23   Zn2   S    
C225  O47   A    
C221  O42   A    
C11   H4    S    
C54   H47   S    
C177  C216  A    
C51   H43   S    
C37   C72   A    
C20   C55   A    
C9    H2    S    
C140  N8    A    
C132  O58   S    
C184  C202  A    
C235  O39   A    
C154  C163  A    
C221  O14   A    
C32   C87   A    
C131  N4    A    
C13   C24   A    
C164  O3    A    
C175  O67   A    
C167  I8    S    
C74   C227  S    
C55   H48   S    
C88   C106  S    
C44   H37   S    
C4    C39   A    
C184  I26   S    
C236  O29   A    
C28   C92   A    
O30   Zn6   S    
C198  C211  A    
O28   Zn8   S    
C218  N4    S    
C183  C218  A    
C179  C218  A    
C226  O19   A    
C180  C220  A    
C136  O61   S    
C240  H23   S    
C228  O21   A    
C201  C210  A    
C138  N6    A    
C98   C117  S    
C9    C44   A    
C237  O37   A    
C168  C185  A    
C133  C155  A    
C172  C212  A    
C190  H66   S    
C5    C93   A    
C27   H19   S    
C1    O45   A    
C7    C95   A    
C178  C195  A    
O10   Zn14  S    
C203  C219  S    
C151  C160  A    
C229  O22   A    
C17   C103  A    
C136  C158  A    
C99   C118  S    
C101  C143  A    
C18   H10   S    
C215  N7    S    
C106  C121  T    
C129  O54   S    
C146  I30   S    
C24   C149  A    
C182  C217  A    
C161  I3    S    
O25   Zn16  S    
O23   Zn10  S    
C13   C148  A    
O34   Zn5   S    
O22   Zn3   S    
C128  N1    A    
C14   H6    S    
C38   C73   A    
