data_mof_unit_39248.cif
_audit_creation_date              2012-12-10T17:56:44-0500
_audit_creation_method            fapswitch 2.2
_symmetry_space_group_name_H-M    P1
_symmetry_Int_Tables_number       1
_space_group_crystal_system       triclinic
_cell_length_a                    10.82905
_cell_length_b                    9.561448
_cell_length_c                    10.861215
_cell_angle_alpha                 90.719007
_cell_angle_beta                  91.835663
_cell_angle_gamma                 89.958796
_cell_volume                      1123.91971143

loop_
_atom_site_label
_atom_site_type_symbol
_atom_type_description
_atom_site_fract_x
_atom_site_fract_y
_atom_site_fract_z
_atom_type_partial_charge
C1    C     C_R   0.262270 0.499852 0.501131 0.863036
C2    C     C_R   0.737780 0.499780 0.501367 0.859726
C3    C     C_R   0.934778 0.617257 0.463725 -0.265258
C4    C     C_R   0.062534 0.617521 0.464294 -0.246176
C5    C     C_R   0.419783 0.075376 0.425782 0.000546
C6    C     C_R   0.581092 0.077135 0.573446 -0.001890
C7    C     C_R   0.418896 0.927501 0.424114 0.266644
C8    C     C_R   0.583665 0.928983 0.573150 0.205449
C9    C     C_R   0.510157 0.499815 0.263099 0.779759
C10   C     C_R   0.494433 0.502155 0.737948 0.804122
C11   C     C_R   0.598618 0.746930 0.125952 -0.144385
C12   C     C_R   0.493128 0.772013 0.891244 -0.166471
C13   C     C_R   0.594530 0.877009 0.069869 -0.148299
C14   C     C_R   0.536323 0.890562 0.955003 -0.154937
C15   C     C_R   0.508947 0.636292 0.941314 0.093675
C16   C     C_R   0.544314 0.627851 0.066977 0.098874
C17   C     C_R   0.522099 0.501401 0.129473 -0.110588
C18   C     C_R   0.491155 0.508743 0.872916 -0.112122
C19   C     C_R   0.494493 0.379043 0.062385 -0.206475
C20   C     C_R   0.484464 0.381775 0.935371 -0.186818
C21   C     C_R   0.065423 0.381032 0.544155 0.541407
C22   C     C_R   0.937566 0.381028 0.544256 0.539946
C23   C     C_R   0.871696 0.499115 0.503275 -0.236741
C24   C     C_R   0.128437 0.499285 0.503418 -0.241563
Cu1   Cu    Cu3+1 0.500000 0.640660 0.500000 0.931835
Cu2   Cu    Cu3+1 0.500000 0.359340 0.500000 0.997657
H1    H     H_    0.479915 0.280583 0.108053 0.162927
H2    H     H_    0.468751 0.283837 0.886105 0.168022
H3    H     H_    0.646192 0.740745 0.214744 0.159592
H4    H     H_    0.443080 0.791117 0.805840 0.181863
H5    H     H_    0.633072 0.968005 0.117305 0.142890
H6    H     H_    0.526193 0.992864 0.914206 0.139445
H7    H     H_    0.885479 0.708644 0.430580 0.187661
H8    H     H_    0.109475 0.709383 0.432369 0.193774
H9    H     H_    0.356420 0.132972 0.366136 0.146636
H10   H     H_    0.646612 0.136566 0.630344 0.185030
N1    N     N_R   0.500000 0.852070 0.500000 -0.165083
N2    N     N_R   0.500000 0.147940 0.500000 -0.203784
O1    O     O_R   0.319640 0.618740 0.499990 -0.596750
O2    O     O_R   0.680360 0.618740 0.500010 -0.603555
O3    O     O_R   0.319620 0.381170 0.499990 -0.525014
O4    O     O_R   0.680380 0.381170 0.500010 -0.529916
O5    O     O_R   0.500000 0.618810 0.319650 -0.600185
O6    O     O_R   0.500000 0.618810 0.680350 -0.610814
O7    O     O_R   0.499970 0.381240 0.319640 -0.592945
O8    O     O_R   0.500030 0.381240 0.680360 -0.572836
F1    F     F_    0.127045 0.266513 0.586309 -0.625262
F2    F     F_    0.878902 0.266587 0.586659 -0.643091
C25   C     C_3   0.327950 0.863576 0.331834 -0.807113
H11   H     H_    0.233465 0.900524 0.352273 0.205766
H12   H     H_    0.350168 0.899171 0.238107 0.207521
H13   H     H_    0.324715 0.749799 0.327442 0.278758
C26   C     C_3   0.689305 0.863805 0.645610 -0.745394
H14   H     H_    0.726550 0.936975 0.717902 0.200523
H15   H     H_    0.663384 0.769353 0.694679 0.260916
H16   H     H_    0.765892 0.840656 0.583274 0.239464

loop_
_geom_bond_atom_site_label_1
_geom_bond_atom_site_label_2
_ccdc_geom_bond_type
C8    C26   S    
C10   O8    A    
C15   C18   A    
C22   F2    S    
C6    N2    A    
C9    O7    A    
C13   C14   A    
C19   H1    S    
C11   C16   A    
C3    C23   A    
C19   C20   A    
C12   C15   A    
C25   H13   S    
Cu1   N1    S    
Cu1   O5    S    
C6    H10   S    
C7    N1    A    
C21   C22   A    
Cu1   O1    S    
C11   H3    S    
C11   C13   A    
Cu2   O4    S    
C2    O4    A    
C5    H9    S    
Cu1   O6    S    
C1    O3    A    
C17   C19   A    
C10   C18   S    
C18   C20   A    
C26   H15   S    
Cu1   O2    S    
C4    C24   A    
C4    H8    S    
C21   C24   A    
C9    O5    A    
C8    N1    A    
C3    H7    S    
C10   O6    A    
C3    C4    A    
C2    O2    A    
C5    N2    A    
C7    C25   S    
C1    C24   S    
C25   H11   S    
C26   H16   S    
C9    C17   S    
C2    C23   S    
C5    C7    A    
C25   H12   S    
C1    O1    A    
C22   C23   A    
Cu2   N2    S    
C6    C8    A    
C20   H2    S    
Cu2   O7    S    
C12   H4    S    
Cu1   Cu2   S    
C26   H14   S    
Cu2   O8    S    
C14   H6    S    
C13   H5    S    
C15   C16   A    
Cu2   O3    S    
C12   C14   A    
C16   C17   A    
C21   F1    S    
