data_mof_unit_31427.cif
_audit_creation_date              2012-12-10T19:12:19-0500
_audit_creation_method            fapswitch 2.2
_symmetry_space_group_name_H-M    P1
_symmetry_Int_Tables_number       1
_space_group_crystal_system       triclinic
_cell_length_a                    7.772524
_cell_length_b                    9.09748
_cell_length_c                    17.146264
_cell_angle_alpha                 89.618592
_cell_angle_beta                  95.000505
_cell_angle_gamma                 90.025278
_cell_volume                      1207.7775473

loop_
_atom_site_label
_atom_site_type_symbol
_atom_type_description
_atom_site_fract_x
_atom_site_fract_y
_atom_site_fract_z
_atom_type_partial_charge
C1    C     C_R   0.499964 0.219971 0.500016 0.848898
C2    C     C_R   0.500036 0.780029 0.499984 0.848901
C3    C     C_R   0.523371 0.494105 0.651504 0.784951
C4    C     C_R   0.476629 0.505893 0.348495 0.784952
C5    C     C_R   0.540238 0.488044 0.737866 -0.089216
C6    C     C_R   0.459761 0.511944 0.262133 -0.089215
C7    C     C_R   0.398639 0.536182 0.776368 -0.258949
C8    C     C_R   0.601365 0.463810 0.223632 -0.258957
C9    C     C_R   0.404126 0.534324 0.857312 -0.167629
C10   C     C_R   0.595878 0.465658 0.142689 -0.167627
C11   C     C_R   0.552315 0.483271 0.902156 0.336762
C12   C     C_R   0.447685 0.516696 0.097844 0.336766
C13   C     C_R   0.693537 0.434377 0.864690 -0.182652
C14   C     C_R   0.306458 0.565585 0.135308 -0.182654
C15   C     C_R   0.691259 0.434398 0.782478 0.107554
C16   C     C_R   0.308735 0.565573 0.217520 0.107562
C17   C     C_1   0.499968 0.065354 0.500008 -0.182639
C18   C     C_1   0.500032 0.934646 0.499992 -0.182639
Cu1   Cu    Cu3+1 0.669080 0.500010 0.500000 0.985824
Cu2   Cu    Cu3+1 0.330920 0.499990 0.500000 0.985824
H1    H     H_    0.717367 0.422998 0.256317 0.175184
H2    H     H_    0.282641 0.577005 0.743684 0.175178
H3    H     H_    0.707837 0.426671 0.115578 0.156738
H4    H     H_    0.292171 0.573316 0.884424 0.156742
H5    H     H_    0.804862 0.396142 0.901367 0.152934
H6    H     H_    0.195129 0.603808 0.098631 0.152934
N1    N     N_1   0.076820 0.499970 0.500010 -0.056917
N2    N     N_1   0.923180 0.500030 0.499990 -0.056917
N3    N     N_2   0.565813 0.478595 0.985131 -0.259210
N4    N     N_2   0.434188 0.521368 0.014869 -0.259212
O1    O     O_R   0.642760 0.288400 0.500000 -0.579202
O2    O     O_R   0.357240 0.711600 0.500000 -0.579200
O3    O     O_R   0.357190 0.288380 0.500000 -0.573170
O4    O     O_R   0.642810 0.711620 0.500000 -0.573169
O5    O     O_R   0.658410 0.498660 0.613920 -0.600398
O6    O     O_R   0.341590 0.501340 0.386080 -0.600399
O7    O     O_R   0.372840 0.498650 0.613930 -0.578415
O8    O     O_R   0.627160 0.501350 0.386070 -0.578416
C19   C     C_3   0.845575 0.376434 0.742457 -0.358773
C20   C     C_3   0.988948 0.301894 0.795469 -0.864592
H7    H     H_    0.052196 0.381978 0.837313 0.250364
H8    H     H_    0.936362 0.207997 0.827647 0.256904
H9    H     H_    0.088969 0.259084 0.759064 0.256367
H10   H     H_    0.798301 0.293962 0.698066 0.213902
H11   H     H_    0.905581 0.469295 0.712310 0.225381
C21   C     C_3   0.154412 0.623530 0.257539 -0.358792
C22   C     C_3   0.011028 0.698044 0.204524 -0.864614
H12   H     H_    0.063598 0.791941 0.172342 0.256911
H13   H     H_    0.947797 0.617945 0.162685 0.250367
H14   H     H_    0.910998 0.740847 0.240928 0.256372
H15   H     H_    0.094419 0.530670 0.287692 0.225387
H16   H     H_    0.201674 0.706014 0.301925 0.213910

loop_
_geom_bond_atom_site_label_1
_geom_bond_atom_site_label_2
_ccdc_geom_bond_type
C4    O6    A    
C9    H4    S    
N3    N4    D    
Cu1   N2    S    
Cu1   O8    S    
C10   H3    S    
C2    C18   S    
C7    H2    S    
C11   C13   A    
C1    C17   S    
C22   H12   S    
C3    O5    A    
C19   H11   S    
Cu1   O1    S    
C2    O4    A    
C20   H8    S    
C17   C18   T    
C3    C5    S    
C1    O3    A    
C22   H13   S    
Cu1   O5    S    
C14   H6    S    
Cu2   O7    S    
C9    C11   A    
C15   C19   S    
C19   H10   S    
C10   C12   A    
Cu2   O3    S    
C8    C10   A    
C20   H7    S    
Cu2   N1    S    
C12   C14   A    
C8    H1    S    
C22   H14   S    
C5    C7    A    
C13   C15   A    
C14   C16   A    
C5    C15   A    
C4    C6    S    
C19   C20   S    
C6    C16   A    
Cu2   O6    S    
C21   H16   S    
C1    O1    A    
C11   N3    S    
C2    O2    A    
Cu2   O2    S    
C16   C21   S    
N1    N2    T    
C7    C9    A    
C21   C22   S    
C6    C8    A    
C12   N4    S    
C21   H15   S    
C20   H9    S    
Cu1   Cu2   S    
C3    O7    A    
C4    O8    A    
C13   H5    S    
Cu1   O4    S    
