data_mof_unit_21525.cif
_audit_creation_date              2012-12-11T14:08:23-0500
_audit_creation_method            fapswitch 2.2
_symmetry_space_group_name_H-M    P1
_symmetry_Int_Tables_number       1
_space_group_crystal_system       triclinic
_cell_length_a                    10.92656
_cell_length_b                    11.004768
_cell_length_c                    18.823867
_cell_angle_alpha                 90.203737
_cell_angle_beta                  89.201197
_cell_angle_gamma                 60.162701
_cell_volume                      1963.08689288

loop_
_atom_site_label
_atom_site_type_symbol
_atom_type_description
_atom_site_fract_x
_atom_site_fract_y
_atom_site_fract_z
_atom_type_partial_charge
C1    C     C_R   0.236561 0.645682 0.608743 0.528162
C2    C     C_3   0.682243 0.516283 0.809595 -0.110110
C3    C     C_3   0.685445 0.657055 0.818687 0.054977
C4    C     C_3   0.641900 0.622525 0.684928 0.058681
C5    C     C_3   0.774233 0.639227 0.691585 -0.223824
C6    C     C_3   0.670655 0.491662 0.729014 -0.247420
C7    C     C_2   0.658416 0.167750 0.672340 -0.021667
C8    C     C_2   0.729698 0.105537 0.822943 -0.095149
C9    C     C_2   0.812317 0.026429 0.768919 -0.171955
C10   C     C_2   0.791009 0.081659 0.695577 -0.041227
C11   C     C_2   0.185774 0.663666 0.682280 -0.150608
C12   C     C_R   0.627268 0.590843 0.609674 0.554390
C13   C     C_2   0.190655 0.661020 0.838371 -0.132996
C14   C     C_2   0.167746 0.572562 0.798286 -0.155836
C15   C     C_2   0.181386 0.562452 0.720312 -0.042106
C16   C     C_2   0.659156 0.646575 0.320175 -0.099932
C17   C     C_2   0.629427 0.664178 0.159119 -0.006397
C18   C     C_2   0.704562 0.549103 0.199590 -0.022284
C19   C     C_2   0.669708 0.547844 0.274338 -0.150788
C20   C     C_2   0.660429 0.152664 0.330513 -0.111915
C21   C     C_2   0.689322 0.064145 0.185612 -0.123716
C22   C     C_2   0.586558 0.071396 0.228251 -0.056482
C23   C     C_R   0.625568 0.229688 0.602057 0.517106
C24   C     C_2   0.599710 0.080520 0.305112 -0.042863
C25   C     C_2   0.119597 0.689104 0.346507 -0.089552
C26   C     C_2   0.120131 0.679710 0.187816 -0.023422
C27   C     C_2   0.045085 0.788106 0.232690 -0.159606
C28   C     C_2   0.088635 0.797954 0.303683 -0.033344
C29   C     C_R   0.730270 0.045721 0.890362 0.552387
C30   C     C_R   0.718243 0.683112 0.891431 0.529800
C31   C     C_R   0.119195 0.705901 0.907464 0.544335
C32   C     C_R   0.701979 0.039331 0.110403 0.571211
C33   C     C_R   0.692153 0.688855 0.095134 0.534887
C34   C     C_R   0.216467 0.652191 0.404473 0.550817
C35   C     C_R   0.089583 0.710313 0.113885 0.528916
C36   C     C_R   0.644624 0.622976 0.394356 0.568477
C37   C     C_R   0.621010 0.222367 0.398054 0.549626
C38   C     C_3   0.539919 0.778556 0.795598 -0.228937
C39   C     C_3   0.505637 0.751873 0.719655 -0.088520
C40   C     C_3   0.799419 0.658370 0.769104 -0.229833
Cr1   Cr    Cr6+3 0.393010 0.398050 0.501480 1.062759
Cr2   Cr    Cr6+3 0.398820 0.707980 0.501630 1.009612
Cr3   Cr    Cr6+3 0.708140 0.393940 0.496850 1.011273
Cr4   Cr    Cr6+3 0.937950 0.938450 0.008940 1.016704
Cr5   Cr    Cr6+3 0.626180 0.937030 0.994750 1.027529
Cr6   Cr    Cr6+3 0.937790 0.625760 0.001410 1.031230
H1    H     H_    0.541108 0.879099 0.798164 0.165027
H2    H     H_    0.768901 0.399477 0.708310 0.137464
H3    H     H_    0.905724 0.573192 0.783404 0.127889
H4    H     H_    0.869636 0.543741 0.670995 0.158559
H5    H     H_    0.892275 0.918078 0.777747 0.114056
H6    H     H_    0.659034 0.217255 0.817806 0.122220
H7    H     H_    0.126782 0.510763 0.823068 0.157447
H8    H     H_    0.239047 0.718478 0.816659 0.086486
H9    H     H_    0.455437 0.789364 0.833254 0.101598
H10   H     H_    0.171574 0.757590 0.708618 0.085841
H11   H     H_    0.667983 0.455490 0.293563 0.143935
H12   H     H_    0.667514 0.736501 0.303511 0.092170
H13   H     H_    0.777468 0.067492 0.207564 0.075318
H14   H     H_    0.708502 0.196035 0.296117 0.080348
H15   H     H_    0.965965 0.884460 0.211117 0.140846
H16   H     H_    0.426076 0.717288 0.726013 0.108971
H17   H     H_    0.088935 0.612339 0.331845 0.117718
H18   H     H_    0.799686 0.758792 0.775373 0.105240
H19   H     H_    0.767363 0.726005 0.659277 0.120006
H20   H     H_    0.582816 0.532179 0.835462 0.132199
H21   H     H_    0.584453 0.466843 0.721509 0.094122
O1    O     O_R   0.507110 0.256280 0.580300 -0.509103
O2    O     O_R   0.524640 0.695370 0.425100 -0.468656
O3    O     O_R   0.735890 0.504390 0.415980 -0.507224
O4    O     O_R   0.690560 0.277820 0.422350 -0.513922
O5    O     O_3   0.499990 0.499990 0.499980 -0.272678
O6    O     O_R   0.089190 0.825870 0.932320 -0.517135
O7    O     O_R   0.819070 0.053960 0.931440 -0.503852
O8    O     O_R   0.607070 0.076440 0.916460 -0.490017
O9    O     O_R   0.647110 0.806550 0.917690 -0.523198
O10   O     O_R   0.837080 0.593860 0.915300 -0.531970
O11   O     O_R   0.064770 0.636080 0.932550 -0.496588
O12   O     O_R   0.280830 0.527190 0.577940 -0.476588
O13   O     O_R   0.068250 0.829200 0.092940 -0.536175
O14   O     O_R   0.799650 0.057040 0.080330 -0.490827
O15   O     O_R   0.586130 0.079760 0.077080 -0.479647
O16   O     O_R   0.627700 0.809630 0.066580 -0.526773
O17   O     O_R   0.816140 0.597180 0.075920 -0.498877
O18   O     O_R   0.045360 0.639170 0.081440 -0.479666
O19   O     O_3   0.833980 0.833750 0.001700 -0.295361
O20   O     O_R   0.261360 0.738990 0.584270 -0.552451
O21   O     O_R   0.532590 0.694780 0.574370 -0.510941
O22   O     O_R   0.744470 0.503750 0.577000 -0.522895
O23   O     O_R   0.698520 0.277230 0.571620 -0.524267
O24   O     O_R   0.498530 0.256920 0.419280 -0.481830
O25   O     O_R   0.272880 0.527780 0.428680 -0.485870
O26   O     O_R   0.252780 0.739630 0.423250 -0.529905
C41   C     C_3   0.918966 0.022397 0.646327 -0.253502
C42   C     C_3   0.020342 0.073033 0.667665 -0.411735
H22   H     H_    0.966517 0.189102 0.666647 0.167010
H23   H     H_    0.061382 0.036183 0.721688 0.142243
H24   H     H_    0.110297 0.031257 0.629245 0.147124
H25   H     H_    0.972115 0.907127 0.648398 0.137289
H26   H     H_    0.892364 0.046953 0.589740 0.163709
C43   C     C_1   0.533680 0.200406 0.715854 0.170978
N1    N     N_1   0.436197 0.224706 0.751007 -0.301367
C44   C     C_1   0.172708 0.448525 0.686485 0.252496
N2    N     N_1   0.165255 0.357739 0.659550 -0.313153
C45   C     C_1   0.824626 0.420701 0.172928 0.240078
N3    N     N_1   0.920334 0.317894 0.151795 -0.282798
C46   C     C_3   0.480529 0.775914 0.180303 -0.291334
C47   C     C_3   0.383694 0.715008 0.182756 -0.427564
H27   H     H_    0.399166 0.649470 0.134735 0.165222
H28   H     H_    0.401403 0.652285 0.231430 0.172535
H29   H     H_    0.274400 0.802893 0.183716 0.166040
H30   H     H_    0.476318 0.826511 0.231885 0.152795
H31   H     H_    0.435475 0.860458 0.140650 0.195101
C48   C     C_1   0.453660 0.091992 0.201706 0.268715
N4    N     N_1   0.345906 0.112058 0.181123 -0.288406
C49   C     C_1   0.531348 0.025923 0.351491 0.213725
N5    N     N_1   0.476115 0.983434 0.388472 -0.302295
C50   C     C_3   0.116635 0.918314 0.321575 -0.249323
C51   C     C_3   0.054607 0.043452 0.271478 -0.428681
H32   H     H_    0.092737 0.012142 0.215978 0.181488
H33   H     H_    0.938500 0.096665 0.273309 0.142615
H34   H     H_    0.086376 0.120069 0.289076 0.175071
H35   H     H_    0.071465 0.960831 0.375252 0.174472
H36   H     H_    0.232448 0.876993 0.321552 0.191602
C52   C     C_1   0.228360 0.541171 0.208572 0.179523
N6    N     N_1   0.315100 0.430655 0.225164 -0.279405
C53   C     C_3   0.424402 0.893413 0.679598 -0.263348
C54   C     C_3   0.515323 0.948301 0.646560 -0.388394
H37   H     H_    0.590517 0.946234 0.685927 0.148523
H38   H     H_    0.574387 0.887105 0.598839 0.174100
H39   H     H_    0.445648 0.057421 0.629080 0.183610
H40   H     H_    0.356845 0.887385 0.638182 0.189106
H41   H     H_    0.348099 0.974759 0.717373 0.141370
C55   C     C_3   0.806311 0.383833 0.843288 -0.282571
C56   C     C_3   0.772020 0.359163 0.919434 -0.385981
H42   H     H_    0.738586 0.451455 0.954625 0.176618
H43   H     H_    0.684470 0.335574 0.919405 0.156594
H44   H     H_    0.866646 0.269295 0.942398 0.172973
H45   H     H_    0.830553 0.288564 0.812102 0.145431
H46   H     H_    0.905567 0.387999 0.841673 0.178267

loop_
_geom_bond_atom_site_label_1
_geom_bond_atom_site_label_2
_ccdc_geom_bond_type
C1    O20   A    
C7    C10   D    
C43   N1    T    
C56   H44   S    
Cr2   O26   S    
C46   H30   S    
Cr5   O15   S    
C1    C11   S    
C34   O26   A    
C54   H37   S    
C48   N4    T    
C42   H24   S    
C56   H42   S    
Cr5   O16   S    
C19   H11   S    
C25   C28   D    
C32   O14   A    
C26   C27   D    
C2    C55   S    
C6    H2    S    
Cr5   O9    S    
C8    C29   S    
C21   H13   S    
C17   C46   S    
C55   H46   S    
C38   C39   S    
C31   O6    A    
C10   C41   S    
C40   H3    S    
C35   O13   A    
C47   H27   S    
C18   C19   S    
C25   H17   S    
C50   C51   S    
C46   H31   S    
C27   H15   S    
C53   H40   S    
C30   O10   A    
C11   C15   D    
C38   H9    S    
C20   C24   D    
C3    C38   S    
C8    C9    D    
C9    H5    S    
C46   C47   S    
C20   H14   S    
C9    C10   S    
C8    H6    S    
C25   C34   S    
Cr6   O18   S    
Cr3   O5    S    
C21   C22   D    
C2    C6    S    
C17   C33   S    
Cr4   O19   S    
C36   O3    A    
Cr1   O1    S    
C51   H33   S    
C21   C32   S    
Cr3   O23   S    
C39   C53   S    
C12   O21   A    
C12   O22   A    
Cr4   O13   S    
C4    C6    S    
Cr4   O14   S    
C55   H45   S    
Cr6   O11   S    
C37   O24   A    
C16   H12   S    
C29   O7    A    
Cr2   O2    S    
C26   C52   S    
C23   O1    A    
C3    C30   S    
C30   O9    A    
C4    C39   S    
C41   H26   S    
C14   H7    S    
Cr2   O5    S    
C17   C18   D    
C23   O23   A    
C41   C42   S    
C50   H36   S    
Cr4   O7    S    
C33   O16   A    
C38   H1    S    
Cr1   O5    S    
Cr6   O17   S    
C5    H19   S    
C6    H21   S    
Cr1   O24   S    
C3    C40   S    
C24   C49   S    
Cr3   O3    S    
C37   O4    A    
C52   N6    T    
C1    O12   A    
C22   C24   S    
C5    H4    S    
C4    C12   S    
C53   C54   S    
C54   H39   S    
C27   C28   S    
C36   O2    A    
C31   O11   A    
C13   H8    S    
C51   H34   S    
C56   H43   S    
C39   H16   S    
Cr3   O4    S    
C13   C31   S    
C53   H41   S    
C4    C5    S    
C2    H20   S    
C54   H38   S    
Cr1   O12   S    
Cr6   O10   S    
C51   H32   S    
C42   H23   S    
C55   C56   S    
C29   O8    A    
C32   O15   A    
C45   N3    T    
C40   H18   S    
C47   H29   S    
Cr5   O8    S    
C2    C3    S    
C42   H22   S    
C18   C45   S    
C28   C50   S    
C16   C36   S    
C20   C37   S    
C35   O18   A    
C41   H25   S    
C16   C19   D    
C7    C23   S    
C47   H28   S    
C49   N5    T    
Cr5   O19   S    
C50   H35   S    
Cr3   O22   S    
Cr4   O6    S    
C33   O17   A    
C34   O25   A    
C26   C35   S    
C22   C48   S    
Cr1   O25   S    
Cr2   O21   S    
C7    C43   S    
C5    C40   S    
C44   N2    T    
C14   C15   S    
Cr2   O20   S    
C15   C44   S    
C13   C14   D    
C11   H10   S    
Cr6   O19   S    
