data_mof_unit_58001.cif
_audit_creation_date              2012-12-11T15:27:06-0500
_audit_creation_method            fapswitch 2.2
_symmetry_space_group_name_H-M    P1
_symmetry_Int_Tables_number       1
_space_group_crystal_system       triclinic
_cell_length_a                    13.865907
_cell_length_b                    13.976417
_cell_length_c                    27.473566
_cell_angle_alpha                 89.894284
_cell_angle_beta                  90.075882
_cell_angle_gamma                 120.05049
_cell_volume                      4608.58742995

loop_
_atom_site_label
_atom_site_type_symbol
_atom_type_description
_atom_site_fract_x
_atom_site_fract_y
_atom_site_fract_z
_atom_type_partial_charge
C1    C     C_R   0.233560 0.787304 0.568420 0.546385
C2    C     C_R   0.212099 0.445855 0.568332 0.547725
C3    C     C_R   0.553097 0.765677 0.568694 0.544477
C4    C     C_3   0.646878 0.732984 0.789338 -0.240830
C5    C     C_3   0.245283 0.946707 0.782783 -0.241585
C6    C     C_3   0.048238 0.300175 0.782888 -0.241583
C7    C     C_3   0.625546 0.722173 0.733735 -0.236030
C8    C     C_3   0.261487 0.929396 0.728466 -0.237703
C9    C     C_3   0.066826 0.333951 0.728440 -0.236620
C10   C     C_1   0.707392 0.862373 0.858701 -0.066179
C11   C     C_1   0.114679 0.877428 0.851668 -0.066776
C12   C     C_1   0.116810 0.235374 0.851369 -0.066949
C13   C     C_1   0.630840 0.818287 0.657946 -0.022651
C14   C     C_1   0.175309 0.817798 0.655433 -0.022310
C15   C     C_1   0.177735 0.355466 0.655079 -0.021661
C16   C     C_1   0.602607 0.797961 0.615976 0.026049
C17   C     C_1   0.198295 0.806211 0.614477 0.027098
C18   C     C_1   0.191477 0.390804 0.614203 0.028049
C19   C     C_R   0.070822 0.163102 0.941669 0.529200
C20   C     C_R   0.780067 0.886945 0.948818 0.535304
C21   C     C_R   0.091830 0.928273 0.941602 0.526653
C22   C     C_R   0.607724 0.804711 0.384230 0.025714
C23   C     C_R   0.194421 0.802465 0.384256 0.025416
C24   C     C_R   0.196645 0.391934 0.384341 0.025401
C25   C     C_R   0.586099 0.877479 0.357326 -0.122801
C26   C     C_R   0.121426 0.708234 0.357330 -0.123059
C27   C     C_R   0.291327 0.411639 0.357755 -0.122847
C28   C     C_R   0.610325 0.893073 0.308208 -0.121817
C29   C     C_R   0.106018 0.716942 0.308178 -0.121862
C30   C     C_R   0.282743 0.387070 0.308683 -0.121633
C31   C     C_R   0.660168 0.839254 0.285392 0.035299
C32   C     C_R   0.160217 0.820474 0.285365 0.035135
C33   C     C_R   0.178790 0.338810 0.285595 0.035205
C34   C     C_R   0.233213 0.786869 0.431349 0.538233
C35   C     C_R   0.212806 0.446393 0.431335 0.539288
C36   C     C_R   0.553414 0.766346 0.431343 0.538072
C37   C     C_R   0.691065 0.774282 0.313216 -0.116484
C38   C     C_R   0.225215 0.916061 0.313223 -0.116718
C39   C     C_R   0.082518 0.309783 0.313164 -0.116591
C40   C     C_R   0.663629 0.755906 0.362356 -0.128141
C41   C     C_R   0.243427 0.906967 0.362392 -0.128462
C42   C     C_R   0.091569 0.337554 0.362233 -0.128498
C43   C     C_R   0.660214 0.755717 0.205674 -0.118482
C44   C     C_R   0.245018 0.905018 0.205723 -0.118129
C45   C     C_R   0.095372 0.339308 0.205536 -0.117987
C46   C     C_R   0.683671 0.766143 0.156322 -0.129054
C47   C     C_R   0.234858 0.918247 0.156347 -0.128757
C48   C     C_R   0.082546 0.316052 0.156177 -0.128457
C49   C     C_R   0.722972 0.956419 0.158393 0.078598
C50   C     C_R   0.043240 0.766264 0.158224 0.077779
C51   C     C_R   0.233629 0.275133 0.158833 0.077314
C52   C     C_R   0.702996 0.946210 0.208178 -0.094878
C53   C     C_R   0.053155 0.756240 0.208022 -0.095001
C54   C     C_R   0.243191 0.294954 0.208635 -0.094852
C55   C     C_R   0.675377 0.847404 0.232425 0.010395
C56   C     C_R   0.152462 0.827797 0.232379 0.010369
C57   C     C_R   0.171862 0.323400 0.232606 0.010447
C58   C     C_R   0.721568 0.868044 0.132827 0.025267
C59   C     C_R   0.132379 0.853786 0.132752 0.024273
C60   C     C_R   0.146754 0.277652 0.132945 0.024260
C61   C     C_R   0.107463 0.222340 0.085992 0.584042
C62   C     C_R   0.777859 0.884893 0.086012 0.571900
C63   C     C_R   0.115538 0.892958 0.085898 0.583234
C64   C     C_3   0.574002 0.871908 0.734952 -0.014174
C65   C     C_3   0.130977 0.723147 0.736356 -0.013916
C66   C     C_3   0.273281 0.402460 0.735575 -0.015037
C67   C     C_3   0.774389 0.920959 0.722223 -0.216514
C68   C     C_3   0.056325 0.849518 0.713790 -0.213322
C69   C     C_3   0.138897 0.203432 0.713462 -0.213409
C70   C     C_3   0.794345 0.928986 0.777980 -0.219741
C71   C     C_3   0.041731 0.866992 0.768333 -0.221179
C72   C     C_3   0.118542 0.171031 0.767928 -0.222317
C73   C     C_1   0.734651 0.872504 0.900837 -0.020032
C74   C     C_1   0.104281 0.899125 0.893031 -0.016879
C75   C     C_1   0.098022 0.203757 0.892885 -0.019144
C76   C     C_3   0.651651 0.834411 0.710748 0.055855
C77   C     C_3   0.155262 0.828969 0.707121 0.056631
C78   C     C_3   0.164980 0.323923 0.706733 0.055748
C79   C     C_3   0.590154 0.878102 0.791830 -0.058172
C80   C     C_3   0.120450 0.741471 0.792249 -0.056454
C81   C     C_3   0.254192 0.374133 0.791412 -0.057048
C82   C     C_3   0.684764 0.852623 0.805984 0.051710
C83   C     C_3   0.128245 0.856371 0.800317 0.052201
C84   C     C_3   0.136174 0.269714 0.799962 0.051253
Cr1   Cr    Cr6+3 0.164410 0.584450 0.499910 1.043873
Cr2   Cr    Cr6+3 0.415550 0.579960 0.499910 1.043292
Cr3   Cr    Cr6+3 0.420040 0.835590 0.499910 1.044120
Cr4   Cr    Cr6+3 0.156760 0.076070 0.017830 1.067370
Cr5   Cr    Cr6+3 0.923930 0.080690 0.017830 1.060917
Cr6   Cr    Cr6+3 0.919310 0.843240 0.017830 1.066247
H1    H     H_    0.486324 0.806645 0.727409 0.109830
H2    H     H_    0.204383 0.711590 0.731888 0.111073
H3    H     H_    0.289018 0.488370 0.730958 0.111001
H4    H     H_    0.512092 0.806034 0.805929 0.077157
H5    H     H_    0.198676 0.751360 0.808507 0.078945
H6    H     H_    0.247668 0.443858 0.807534 0.082017
H7    H     H_    0.711693 0.710943 0.798397 0.127910
H8    H     H_    0.255887 0.030257 0.787845 0.116280
H9    H     H_    0.962595 0.228747 0.787968 0.117726
H10   H     H_    0.542078 0.915702 0.373099 0.140674
H11   H     H_    0.083041 0.626183 0.373116 0.140041
H12   H     H_    0.373845 0.454341 0.373730 0.139942
H13   H     H_    0.633284 0.676743 0.223087 0.122926
H14   H     H_    0.324436 0.957416 0.223227 0.123082
H15   H     H_    0.043230 0.366812 0.222686 0.122935
H16   H     H_    0.678126 0.695952 0.137105 0.165348
H17   H     H_    0.305650 0.983304 0.137180 0.165945
H18   H     H_    0.017922 0.322324 0.136719 0.165390
H19   H     H_    0.584020 0.942327 0.287773 0.109270
H20   H     H_    0.056706 0.641625 0.287721 0.109322
H21   H     H_    0.358651 0.411883 0.288483 0.109144
H22   H     H_    0.712721 0.017306 0.228030 0.126910
H23   H     H_    0.981408 0.694356 0.227795 0.126730
H24   H     H_    0.304538 0.284559 0.228702 0.126663
H25   H     H_    0.732922 0.734710 0.296672 0.113244
H26   H     H_    0.265002 0.997349 0.296684 0.113379
H27   H     H_    0.000784 0.269107 0.296468 0.113246
H28   H     H_    0.681610 0.700082 0.382605 0.129208
H29   H     H_    0.299407 0.980639 0.382669 0.129254
H30   H     H_    0.017501 0.321011 0.382227 0.129235
H31   H     H_    0.831181 0.896998 0.704339 0.108009
H32   H     H_    0.071590 0.924006 0.692765 0.108397
H33   H     H_    0.063441 0.146403 0.692090 0.109035
H34   H     H_    0.795431 0.003380 0.707613 0.151173
H35   H     H_    0.978055 0.778739 0.699528 0.155764
H36   H     H_    0.208551 0.193252 0.699682 0.154550
H37   H     H_    0.833560 0.015548 0.790523 0.103525
H38   H     H_    0.955630 0.810162 0.780444 0.104475
H39   H     H_    0.171407 0.137526 0.780254 0.103302
H40   H     H_    0.856454 0.903468 0.786456 0.103143
H41   H     H_    0.052911 0.950372 0.772964 0.100961
H42   H     H_    0.031268 0.102645 0.772255 0.102132
H43   H     H_    0.536840 0.659648 0.726919 0.151547
H44   H     H_    0.333386 0.915515 0.724907 0.155586
H45   H     H_    0.085489 0.420696 0.725026 0.160515
H46   H     H_    0.677650 0.691684 0.716425 0.153555
H47   H     H_    0.282058 0.005781 0.707693 0.147340
H48   H     H_    0.988833 0.280919 0.707735 0.150610
H49   H     H_    0.569629 0.672863 0.808843 0.125317
H50   H     H_    0.311502 0.944519 0.804886 0.128561
H51   H     H_    0.053638 0.369243 0.805115 0.131782
O1    O     O_R   0.137310 0.468260 0.552980 -0.496978
O2    O     O_R   0.531740 0.669050 0.552980 -0.496492
O3    O     O_R   0.330950 0.862690 0.552980 -0.495603
O4    O     O_R   0.180530 0.983530 0.965090 -0.506664
O5    O     O_R   0.016470 0.197000 0.965090 -0.496858
O6    O     O_R   0.803000 0.819470 0.965090 -0.516313
O7    O     O_R   0.174120 0.688790 0.549730 -0.486274
O8    O     O_R   0.311210 0.485330 0.549730 -0.485689
O9    O     O_R   0.514670 0.825880 0.549730 -0.484670
O10   O     O_R   0.139940 0.470480 0.446230 -0.521714
O11   O     O_R   0.529520 0.669460 0.446230 -0.520735
O12   O     O_R   0.330540 0.860060 0.446230 -0.520639
O13   O     O_R   0.176560 0.690850 0.450770 -0.508916
O14   O     O_R   0.309150 0.485710 0.450770 -0.508019
O15   O     O_R   0.514290 0.823440 0.450770 -0.507916
O16   O     O_3   0.333333 0.666667 0.499990 -0.275884
O17   O     O_3   1.000000 0.000000 0.017910 -0.277393
O18   O     O_R   0.149710 0.171070 0.967700 -0.497112
O19   O     O_R   0.828930 0.978640 0.967700 -0.514752
O20   O     O_R   0.021360 0.850290 0.967700 -0.480337
O21   O     O_R   0.178510 0.985930 0.071830 -0.492932
O22   O     O_R   0.014070 0.192580 0.071830 -0.490862
O23   O     O_R   0.807420 0.821490 0.071830 -0.495049
O24   O     O_R   0.147830 0.173300 0.066650 -0.459219
O25   O     O_R   0.826700 0.974530 0.066650 -0.463366
O26   O     O_R   0.025470 0.852170 0.066650 -0.457369
C85   C     C_R   0.598921 0.979287 0.817548 0.062684
C86   C     C_R   0.687643 0.087488 0.809233 -0.051123
C87   C     C_R   0.699084 0.175814 0.837307 -0.106577
C88   C     C_R   0.622144 0.157783 0.873916 -0.108158
C89   C     C_R   0.531794 0.052059 0.881609 -0.108570
C90   C     C_R   0.520114 0.963410 0.853736 -0.104503
H52   H     H_    0.747165 0.105077 0.780526 0.125769
H53   H     H_    0.767922 0.258268 0.830646 0.123875
H54   H     H_    0.631738 0.225768 0.896075 0.101928
H55   H     H_    0.471360 0.038466 0.909607 0.128571
H56   H     H_    0.450446 0.881828 0.861278 0.087696
C91   C     C_R   0.025661 0.645056 0.820032 0.061266
C92   C     C_R   0.912134 0.605751 0.809871 -0.051978
C93   C     C_R   0.828683 0.521979 0.838063 -0.108108
C94   C     C_R   0.856812 0.476070 0.876828 -0.106382
C95   C     C_R   0.968443 0.512407 0.886962 -0.100558
C96   C     C_R   0.052257 0.596152 0.858900 -0.096687
H57   H     H_    0.886650 0.636203 0.779291 0.130358
H58   H     H_    0.742052 0.492405 0.829600 0.124122
H59   H     H_    0.792210 0.411894 0.898869 0.103581
H60   H     H_    0.990192 0.476148 0.916822 0.126949
H61   H     H_    0.138196 0.623540 0.868066 0.090415
C97   C     C_R   0.349907 0.373222 0.818856 0.062266
C98   C     C_R   0.383901 0.295498 0.809217 -0.051715
C99   C     C_R   0.469018 0.295208 0.836326 -0.106141
C100  C     C_R   0.521402 0.372051 0.873541 -0.104346
C101  C     C_R   0.489673 0.450240 0.883336 -0.100838
C102  C     C_R   0.404582 0.450894 0.856341 -0.097861
H62   H     H_    0.348620 0.237703 0.779592 0.125866
H63   H     H_    0.494805 0.235768 0.828021 0.129088
H64   H     H_    0.587266 0.371868 0.894560 0.101312
H65   H     H_    0.530880 0.510354 0.911969 0.122381
H66   H     H_    0.381278 0.512167 0.865013 0.088004
I1    I     I_    0.756146 0.109297 0.126946 -0.363217
I2    I     I_    0.889548 0.646103 0.126584 -0.360846
I3    I     I_    0.353486 0.240606 0.127773 -0.362065
I4    I     I_    0.581373 0.013839 0.698635 -0.450983
I5    I     I_    0.999115 0.573209 0.703128 -0.464178
I6    I     I_    0.421549 0.414768 0.702242 -0.459724

loop_
_geom_bond_atom_site_label_1
_geom_bond_atom_site_label_2
_ccdc_geom_bond_type
C70   H37   S    
C58   C62   S    
C65   H2    S    
C40   H28   S    
C88   C89   A    
C97   C98   A    
Cr6   O26   S    
C2    C18   S    
C24   C42   A    
C86   C87   A    
C15   C18   T    
C24   C27   A    
C95   C96   A    
C67   H34   S    
C6    C9    S    
C44   H14   S    
C72   H39   S    
C93   C94   A    
C92   C93   A    
C25   C28   A    
C45   C57   A    
C33   C39   A    
C63   O21   A    
Cr1   O16   S    
C5    H50   S    
C50   C59   A    
C35   O14   A    
C102  H66   S    
C37   C40   A    
C4    C7    S    
C26   H11   S    
C5    C83   S    
C10   C73   T    
C14   C77   S    
C15   C78   S    
C65   I5    S    
C87   C88   A    
C69   H33   S    
C100  H64   S    
C46   H16   S    
C70   H40   S    
C12   C84   S    
Cr4   O18   S    
C23   C26   A    
C94   C95   A    
C98   H62   S    
C62   O23   A    
Cr1   O7    S    
C45   H15   S    
C94   H59   S    
Cr3   O9    S    
C20   C73   S    
C86   H52   S    
Cr3   O12   S    
C48   C60   A    
Cr4   O17   S    
C79   C85   S    
C96   H61   S    
C44   C47   A    
C9    C78   S    
C49   C52   A    
C2    O8    A    
C63   O26   A    
C101  C102  A    
C64   I4    S    
C65   C80   S    
C4    H7    S    
C46   C58   A    
C27   C30   A    
C14   C17   T    
C69   C78   S    
Cr5   O5    S    
C35   O10   A    
Cr3   O3    S    
C80   C83   S    
C67   H31   S    
Cr2   O16   S    
C53   H23   S    
Cr2   O2    S    
C72   H42   S    
C39   C42   A    
C71   C83   S    
C87   H53   S    
C50   I2    S    
C85   C90   A    
C66   C78   S    
C49   I1    S    
C51   I3    S    
C50   C53   A    
C21   O20   A    
Cr6   O20   S    
C8    H44   S    
C98   C99   A    
C24   C35   S    
C80   C91   S    
Cr5   O25   S    
C29   H20   S    
Cr5   O17   S    
C6    C84   S    
C38   C41   A    
Cr2   O8    S    
C68   H32   S    
C81   H6    S    
C36   O11   A    
C11   C83   S    
C39   H27   S    
C47   C59   A    
C21   C74   S    
C10   C82   S    
C49   C58   A    
C31   C37   A    
Cr6   O23   S    
C60   C61   S    
C80   H5    S    
C21   O4    A    
Cr6   O17   S    
C69   C72   S    
Cr2   O14   S    
Cr1   O10   S    
Cr6   O6    S    
Cr2   O11   S    
C5    C8    S    
C65   C77   S    
C38   H26   S    
C9    H48   S    
C44   C56   A    
C25   H10   S    
C101  H65   S    
C13   C76   S    
Cr4   O4    S    
C23   C34   S    
C22   C40   A    
C66   I6    S    
C64   C76   S    
C20   O6    A    
C3    O2    A    
C99   H63   S    
C41   H29   S    
C6    H51   S    
C72   C84   S    
C97   C102  A    
C79   H4    S    
C66   H3    S    
C9    H45   S    
C43   C55   A    
C85   C86   A    
C62   O25   A    
C22   C25   A    
C19   O5    A    
C100  C101  A    
C34   O13   A    
C32   C38   A    
C8    C77   S    
C2    O1    A    
C64   C79   S    
C71   H38   S    
C13   C16   T    
C81   C84   S    
C89   C90   A    
C36   O15   A    
Cr5   O19   S    
C91   C96   A    
C45   C48   A    
C68   C77   S    
C3    O9    A    
C33   C57   S    
C30   C33   A    
C61   O22   A    
C1    C17   S    
C28   C31   A    
C11   C74   T    
Cr1   O1    S    
C69   H36   S    
C79   C82   S    
C93   H58   S    
C52   C55   A    
C7    H43   S    
C7    C76   S    
C37   H25   S    
C28   H19   S    
C29   C32   A    
C22   C36   S    
C88   H54   S    
C27   H12   S    
C47   H17   S    
C23   C41   A    
C30   H21   S    
C67   C70   S    
C19   O18   A    
C6    H9    S    
C51   C54   A    
C51   C60   A    
C19   C75   S    
C7    H46   S    
C1    O3    A    
C95   H60   S    
C99   C100  A    
C66   C81   S    
C42   H30   S    
C48   H18   S    
C90   H56   S    
C68   C71   S    
Cr4   O21   S    
C54   H24   S    
C32   C56   S    
C59   C63   S    
C61   O24   A    
Cr1   O13   S    
C89   H55   S    
C70   C82   S    
C43   C46   A    
C43   H13   S    
C81   C97   S    
C34   O12   A    
C92   H57   S    
C71   H41   S    
C91   C92   A    
Cr3   O16   S    
C4    C82   S    
C5    H8    S    
C26   C29   A    
Cr4   O24   S    
C20   O19   A    
C12   C75   T    
C53   C56   A    
C52   H22   S    
Cr3   O15   S    
C8    H47   S    
C1    O7    A    
C67   C76   S    
C64   H1    S    
C31   C55   S    
C68   H35   S    
Cr5   O22   S    
C3    C16   S    
C4    H49   S    
C54   C57   A    
