data_mof_unit_10604.cif
_audit_creation_date              2013-03-05T16:32:26-0500
_audit_creation_method            fapswitch 2.2
_symmetry_space_group_name_H-M    P1
_symmetry_Int_Tables_number       1
_space_group_crystal_system       triclinic
_cell_length_a                    10.632038
_cell_length_b                    10.835829
_cell_length_c                    9.602985
_cell_angle_alpha                 90.23156
_cell_angle_beta                  88.425733
_cell_angle_gamma                 91.32175
_cell_volume                      1105.61230809

loop_
_atom_site_label
_atom_site_type_symbol
_atom_site_description
_atom_site_fract_x
_atom_site_fract_y
_atom_site_fract_z
_atom_type_partial_charge
O1    O     O_R   0.500000 0.319640 0.618810 -0.593268
O2    O     O_R   0.500010 0.319680 0.381230 -0.586058
C1    C     C_R   0.498540 0.262506 0.499660 0.801582
O3    O     O_R   0.316850 0.499950 0.618770 -0.568256
O4    O     O_R   0.316860 0.499990 0.381190 -0.598895
C2    C     C_R   0.259315 0.500720 0.500975 0.785031
Cu1   Cu    Cu3+1 0.499990 0.499980 0.640670 0.966992
Cu2   Cu    Cu3+1 0.500010 0.500020 0.359330 0.948325
O5    O     O_R   0.499990 0.680320 0.618770 -0.552000
O6    O     O_R   0.500000 0.680360 0.381190 -0.576117
O7    O     O_R   0.683140 0.500010 0.618810 -0.595466
O8    O     O_R   0.683150 0.500050 0.381230 -0.583488
C3    C     C_R   0.497111 0.737511 0.500363 0.793508
C4    C     C_R   0.740552 0.500937 0.498282 0.774686
C5    C     C_3   0.039835 0.591292 0.584492 -0.156650
C6    C     C_3   0.952696 0.480614 0.625742 -0.119503
H1    H     H_    0.905659 0.463312 0.727964 0.134250
H2    H     H_    0.075527 0.663448 0.656719 0.142357
C7    C     C_3   0.877555 0.501985 0.494809 0.010867
C8    C     C_3   0.962316 0.612625 0.453041 -0.184534
C9    C     C_3   0.046814 0.523500 0.368484 -0.133304
C10   C     C_3   0.959453 0.412972 0.410159 -0.179664
C11   C     C_3   0.036858 0.391435 0.541316 -0.155917
C12   C     C_3   0.122095 0.501963 0.500482 0.029003
H3    H     H_    0.928439 0.702668 0.416235 0.130257
H4    H     H_    0.087660 0.541100 0.262525 0.137243
H5    H     H_    0.923481 0.340530 0.338453 0.137148
H6    H     H_    0.070293 0.300495 0.575143 0.141988
C13   C     C_R   0.490076 0.064458 0.624038 0.026264
C14   C     C_R   0.487721 0.129120 0.499208 -0.096504
C15   C     C_R   0.467241 0.063148 0.375200 -0.193215
H7    H     H_    0.457987 0.110417 0.276963 0.182765
C16   C     C_R   0.466038 0.934304 0.376035 -0.175377
H8    H     H_    0.456841 0.885405 0.278129 0.212388
C17   C     C_R   0.483919 0.870506 0.501135 -0.160845
C18   C     C_R   0.484682 0.937370 0.626015 0.116770
C19   C     C_3   0.572273 0.932692 0.745599 0.185801
C20   C     C_3   0.582491 0.072648 0.738242 -0.512285
H9    H     H_    0.662104 0.885360 0.722011 0.065267
H10   H     H_    0.545585 0.120318 0.832831 0.215743
H11   H     H_    0.676798 0.106959 0.700672 0.167077
C21   C     C_R   0.608890 0.519660 0.070061 0.238521
N1    N     N_R   0.500800 0.500930 0.147930 -0.188406
C22   C     C_R   0.397105 0.464046 0.079656 -0.087968
H12   H     H_    0.314938 0.432781 0.139564 0.150223
C23   C     C_R   0.395913 0.461906 0.932015 0.083069
N2    N     N_R   0.500800 0.500890 0.852020 -0.189543
C24   C     C_R   0.609230 0.518890 0.923497 0.224082
C25   C     C_3   0.698117 0.627066 0.915662 -0.459052
C26   C     C_3   0.696088 0.628992 0.074217 -0.453515
H13   H     H_    0.791322 0.602744 0.869951 0.169892
H14   H     H_    0.655900 0.708331 0.868334 0.246296
H15   H     H_    0.788193 0.606182 0.118552 0.179899
H16   H     H_    0.650751 0.711577 0.120419 0.250665
C27   C     C_R   0.281163 0.402761 0.876774 0.163353
C28   C     C_R   0.163695 0.451667 0.915748 -0.174180
C29   C     C_R   0.054605 0.377343 0.914030 -0.161225
C30   C     C_R   0.059803 0.256157 0.864566 -0.123005
C31   C     C_R   0.175100 0.207886 0.821155 -0.170386
C32   C     C_R   0.285356 0.279842 0.830608 -0.118102
H17   H     H_    0.158358 0.544013 0.958932 0.133533
H18   H     H_    0.966072 0.413524 0.952426 0.121713
H19   H     H_    0.974876 0.199258 0.861616 0.132263
H20   H     H_    0.179904 0.112903 0.786339 0.151742
H21   H     H_    0.374227 0.236472 0.812966 0.147320
N3    N     N_R   0.508766 0.891458 0.875125 0.129773
O9    O     O_R   0.560018 0.915796 0.993891 -0.415207
O10   O     O_R   0.406464 0.823145 0.872915 -0.365722

loop_
_geom_bond_atom_site_label_1
_geom_bond_atom_site_label_2
_geom_bond_distance
_ccdc_geom_bond_type
C23   C27   1.475582 S    
C13   C20   1.493468 S    
C5    H2    1.110306 S    
N3    O10   1.302083 A    
C11   C12   1.530886 S    
C15   C16   1.395942 A    
C25   H13   1.109663 S    
C19   C20   1.519710 S    
C1    C14   1.447271 S    
C7    C8    1.531168 S    
N2    C24   1.367558 A    
Cu2   N1    2.029921 S    
Cu2   O8    1.964204 S    
C14   C15   1.405968 A    
N1    C22   1.349943 A    
C25   H14   1.102784 S    
C2    C12   1.459445 S    
C19   N3    1.465303 S    
C27   C28   1.408537 A    
C16   H8    1.083017 S    
C29   C30   1.396396 A    
C31   C32   1.397661 A    
C19   H9    1.111901 S    
C21   C24   1.407341 A    
C9    C10   1.545774 S    
C8    C9    1.546842 S    
Cu1   O7    1.952791 S    
C13   C18   1.377159 A    
C27   C32   1.403365 A    
C31   H20   1.082773 S    
C13   C14   1.392048 A    
C18   C19   1.499999 S    
C21   C26   1.488480 S    
O3    Cu1   1.964204 S    
C26   H16   1.111275 S    
O3    C2    1.300831 A    
C24   C25   1.489464 S    
C20   H10   1.109885 S    
C9    H4    1.110762 S    
O8    C4    1.293589 A    
C32   H21   1.073961 S    
C3    C17   1.451101 S    
C6    C11   1.544501 S    
O2    C1    1.296813 A    
C10   H5    1.110339 S    
C6    C7    1.529332 S    
O4    C2    1.288038 A    
O7    C4    1.293576 A    
C26   H15   1.111862 S    
C11   H6    1.108160 S    
C21   N1    1.365402 A    
C5    C6    1.544656 S    
C23   N2    1.394976 A    
C29   H18   1.082801 S    
C7    C10   1.530625 S    
N3    O9    1.300892 A    
C28   C29   1.397129 A    
C20   H11   1.112537 S    
Cu2   O6    1.964535 S    
C25   C26   1.522223 S    
C8    H3    1.110237 S    
C9    C12   1.539019 S    
C30   H19   1.082517 S    
Cu1   O5    1.966261 S    
Cu1   Cu2   2.701699 S    
O4    Cu2   1.952792 S    
C28   H17   1.083729 S    
C5    C12   1.531882 S    
O1    Cu1   1.964535 S    
O5    C3    1.298602 A    
C16   C17   1.408041 A    
C30   C31   1.396353 A    
C10   C11   1.544764 S    
C4    C7    1.455875 S    
C15   H7    1.083189 S    
O2    Cu2   1.966263 S    
C22   H12   1.081313 S    
C17   C18   1.398705 A    
C6    H1    1.104113 S    
C22   C23   1.418289 A    
C5    C8    1.547415 S    
O1    C1    1.299042 A    
O6    C3    1.298984 A    
Cu1   N2    2.029830 S    
