data_mof_unit_26567.cif
_audit_creation_date              2012-12-11T15:37:27-0500
_audit_creation_method            fapswitch 2.2
_symmetry_space_group_name_H-M    P1
_symmetry_Int_Tables_number       1
_space_group_crystal_system       triclinic
_cell_length_a                    17.29695
_cell_length_b                    24.247486
_cell_length_c                    14.769635
_cell_angle_alpha                 90.053356
_cell_angle_beta                  125.53734
_cell_angle_gamma                 89.979191
_cell_volume                      5040.68803829

loop_
_atom_site_label
_atom_site_type_symbol
_atom_type_description
_atom_site_fract_x
_atom_site_fract_y
_atom_site_fract_z
_atom_type_partial_charge
Br1   Br    Br    0.686104 0.385044 0.660387 -0.546330
Br2   Br    Br    0.843125 0.624062 0.283951 -0.463559
Br3   Br    Br    0.797870 0.398018 0.237785 -0.462601
Br4   Br    Br    0.002123 0.614891 0.564607 -0.509558
Br5   Br    Br    0.292778 0.903702 0.459608 -0.425534
Br6   Br    Br    0.343118 0.124059 0.283943 -0.463562
Br7   Br    Br    0.297875 0.898012 0.237788 -0.462586
Br8   Br    Br    0.502115 0.114891 0.564599 -0.509616
Br9   Br    Br    0.251995 0.616124 0.365879 -0.545655
Br10  Br    Br    0.251822 0.384062 0.365976 -0.558310
Br11  Br    Br    0.686119 0.614923 0.660581 -0.597992
Br12  Br    Br    0.186088 0.885065 0.660516 -0.546467
Br13  Br    Br    0.752232 0.116114 0.365927 -0.545744
Br14  Br    Br    0.752118 0.884075 0.366053 -0.558295
Br15  Br    Br    0.186068 0.114909 0.660846 -0.598133
Br16  Br    Br    0.792780 0.403710 0.459610 -0.425511
C1    C     C_R   0.856451 0.654314 0.910241 -0.054803
C2    C     C_3   0.571352 0.499994 0.631586 0.167802
C3    C     C_3   0.032530 0.000037 0.509102 -0.126056
C4    C     C_3   0.892560 0.000054 0.470557 0.141533
C5    C     C_3   0.071390 0.999982 0.631951 0.167524
C6    C     C_R   0.792452 0.231367 0.900398 -0.126440
C7    C     C_R   0.343946 0.684689 0.100260 -0.129460
C8    C     C_R   0.344031 0.314865 0.101251 -0.122944
C9    C     C_R   0.794344 0.769136 0.901240 -0.129132
C10   C     C_R   0.292404 0.731385 0.900376 -0.126436
C11   C     C_R   0.843921 0.184712 0.100279 -0.129473
C12   C     C_R   0.844003 0.814845 0.101268 -0.122939
C13   C     C_R   0.191629 0.375835 0.092444 -0.080434
C14   C     C_R   0.294309 0.269125 0.901214 -0.129088
C15   C     C_R   0.242944 0.686152 0.898947 -0.125232
C16   C     C_R   0.892892 0.230358 0.101829 -0.099840
C17   C     C_R   0.893546 0.769550 0.102666 -0.084408
C18   C     C_R   0.244221 0.314011 0.899915 -0.135234
C19   C     C_R   0.742986 0.186136 0.898968 -0.125256
C20   C     C_R   0.392922 0.730336 0.101813 -0.099844
C21   C     C_R   0.393591 0.269577 0.102649 -0.084419
C22   C     C_R   0.744261 0.814028 0.899939 -0.135257
C23   C     C_R   0.261944 0.666457 0.998946 0.109831
C24   C     C_R   0.191697 0.623965 0.092126 -0.077390
C25   C     C_R   0.861260 0.257059 0.001992 0.107805
C26   C     C_R   0.862676 0.743230 0.002630 0.106404
C27   C     C_R   0.262290 0.333165 0.999860 0.112049
C28   C     C_R   0.761948 0.166462 0.998960 0.109824
C29   C     C_R   0.361255 0.757057 0.001978 0.107797
C30   C     C_R   0.362692 0.243239 0.002616 0.106394
C31   C     C_R   0.762296 0.833166 0.999873 0.112037
C32   C     C_R   0.860017 0.459879 0.438612 0.255705
C33   C     C_R   0.891835 0.555556 0.364697 0.265524
C34   C     C_R   0.855610 0.459016 0.340245 0.260556
C35   C     C_R   0.856060 0.345779 0.910142 -0.057770
C36   C     C_R   0.923031 0.553501 0.474498 0.260248
C37   C     C_R   0.360016 0.959875 0.438611 0.255682
C38   C     C_R   0.391827 0.055554 0.364692 0.265518
C39   C     C_R   0.355611 0.959012 0.340245 0.260551
C40   C     C_R   0.423022 0.053500 0.474493 0.260221
C41   C     C_R   0.885005 0.506016 0.312141 -0.151855
C42   C     C_R   0.907974 0.504378 0.514639 -0.208240
C43   C     C_R   0.385002 0.006013 0.312138 -0.151850
C44   C     C_R   0.407968 0.004377 0.514636 -0.208252
C45   C     C_R   0.945877 0.348253 0.094233 -0.071018
C46   C     C_R   0.356484 0.154320 0.910243 -0.054561
C47   C     C_R   0.096521 0.623809 0.905640 -0.110271
C48   C     C_R   0.096588 0.375529 0.906125 -0.105696
C49   C     C_R   0.946705 0.652021 0.094186 -0.073618
C50   C     C_R   0.445875 0.848252 0.094232 -0.071028
C51   C     C_R   0.596520 0.123812 0.905639 -0.110293
C52   C     C_R   0.596591 0.875531 0.906123 -0.105691
C53   C     C_R   0.446708 0.152023 0.094185 -0.073632
C54   C     C_R   0.978259 0.547105 0.245296 -0.051365
C55   C     C_R   0.956136 0.454749 0.695842 -0.100793
C56   C     C_R   0.947833 0.546193 0.694015 -0.080644
C57   C     C_R   0.691628 0.875838 0.092438 -0.080542
C58   C     C_R   0.974998 0.454835 0.244229 -0.060838
C59   C     C_R   0.478257 0.047105 0.245294 -0.051432
C60   C     C_R   0.456136 0.954749 0.695842 -0.100771
C61   C     C_R   0.447832 0.046193 0.694014 -0.080658
C62   C     C_R   0.474997 0.954835 0.244228 -0.060968
C63   C     C_R   0.729356 0.454134 0.737790 0.304887
C64   C     C_R   0.251906 0.545431 0.307624 0.221771
C65   C     C_R   0.251859 0.454643 0.307641 0.221589
C66   C     C_R   0.729362 0.545852 0.737811 0.293291
C67   C     C_R   0.229398 0.954126 0.738032 0.304760
C68   C     C_R   0.691693 0.123968 0.092121 -0.077474
C69   C     C_R   0.752046 0.045444 0.307524 0.222123
C70   C     C_R   0.752002 0.954638 0.307550 0.222018
C71   C     C_R   0.229401 0.045849 0.738098 0.293294
C72   C     C_R   0.887148 0.685378 0.003116 0.016716
C73   C     C_R   0.187930 0.362697 0.998886 0.020495
C74   C     C_R   0.187898 0.636772 0.998302 0.021606
C75   C     C_R   0.886129 0.314881 0.002958 0.017931
C76   C     C_R   0.387170 0.185385 0.003116 0.016699
C77   C     C_R   0.687933 0.862701 0.998884 0.020524
C78   C     C_R   0.687896 0.136775 0.998301 0.021647
C79   C     C_R   0.356076 0.845777 0.910145 -0.057725
C80   C     C_R   0.386135 0.814878 0.002957 0.017950
C81   C     C_R   0.940116 0.502038 0.264445 0.102387
C82   C     C_R   0.939632 0.501327 0.631490 0.176832
C83   C     C_R   0.440114 0.002037 0.264443 0.102458
C84   C     C_R   0.439629 0.001327 0.631488 0.176822
C85   C     C_R   0.673061 0.499994 0.710969 -0.139721
C86   C     C_R   0.296183 0.500057 0.372214 -0.044830
C87   C     C_R   0.173104 0.999984 0.711297 -0.139567
C88   C     C_R   0.796456 0.000063 0.371993 -0.045901
C89   C     C_3   0.502055 0.454717 0.613807 -0.082916
C90   C     C_3   0.392393 0.500046 0.470561 0.141213
C91   C     C_3   0.462272 0.545283 0.489550 -0.108198
C92   C     C_3   0.462122 0.454741 0.489376 -0.098028
C93   C     C_3   0.502199 0.545330 0.613979 -0.075473
C94   C     C_3   0.002042 0.954677 0.613868 -0.082690
C95   C     C_3   0.962483 0.045315 0.489847 -0.107814
C96   C     C_3   0.962383 0.954774 0.489531 -0.097795
C97   C     C_3   0.002139 0.045295 0.614187 -0.075429
C98   C     C_3   0.430355 0.500054 0.593286 -0.135887
C99   C     C_3   0.532231 0.499981 0.508647 -0.125900
C100  C     C_3   0.930236 0.999991 0.593178 -0.135991
H1    H     H_    0.829002 0.670909 0.829473 0.152061
H2    H     H_    0.068389 0.629094 0.819156 0.140389
H3    H     H_    0.068719 0.369212 0.820098 0.104438
H4    H     H_    0.994490 0.665564 0.179486 0.134238
H5    H     H_    0.492849 0.834990 0.179793 0.124442
H6    H     H_    0.568389 0.129100 0.819155 0.140400
H7    H     H_    0.568725 0.869214 0.820096 0.104434
H8    H     H_    0.494483 0.165564 0.179489 0.134193
H9    H     H_    0.971896 0.589907 0.257444 0.163119
H10   H     H_    0.946221 0.412360 0.669558 0.156396
H11   H     H_    0.919380 0.586911 0.663073 0.167239
H12   H     H_    0.251174 0.371967 0.178080 0.142118
H13   H     H_    0.963325 0.412507 0.255106 0.152334
H14   H     H_    0.471892 0.089906 0.257441 0.163101
H15   H     H_    0.446226 0.912357 0.669561 0.156377
H16   H     H_    0.419380 0.086911 0.663073 0.167195
H17   H     H_    0.463326 0.912507 0.255106 0.152321
H18   H     H_    0.385593 0.500091 0.624690 0.161414
H19   H     H_    0.575998 0.499931 0.475855 0.180434
H20   H     H_    0.885259 0.999977 0.624283 0.161508
H21   H     H_    0.076469 0.000036 0.476540 0.180545
H22   H     H_    0.520476 0.417883 0.667297 0.175196
H23   H     H_    0.251341 0.627984 0.177709 0.139381
H24   H     H_    0.446089 0.582467 0.437580 0.177461
H25   H     H_    0.445832 0.417546 0.437262 0.181103
H26   H     H_    0.520722 0.582171 0.667616 0.174583
H27   H     H_    0.020348 0.917818 0.667266 0.175246
H28   H     H_    0.946402 0.082522 0.437961 0.177612
H29   H     H_    0.946218 0.917616 0.437372 0.181144
H30   H     H_    0.020527 0.082102 0.667858 0.174561
H31   H     H_    0.183928 0.670815 0.819247 0.159634
H32   H     H_    0.949074 0.247334 0.181519 0.134741
H33   H     H_    0.949358 0.752427 0.182320 0.145283
H34   H     H_    0.828761 0.329075 0.829428 0.153977
H35   H     H_    0.185563 0.329535 0.820238 0.127292
H36   H     H_    0.683998 0.170781 0.819270 0.159635
H37   H     H_    0.449143 0.747294 0.181506 0.134737
H38   H     H_    0.449446 0.252473 0.182307 0.145269
H39   H     H_    0.685642 0.829574 0.820270 0.127295
H40   H     H_    0.769082 0.248892 0.821122 0.152064
H41   H     H_    0.365157 0.667897 0.179310 0.128630
H42   H     H_    0.364599 0.331254 0.180375 0.133990
H43   H     H_    0.771780 0.751954 0.821943 0.143802
H44   H     H_    0.268991 0.748928 0.821096 0.152097
H45   H     H_    0.329095 0.170918 0.829484 0.152008
H46   H     H_    0.865108 0.167940 0.179330 0.128669
H47   H     H_    0.864551 0.831217 0.180393 0.134036
H48   H     H_    0.271697 0.251928 0.821901 0.143847
H49   H     H_    0.751173 0.871968 0.178066 0.142178
H50   H     H_    0.751336 0.127989 0.177697 0.139431
H51   H     H_    0.328800 0.829073 0.829436 0.153974
H52   H     H_    0.992858 0.334990 0.179792 0.124512
N1    N     N_R   0.892620 0.603790 0.941800 -0.051774
N2    N     N_R   0.047790 0.602400 0.942090 -0.051203
N3    N     N_R   0.047790 0.397600 0.942090 -0.049371
N4    N     N_R   0.952210 0.602400 0.057910 -0.053386
N5    N     N_R   0.452210 0.897600 0.057910 -0.051476
N6    N     N_R   0.547790 0.102400 0.942090 -0.051219
N7    N     N_R   0.547790 0.897600 0.942090 -0.049372
N8    N     N_R   0.452210 0.102400 0.057910 -0.053410
N9    N     N_R   0.026300 0.529110 0.206760 -0.051758
N10   N     N_R   0.973700 0.470890 0.793240 -0.057805
N11   N     N_R   0.973700 0.529110 0.793240 -0.063676
N12   N     N_R   0.107380 0.396210 0.058200 -0.039475
N13   N     N_R   0.026300 0.470890 0.206760 -0.049037
N14   N     N_R   0.526300 0.029110 0.206760 -0.051752
N15   N     N_R   0.473700 0.970890 0.793240 -0.057798
N16   N     N_R   0.473700 0.029110 0.793240 -0.063671
N17   N     N_R   0.526300 0.970890 0.206760 -0.049046
N18   N     N_R   0.818530 0.472270 0.792960 -0.086082
N19   N     N_R   0.181470 0.527730 0.207040 -0.091403
N20   N     N_R   0.181470 0.472270 0.207040 -0.090962
N21   N     N_R   0.818530 0.527730 0.792960 -0.089399
N22   N     N_R   0.318530 0.972270 0.792960 -0.086040
N23   N     N_R   0.107380 0.603790 0.058200 -0.038833
N24   N     N_R   0.681470 0.027730 0.207040 -0.091357
N25   N     N_R   0.681470 0.972270 0.207040 -0.090936
N26   N     N_R   0.318530 0.027730 0.792960 -0.089376
N27   N     N_R   0.892620 0.396210 0.941800 -0.052379
N28   N     N_R   0.392620 0.103790 0.941800 -0.051805
N29   N     N_R   0.607380 0.896210 0.058200 -0.039505
N30   N     N_R   0.607380 0.103790 0.058200 -0.038859
N31   N     N_R   0.392620 0.896210 0.941800 -0.052400
N32   N     N_R   0.952210 0.397600 0.057910 -0.051454
Ni1   Ni    Ni4+2 0.934150 0.565840 0.869060 0.244126
Ni2   Ni    Ni4+2 0.065850 0.434160 0.130940 0.266375
Ni3   Ni    Ni4+2 0.065850 0.565840 0.130940 0.268762
Ni4   Ni    Ni4+2 0.934150 0.434160 0.869060 0.256076
Ni5   Ni    Ni4+2 0.434150 0.065840 0.869060 0.244082
Ni6   Ni    Ni4+2 0.565850 0.934160 0.130940 0.266343
Ni7   Ni    Ni4+2 0.565850 0.065840 0.130940 0.268744
Ni8   Ni    Ni4+2 0.434150 0.934160 0.869060 0.256066

loop_
_geom_bond_atom_site_label_1
_geom_bond_atom_site_label_2
_ccdc_geom_bond_type
C12   C31   A    
C63   N18   A    
N10   Ni4   S    
N5    N31   A    
C1    C72   A    
C43   C83   S    
C39   C43   A    
C67   N22   A    
N13   Ni2   S    
C42   C82   S    
C2    C93   S    
C46   N28   A    
C70   C88   A    
Br8   C40   S    
C13   C73   A    
C5    C94   S    
C58   N13   A    
C56   C82   A    
C3    C96   S    
C69   N24   A    
C6    C19   A    
C27   C73   S    
C48   H3    S    
C67   C87   A    
C7    C23   A    
Br4   C36   S    
C17   C26   A    
N7    Ni8   S    
N8    Ni7   S    
Br5   C37   S    
C3    C5    S    
N12   Ni2   S    
C11   H46   S    
C60   H15   S    
C8    H42   S    
C46   H45   S    
C30   C76   S    
C90   C91   S    
C51   N6    A    
C24   H23   S    
N19   Ni3   S    
N28   Ni5   S    
C61   N16   A    
C33   C41   A    
C96   H29   S    
C45   N32   A    
C61   C84   A    
N14   Ni7   S    
C91   H24   S    
N7    N29   A    
N2    Ni1   S    
C10   C29   A    
C35   C75   A    
C89   H22   S    
C4    C96   S    
C11   C28   A    
C37   C44   A    
N11   Ni1   S    
C35   H34   S    
C13   N12   A    
C57   N29   A    
C9    H43   S    
N6    Ni5   S    
C16   H32   S    
C16   C25   A    
N9    Ni3   S    
C55   H10   S    
C10   H44   S    
N5    Ni6   S    
C53   N8    A    
C14   H48   S    
C60   N15   A    
C23   C74   S    
C49   H4    S    
C54   C81   A    
C1    H1    S    
C38   C43   A    
C97   C100  S    
C15   H31   S    
C90   C92   S    
C32   C34   A    
C11   C16   A    
C10   C15   A    
N15   Ni8   S    
C91   C93   S    
Br16  C32   S    
N29   Ni6   S    
N23   Ni3   S    
C22   H39   S    
Br6   C38   S    
N17   Ni6   S    
C52   H7    S    
C92   H25   S    
C55   C82   A    
C52   N7    A    
C20   H37   S    
N10   N11   A    
C58   C81   A    
C65   C86   A    
C37   C39   A    
Br11  C66   S    
C31   C77   S    
C89   C92   S    
C38   C40   A    
N6    N30   A    
C14   C18   A    
C49   N4    A    
C89   C98   S    
C28   C78   S    
Br14  C70   S    
C57   H49   S    
C4    C100  S    
C47   H2    S    
N22   N26   A    
C50   C80   A    
C47   N2    A    
C6    H40   S    
N27   Ni4   S    
C56   H11   S    
C53   H8    S    
N21   Ni1   S    
N2    N23   A    
N16   Ni5   S    
C40   C44   A    
Br12  C67   S    
C64   C86   A    
C61   H16   S    
C5    C87   S    
C97   H30   S    
C9    C26   A    
N4    Ni3   S    
N15   N16   A    
Br2   C33   S    
C9    C22   A    
C51   C78   A    
C4    C95   S    
C3    H21   S    
C33   C36   A    
C41   C81   S    
C59   C83   A    
C8    C21   A    
C98   H18   S    
C50   H5    S    
N18   Ni4   S    
C20   C29   A    
C95   C97   S    
C62   N17   A    
C68   C78   A    
N8    N28   A    
C19   C28   A    
C91   C99   S    
C22   C31   A    
C93   H26   S    
C69   C88   A    
C36   C42   A    
C93   C98   S    
C71   C87   A    
Br7   C39   S    
C95   H28   S    
C54   H9    S    
C5    C97   S    
C25   C75   S    
C90   C98   S    
C12   C17   A    
Br9   C64   S    
C66   N21   A    
Br1   C63   S    
N24   Ni7   S    
N3    N12   A    
C13   H12   S    
C26   C72   S    
C19   H36   S    
C53   C76   A    
C51   H6    S    
C94   C100  S    
C62   C83   A    
C92   C99   S    
C49   C72   A    
Br3   C34   S    
N27   N32   A    
N22   Ni8   S    
N26   Ni5   S    
N25   Ni6   S    
C65   N20   A    
N30   Ni7   S    
C34   C41   A    
C55   N10   A    
C21   H38   S    
C14   C30   A    
C18   C27   A    
C71   N26   A    
C44   C84   S    
C79   H51   S    
C2    C99   S    
C18   H35   S    
C59   H14   S    
C54   N9    A    
C32   C42   A    
C100  H20   S    
C3    C95   S    
C60   C84   A    
Br10  C65   S    
C52   C77   A    
C45   H52   S    
C68   N30   A    
N24   N25   A    
N18   N21   A    
C66   C85   A    
C2    C89   S    
N19   N20   A    
C70   N25   A    
C35   N27   A    
C59   N14   A    
C50   N5    A    
Br15  C71   S    
C24   N23   A    
C99   H19   S    
C48   N3    A    
N9    N13   A    
C57   C77   A    
C7    H41   S    
C47   C74   A    
N20   Ni2   S    
N31   Ni8   S    
N1    N4    A    
C64   N19   A    
C15   C23   A    
C86   C90   S    
C48   C73   A    
C1    N1    A    
C94   H27   S    
C62   H17   S    
C94   C96   S    
C68   H50   S    
C4    C88   S    
N3    Ni4   S    
N1    Ni1   S    
C6    C25   A    
C79   N31   A    
C7    C20   A    
C58   H13   S    
Br13  C69   S    
C79   C80   A    
C8    C27   A    
C63   C85   A    
C17   H33   S    
C56   N11   A    
C24   C74   A    
C21   C30   A    
C46   C76   A    
C29   C80   S    
N14   N17   A    
N32   Ni2   S    
C45   C75   A    
C12   H47   S    
C2    C85   S    
