data_mof_unit_49953.cif
_audit_creation_date              2012-12-10T17:30:22-0500
_audit_creation_method            fapswitch 2.2
_symmetry_space_group_name_H-M    P1
_symmetry_Int_Tables_number       1
_space_group_crystal_system       triclinic
_cell_length_a                    11.965868
_cell_length_b                    12.896888
_cell_length_c                    15.006317
_cell_angle_alpha                 90.039225
_cell_angle_beta                  86.110682
_cell_angle_gamma                 93.121562
_cell_volume                      2307.0395976

loop_
_atom_site_label
_atom_site_type_symbol
_atom_type_description
_atom_site_fract_x
_atom_site_fract_y
_atom_site_fract_z
_atom_type_partial_charge
C1    C     C_R   0.521868 0.700505 0.498516 0.892838
C2    C     C_R   0.478132 0.299495 0.501484 0.892838
C3    C     C_R   0.295473 0.499499 0.964663 -0.215500
C4    C     C_R   0.704526 0.500501 0.035337 -0.215500
C5    C     C_R   0.465278 0.188228 0.501993 -0.059509
C6    C     C_R   0.534722 0.811772 0.498007 -0.059509
C7    C     C_R   0.650043 0.969836 0.504009 -0.210005
C8    C     C_R   0.349957 0.030164 0.495991 -0.210005
C9    C     C_R   0.640749 0.862487 0.501878 -0.193756
C10   C     C_R   0.359251 0.137513 0.498122 -0.193756
C11   C     C_R   0.438272 0.867691 0.495303 -0.271093
C12   C     C_R   0.561728 0.132309 0.504697 -0.271093
C13   C     C_R   0.446666 0.974303 0.497746 0.181487
C14   C     C_R   0.553334 0.025697 0.502254 0.181487
C15   C     C_R   0.957314 0.418929 0.404274 0.465527
C16   C     C_R   0.042685 0.581071 0.595726 0.465527
C17   C     C_R   0.840020 0.423802 0.416008 -0.104643
C18   C     C_R   0.159980 0.576198 0.583992 -0.104645
C19   C     C_R   0.856474 0.533083 0.542047 -0.049435
C20   C     C_R   0.143526 0.466917 0.457953 -0.049437
C21   C     C_R   0.974520 0.529106 0.534871 -0.102417
C22   C     C_R   0.025480 0.470894 0.465129 -0.102419
C23   C     C_R   0.500159 0.500218 0.673468 0.902069
C24   C     C_R   0.499841 0.499782 0.326532 0.902070
C25   C     C_R   0.601814 0.499701 0.179362 -0.256752
C26   C     C_R   0.398186 0.500299 0.820638 -0.256752
C27   C     C_R   0.499696 0.499494 0.230648 -0.074671
C28   C     C_R   0.500304 0.500506 0.769352 -0.074672
C29   C     C_R   0.397644 0.499101 0.190372 -0.254738
C30   C     C_R   0.602356 0.500899 0.809628 -0.254738
C31   C     C_R   0.396999 0.499285 0.098228 0.120649
C32   C     C_R   0.603001 0.500714 0.901772 0.120649
C33   C     C_R   0.499924 0.499806 0.046354 0.060726
C34   C     C_R   0.500076 0.500193 0.953646 0.060726
C35   C     C_R   0.602703 0.499949 0.087177 0.119984
C36   C     C_R   0.397297 0.500050 0.912822 0.119984
C37   C     C_R   0.295320 0.499070 0.057256 -0.215280
C38   C     C_R   0.704680 0.500929 0.942744 -0.215280
H1    H     H_    0.680719 0.500028 0.210978 0.156944
H2    H     H_    0.319281 0.499971 0.789022 0.156943
H3    H     H_    0.318717 0.498547 0.230520 0.160555
H4    H     H_    0.681283 0.501453 0.769480 0.160556
H5    H     H_    0.216012 0.498637 0.096751 0.136761
H6    H     H_    0.783987 0.501363 0.903249 0.136762
H7    H     H_    0.216268 0.499380 0.933622 0.139446
H8    H     H_    0.783732 0.500620 0.066378 0.139446
H9    H     H_    0.643896 0.171432 0.508274 0.166768
H10   H     H_    0.356104 0.828568 0.491726 0.166767
H11   H     H_    0.284220 0.180550 0.495934 0.170710
H12   H     H_    0.715780 0.819450 0.504066 0.170711
H13   H     H_    0.732145 0.008979 0.507346 0.147324
H14   H     H_    0.267855 0.991020 0.492654 0.147324
H15   H     H_    0.184735 0.422000 0.405713 0.181252
H16   H     H_    0.815265 0.578000 0.594287 0.181253
H17   H     H_    0.213076 0.617246 0.629442 0.153242
H18   H     H_    0.786924 0.382755 0.370558 0.153244
N1    N     N_R   0.207800 0.519350 0.516680 -0.134640
N2    N     N_R   0.792200 0.480650 0.483320 -0.134641
O1    O     O_R   0.421700 0.658830 0.504450 -0.623467
O2    O     O_R   0.578300 0.341170 0.495550 -0.623467
O3    O     O_R   0.609310 0.646410 0.493750 -0.623483
O4    O     O_R   0.390690 0.353590 0.506250 -0.623483
O5    O     O_R   0.406180 0.506230 0.637500 -0.630667
O6    O     O_R   0.593820 0.493770 0.362500 -0.630667
O7    O     O_R   0.593800 0.493820 0.626800 -0.629730
O8    O     O_R   0.406200 0.506180 0.373200 -0.629730
Zn1   Zn    Zn3+2 0.374730 0.508290 0.507150 0.945532
Zn2   Zn    Zn3+2 0.625270 0.491710 0.492850 0.945532
O9    O     O_3   0.004180 0.359203 0.336507 -0.609454
C39   C     C_3   0.010185 0.417080 0.256481 -0.359022
H19   H     H_    0.051607 0.370832 0.202675 0.201480
H20   H     H_    0.061764 0.491010 0.262352 0.156215
H21   H     H_    0.925082 0.433030 0.236003 0.158755
O10   O     O_3   0.995820 0.640797 0.663493 -0.609455
C40   C     C_3   0.989825 0.582924 0.743521 -0.359022
H22   H     H_    0.938254 0.508988 0.737654 0.156215
H23   H     H_    0.948399 0.629171 0.797326 0.201480
H24   H     H_    0.074931 0.566985 0.763997 0.158755

loop_
_geom_bond_atom_site_label_1
_geom_bond_atom_site_label_2
_ccdc_geom_bond_type
C16   C21   A    
C27   C29   A    
C24   C27   S    
C6    C9    A    
C4    H8    S    
C8    C13   A    
O4    Zn1   S    
C16   O10   S    
O6    Zn2   S    
C19   C21   A    
C1    O1    A    
C2    O2    A    
C7    C9    A    
C13   C14   A    
O1    Zn1   S    
C15   C22   A    
C31   C33   A    
C39   H19   S    
C32   C38   A    
C8    H14   S    
C24   O8    A    
C17   N2    A    
C23   O5    A    
O8    Zn1   S    
C4    C35   A    
C24   O6    A    
C21   C22   A    
C11   H10   S    
N1    Zn1   S    
C12   H9    S    
C7    C14   A    
C19   N2    A    
C15   O9    S    
O5    Zn1   S    
O10   C40   S    
C1    C6    S    
C5    C12   A    
C6    C11   A    
C3    H7    S    
C31   C37   A    
C32   C34   A    
C37   H5    S    
C40   H22   S    
C38   H6    S    
C18   N1    A    
O7    Zn2   S    
C39   H21   S    
C33   C34   A    
C23   C28   S    
C40   H23   S    
C17   H18   S    
O2    Zn2   S    
C18   H17   S    
C25   C35   A    
C19   H16   S    
N2    Zn2   S    
C12   C14   A    
C2    C5    S    
C26   C36   A    
C15   C17   A    
C29   H3    S    
C8    C10   A    
C9    H12   S    
C20   C22   A    
C20   H15   S    
C1    O3    A    
C25   C27   A    
C26   C28   A    
C23   O7    A    
C28   C30   A    
C7    H13   S    
C5    C10   A    
C29   C31   A    
C25   H1    S    
C30   C32   A    
C11   C13   A    
O3    Zn2   S    
C26   H2    S    
C3    C36   A    
C33   C35   A    
C34   C36   A    
O9    C39   S    
C40   H24   S    
C3    C37   A    
C16   C18   A    
C30   H4    S    
C39   H20   S    
C20   N1    A    
C4    C38   A    
C10   H11   S    
C2    O4    A    
