data_mof_unit_55098.cif
_audit_creation_date              2012-12-10T17:27:10-0500
_audit_creation_method            fapswitch 2.2
_symmetry_space_group_name_H-M    P1
_symmetry_Int_Tables_number       1
_space_group_crystal_system       triclinic
_cell_length_a                    18.543173
_cell_length_b                    17.868576
_cell_length_c                    11.93729
_cell_angle_alpha                 89.787328
_cell_angle_beta                  81.779542
_cell_angle_gamma                 89.39845
_cell_volume                      3914.43751133

loop_
_atom_site_label
_atom_site_type_symbol
_atom_type_description
_atom_site_fract_x
_atom_site_fract_y
_atom_site_fract_z
_atom_type_partial_charge
C1    C     C_R   0.403590 0.105173 0.523531 1.014781
C2    C     C_R   0.535009 0.998225 0.016354 0.029894
C3    C     C_R   0.964962 0.501535 0.983648 0.046862
C4    C     C_R   0.035016 0.498700 0.016358 0.047218
C5    C     C_R   0.587370 0.997608 0.820017 0.125930
C6    C     C_R   0.412635 0.002764 0.179987 0.105246
C7    C     C_R   0.087374 0.498870 0.820031 0.101638
C8    C     C_R   0.912620 0.502166 0.179998 0.105201
C9    C     C_R   0.596645 0.996317 0.933852 -0.225227
C10   C     C_R   0.403349 0.003927 0.066152 -0.217383
C11   C     C_R   0.096664 0.497652 0.933856 -0.209515
C12   C     C_R   0.595838 0.894432 0.476444 0.973278
C13   C     C_R   0.903322 0.503101 0.066166 -0.202388
C14   C     C_R   0.458693 0.003029 0.868593 0.124543
C15   C     C_R   0.541299 0.996949 0.131393 0.143917
C16   C     C_R   0.958668 0.502481 0.868600 0.161109
C17   C     C_R   0.041315 0.497427 0.131389 0.140680
C18   C     C_R   0.654039 0.160675 0.456705 -0.296407
C19   C     C_R   0.347255 0.838271 0.544010 -0.281878
C20   C     C_R   0.354627 0.170381 0.541121 -0.320868
C21   C     C_R   0.642846 0.827771 0.458333 -0.291462
C22   C     C_R   0.154064 0.660685 0.456762 -0.297381
C23   C     C_R   0.599071 0.102207 0.475625 1.015162
C24   C     C_R   0.847251 0.338251 0.543919 -0.281558
C25   C     C_R   0.854748 0.670520 0.541057 -0.295942
C26   C     C_R   0.142734 0.327680 0.458311 -0.262397
C27   C     C_R   0.234840 0.790397 0.643855 -0.128857
C28   C     C_R   0.768447 0.205622 0.358866 -0.182189
C29   C     C_R   0.746439 0.767964 0.347967 -0.118222
C30   C     C_R   0.248628 0.226611 0.650888 -0.151563
C31   C     C_R   0.734859 0.290315 0.643757 -0.128563
C32   C     C_R   0.268570 0.705527 0.359093 -0.182261
C33   C     C_R   0.246441 0.268068 0.348022 -0.120666
C34   C     C_R   0.400999 0.897798 0.524521 0.985250
C35   C     C_R   0.749419 0.727952 0.651050 -0.147059
C36   C     C_R   0.293437 0.837929 0.640941 0.394771
C37   C     C_R   0.708708 0.159622 0.360810 0.345037
C38   C     C_R   0.682261 0.808665 0.350798 0.401959
C39   C     C_R   0.314098 0.188127 0.648343 0.393425
C40   C     C_R   0.793471 0.337813 0.640905 0.394751
C41   C     C_R   0.208789 0.659603 0.360942 0.345205
C42   C     C_R   0.182257 0.308733 0.350803 0.409127
C43   C     C_R   0.814578 0.688805 0.648375 0.304329
C44   C     C_R   0.344830 0.784547 0.458164 0.264080
C45   C     C_R   0.903593 0.605188 0.523531 1.016221
C46   C     C_R   0.657563 0.213516 0.543505 0.353147
C47   C     C_R   0.656846 0.787112 0.554664 0.381599
C48   C     C_R   0.339566 0.210024 0.444320 0.366789
C49   C     C_R   0.844760 0.284631 0.457917 0.261626
C50   C     C_R   0.157581 0.713524 0.543583 0.358300
C51   C     C_R   0.156469 0.286710 0.554527 0.272616
C52   C     C_R   0.839684 0.710080 0.444181 0.365808
C53   C     C_R   0.279579 0.746268 0.454713 -0.069205
C54   C     C_R   0.723427 0.250425 0.547575 -0.092475
C55   C     C_R   0.724832 0.751683 0.551459 -0.087365
C56   C     C_R   0.095810 0.394407 0.476455 0.961618
C57   C     C_R   0.271073 0.244361 0.447603 -0.093024
C58   C     C_R   0.779502 0.246348 0.454492 -0.068289
C59   C     C_R   0.223455 0.750414 0.547719 -0.093069
C60   C     C_R   0.224360 0.251011 0.551362 -0.093981
C61   C     C_R   0.771262 0.744550 0.447541 -0.110730
C62   C     C_R   0.099070 0.602220 0.475635 1.016343
C63   C     C_R   0.900998 0.397791 0.524509 0.983842
C64   C     C_R   0.464979 0.001848 0.983639 0.041127
H1    H     H_    0.593984 0.993314 0.159181 0.214570
H2    H     H_    0.634468 0.995982 0.755120 0.153449
H3    H     H_    0.865522 0.503540 0.244908 0.141456
H4    H     H_    0.134484 0.498177 0.755128 0.130867
H5    H     H_    0.470376 0.266842 0.600333 0.402077
H6    H     H_    0.376479 0.831234 0.243928 0.318488
H7    H     H_    0.525405 0.217733 0.284809 0.406801
H8    H     H_    0.560752 0.820628 0.840031 0.398488
H9    H     H_    0.970147 0.766577 0.601109 0.392125
H10   H     H_    0.876075 0.331208 0.243491 0.318267
H11   H     H_    0.025452 0.717664 0.284533 0.406869
H12   H     H_    0.406008 0.006508 0.840787 0.213616
H13   H     H_    0.146773 0.352745 0.757770 0.320764
H14   H     H_    0.779421 0.148498 0.103426 0.373923
H15   H     H_    0.222102 0.925652 0.911694 0.399852
H16   H     H_    0.324274 0.230754 0.943361 0.414212
H17   H     H_    0.671219 0.769498 0.054755 0.410934
H18   H     H_    0.279668 0.648478 0.103574 0.372603
H19   H     H_    0.722438 0.424860 0.912300 0.399553
H20   H     H_    0.841918 0.788941 0.831546 0.370325
H21   H     H_    0.171888 0.269892 0.054507 0.410204
H22   H     H_    0.696943 0.286597 0.720972 0.255132
H23   H     H_    0.094019 0.494123 0.159161 0.214309
H24   H     H_    0.307384 0.707731 0.282806 0.221537
H25   H     H_    0.276925 0.254813 0.266390 0.248834
H26   H     H_    0.718492 0.740768 0.732578 0.250942
H27   H     H_    0.196883 0.786772 0.721037 0.255613
H28   H     H_    0.807204 0.207864 0.282520 0.221908
H29   H     H_    0.776792 0.754476 0.266328 0.258249
H30   H     H_    0.217313 0.238371 0.732434 0.234612
H31   H     H_    0.905960 0.505517 0.840812 0.203849
H32   H     H_    0.651025 0.993821 0.957033 0.203406
H33   H     H_    0.348968 0.006476 0.042976 0.185634
H34   H     H_    0.151066 0.495971 0.957027 0.197854
H35   H     H_    0.848924 0.505083 0.042994 0.186465
H36   H     H_    0.365544 0.004508 0.244889 0.141483
N1    N     N_R   0.480750 0.000000 0.209750 -0.111398
N2    N     N_R   0.519250 0.000000 0.790250 -0.116175
N3    N     N_R   0.980750 0.500000 0.209750 -0.112960
N4    N     N_R   0.019250 0.500000 0.790250 -0.106095
O1    O     O_R   0.418020 0.076820 0.422210 -0.599942
O2    O     O_R   0.569630 0.923170 0.391410 -0.550618
O3    O     O_R   0.569630 0.076830 0.391410 -0.552974
O4    O     O_R   0.430370 0.923170 0.608590 -0.543093
O5    O     O_R   0.930370 0.576830 0.608590 -0.547334
O6    O     O_R   0.069630 0.423170 0.391410 -0.548214
O7    O     O_R   0.069630 0.576830 0.391410 -0.552862
O8    O     O_R   0.930370 0.423170 0.608590 -0.539875
O9    O     O_2   0.575994 0.195559 0.746738 -0.231408
O10   O     O_2   0.579505 0.321810 0.665512 -0.252214
O11   O     O_3   0.502866 0.223065 0.580610 -0.517282
O12   O     O_R   0.581980 0.923180 0.577790 -0.605163
O13   O     O_2   0.491624 0.779165 0.412740 -0.231924
O14   O     O_2   0.426605 0.677591 0.338753 -0.195509
O15   O     O_3   0.425065 0.806969 0.239296 -0.472361
O16   O     O_2   0.394954 0.172880 0.230589 -0.303804
O17   O     O_2   0.404102 0.304085 0.284385 -0.236302
O18   O     O_3   0.492357 0.208785 0.356302 -0.510089
O19   O     O_2   0.512939 0.789124 0.642177 -0.242689
O20   O     O_2   0.589672 0.692832 0.711736 -0.224792
O21   O     O_3   0.602355 0.829103 0.779573 -0.581339
O22   O     O_2   0.075999 0.695706 0.746806 -0.232349
O23   O     O_R   0.581980 0.076820 0.577790 -0.605729
O24   O     O_2   0.079500 0.821894 0.665351 -0.259562
O25   O     O_3   0.002875 0.723083 0.580614 -0.521766
O26   O     O_2   0.991555 0.279294 0.412119 -0.233937
O27   O     O_2   0.926482 0.177810 0.338043 -0.194442
O28   O     O_3   0.924823 0.307312 0.238968 -0.463098
O29   O     O_2   0.894989 0.672429 0.230629 -0.284717
O30   O     O_2   0.904081 0.803797 0.283624 -0.232389
O31   O     O_3   0.992415 0.708800 0.356063 -0.512914
O32   O     O_2   0.012463 0.288591 0.640888 -0.209283
O33   O     O_2   0.088686 0.192250 0.710739 -0.198715
O34   O     O_R   0.418020 0.923180 0.422210 -0.632184
O35   O     O_3   0.099568 0.327880 0.781447 -0.504768
O36   O     O_2   0.698394 0.020844 0.285113 -0.250438
O37   O     O_2   0.645104 0.122024 0.182580 -0.332971
O38   O     O_3   0.785804 0.104853 0.152616 -0.458943
O39   O     O_2   0.357071 0.876039 0.818295 -0.301339
O40   O     O_2   0.301668 0.976920 0.716826 -0.291226
O41   O     O_3   0.216279 0.890585 0.849602 -0.497081
O42   O     O_2   0.304588 0.103721 0.835937 -0.273322
O43   O     O_2   0.422692 0.163841 0.778358 -0.215241
O44   O     O_3   0.314409 0.245705 0.866954 -0.528791
O45   O     O_R   0.918020 0.576820 0.422210 -0.601834
O46   O     O_2   0.574910 0.837738 0.220385 -0.205331
O47   O     O_2   0.694682 0.894727 0.164758 -0.261753
O48   O     O_3   0.681021 0.753551 0.130766 -0.487212
O49   O     O_2   0.198264 0.520928 0.285050 -0.250752
O50   O     O_2   0.145276 0.622339 0.182538 -0.333975
O51   O     O_3   0.285942 0.604823 0.152799 -0.460164
O52   O     O_2   0.857268 0.375367 0.818290 -0.283799
O53   O     O_2   0.801844 0.476627 0.717566 -0.295031
O54   O     O_3   0.716495 0.390043 0.849954 -0.497433
O55   O     O_2   0.804949 0.604150 0.835732 -0.224401
O56   O     O_R   0.081980 0.423180 0.577790 -0.626744
O57   O     O_2   0.923159 0.663410 0.778744 -0.219354
O58   O     O_3   0.815302 0.745480 0.868151 -0.487235
O59   O     O_2   0.074994 0.337850 0.220199 -0.192619
O60   O     O_2   0.194742 0.394926 0.164847 -0.264171
O61   O     O_3   0.181209 0.253751 0.130673 -0.514067
O62   O     O_R   0.081980 0.576820 0.577790 -0.605280
O63   O     O_R   0.918020 0.423180 0.422210 -0.631991
O64   O     O_R   0.430370 0.076830 0.608590 -0.546063
S1    S     S_3+6 0.578121 0.239615 0.638861 0.089317
S2    S     S_3+6 0.293965 0.897641 0.758394 0.052023
S3    S     S_3+6 0.341732 0.172127 0.783346 0.070451
S4    S     S_3+6 0.655548 0.826945 0.215774 0.097071
S5    S     S_3+6 0.207744 0.600030 0.243444 0.058732
S6    S     S_3+6 0.794124 0.397240 0.758648 0.054410
S7    S     S_3+6 0.842293 0.672453 0.783280 0.086131
S8    S     S_3+6 0.155629 0.327097 0.215730 0.096117
S9    S     S_3+6 0.424683 0.760265 0.362151 0.116845
S10   S     S_3+6 0.408220 0.224476 0.324483 0.063048
S11   S     S_3+6 0.587274 0.772866 0.672970 0.078850
S12   S     S_3+6 0.078123 0.739676 0.638853 0.081191
S13   S     S_3+6 0.924551 0.260455 0.361667 0.118984
S14   S     S_3+6 0.908260 0.724300 0.324188 0.068735
S15   S     S_3+6 0.086526 0.272431 0.672674 0.112778
S16   S     S_3+6 0.707678 0.099942 0.243401 0.059440
Zn1   Zn    Zn3+2 0.491750 0.000000 0.375560 1.106586
Zn2   Zn    Zn3+2 0.508250 0.000000 0.624440 1.119218
Zn3   Zn    Zn3+2 0.991750 0.500000 0.375560 1.107867
Zn4   Zn    Zn3+2 0.008250 0.500000 0.624440 1.121260

loop_
_geom_bond_atom_site_label_1
_geom_bond_atom_site_label_2
_ccdc_geom_bond_type
O10   S1    D    
O38   S16   S    
C8    C13   A    
H10   O28   S    
H7    O18   S    
O11   S1    S    
C25   C43   A    
C48   S10   S    
C53   C59   A    
H20   O58   S    
C48   C57   A    
H15   O41   S    
O61   S8    S    
C7    C11   A    
O52   S6    D    
N2    Zn2   S    
C11   H34   S    
O62   Zn4   S    
C33   C42   A    
O4    Zn2   S    
C18   C37   A    
C52   S14   S    
C51   S15   S    
C52   C61   A    
H14   O38   S    
O48   S4    S    
C45   O5    A    
C14   N2    A    
C22   C41   A    
C32   H24   S    
O49   S5    D    
O44   S3    S    
C4    C17   A    
C31   C40   A    
C6    N1    A    
O1    Zn1   S    
C63   O8    A    
O16   S10   D    
O20   S11   D    
C47   S11   S    
C24   C40   A    
C7    H4    S    
O41   S2    S    
C43   S7    S    
C44   C53   A    
C16   N4    A    
O46   S4    D    
C21   C38   A    
O13   S9    D    
C1    C20   S    
C30   C60   A    
C29   C38   A    
O21   S11   S    
C39   S3    S    
C32   C41   A    
O22   S12   D    
O24   S12   D    
C35   C43   A    
C45   O45   A    
C3    C13   A    
O53   S6    D    
C22   C50   A    
O51   S5    S    
C63   O63   A    
C23   O3    A    
C31   H22   S    
O55   S7    D    
O42   S3    D    
O30   S14   D    
N1    Zn1   S    
O59   S8    D    
C18   C46   A    
C56   O6    A    
C2    C64   A    
H9    O25   S    
O5    Zn4   S    
N4    Zn4   S    
O25   S12   S    
C29   C61   A    
O6    Zn3   S    
O64   Zn2   S    
C62   O7    A    
C35   C55   A    
C18   C23   S    
O34   Zn1   S    
N3    Zn3   S    
O43   S3    D    
O19   S11   D    
C20   C39   A    
C14   C64   A    
C57   C60   A    
O9    S1    D    
O58   S7    S    
C1    O64   A    
C37   S16   S    
O12   Zn2   S    
C12   C21   S    
C19   C34   S    
O47   S4    D    
C26   C56   S    
C14   H12   S    
C13   H35   S    
C10   H33   S    
C50   S12   S    
O14   S9    D    
C5    C9    A    
C33   H25   S    
O28   S13   S    
C22   C62   S    
O23   Zn2   S    
H6    O15   S    
O63   Zn3   S    
C46   C54   A    
C28   H28   S    
O36   S16   D    
C15   N1    A    
C4    C11   A    
C27   H27   S    
C2    C15   A    
C9    H32   S    
C20   C48   A    
C49   S13   S    
H18   O51   S    
C62   O62   A    
O45   Zn3   S    
C24   C63   S    
C7    N4    A    
C50   C59   A    
C3    C4    A    
C25   C45   S    
C32   C53   A    
O40   S2    D    
O35   S15   S    
C19   C44   A    
C26   C42   A    
C47   C55   A    
C54   C58   A    
C24   C49   A    
O18   S10   S    
C41   S5    S    
C5    N2    A    
H5    O11   S    
C16   H31   S    
C33   C57   A    
O50   S5    D    
C17   H23   S    
C36   S2    S    
C10   C64   A    
H13   O35   S    
O39   S2    D    
C5    H2    S    
O26   S13   D    
O54   S6    S    
C44   S9    S    
O8    Zn4   S    
C38   S4    S    
O17   S10   D    
O33   S15   D    
C28   C58   A    
C27   C36   A    
C12   O2    A    
H17   O48   S    
O3    Zn1   S    
C23   O23   A    
O7    Zn3   S    
C46   S1    S    
H8    O21   S    
C19   C36   A    
O37   S16   D    
C34   O4    A    
C17   N3    A    
C25   C52   A    
H21   O61   S    
C30   H30   S    
C42   S8    S    
C26   C51   A    
C29   H29   S    
O27   S13   D    
H19   O54   S    
C28   C37   A    
O57   S7    D    
C55   C61   A    
O32   S15   D    
O2    Zn1   S    
C34   O34   A    
C30   C39   A    
O60   S8    D    
H11   O31   S    
C31   C54   A    
C8    N3    A    
C6    C10   A    
C49   C58   A    
C35   H26   S    
O29   S14   D    
H16   O44   S    
C40   S6    S    
C8    H3    S    
C56   O56   A    
C1    O1    A    
O56   Zn4   S    
C27   C59   A    
C51   C60   A    
O15   S9    S    
O31   S14   S    
C21   C47   A    
C2    C9    A    
C3    C16   A    
C6    H36   S    
C12   O12   A    
C15   H1    S    
