data_mof_unit_66062.cif
_audit_creation_date              2012-12-10T17:13:34-0500
_audit_creation_method            fapswitch 2.2
_symmetry_space_group_name_H-M    P1
_symmetry_Int_Tables_number       1
_space_group_crystal_system       triclinic
_cell_length_a                    10.902796
_cell_length_b                    13.136426
_cell_length_c                    11.691114
_cell_angle_alpha                 99.095381
_cell_angle_beta                  94.655213
_cell_angle_gamma                 90.274036
_cell_volume                      1647.67368299

loop_
_atom_site_label
_atom_site_type_symbol
_atom_type_description
_atom_site_fract_x
_atom_site_fract_y
_atom_site_fract_z
_atom_type_partial_charge
C1    C     C_R   0.503969 0.299366 0.479761 0.893774
C2    C     C_3   0.877602 0.488004 0.500905 -0.372831
C3    C     C_3   0.932736 0.601335 0.535604 0.570901
C4    C     C_3   0.916556 0.440624 0.375972 0.608328
C5    C     C_R   0.480795 0.812824 0.527728 -0.372114
C6    C     C_R   0.508178 0.186243 0.469079 -0.364644
C7    C     C_R   0.495123 0.020601 0.343830 0.653084
C8    C     C_R   0.498763 0.126951 0.357692 0.554006
C9    C     C_R   0.521340 0.135721 0.567717 0.231990
C10   C     C_R   0.497862 0.028744 0.553730 -0.273197
C11   C     C_R   0.486398 0.969656 0.440402 -0.266910
C12   C     C_R   0.259903 0.493964 0.499438 0.877923
C13   C     C_R   0.468312 0.861721 0.427251 0.228861
C14   C     C_R   0.480335 0.873108 0.637895 0.531815
C15   C     C_R   0.484098 0.979285 0.650301 0.657335
C16   C     C_R   0.393623 0.396322 0.020797 -0.184434
C17   C     C_R   0.401158 0.407572 0.142655 0.747112
C18   C     C_R   0.547759 0.543155 0.158430 0.822914
C19   C     C_R   0.540617 0.536249 0.035724 -0.315181
C20   C     C_R   0.463388 0.461371 0.965902 -0.300783
C21   C     C_R   0.458360 0.453028 0.842990 0.804759
C22   C     C_R   0.599336 0.593139 0.859553 0.208503
C23   C     C_R   0.492484 0.700255 0.519695 0.894676
C24   C     C_R   0.609043 0.601748 0.981312 0.605897
C25   C     C_R   0.739680 0.491969 0.499936 0.860389
C26   C     C_3   0.080139 0.436978 0.606616 0.234797
C27   C     C_3   0.936445 0.417595 0.589704 0.552218
C28   C     C_3   0.070886 0.604130 0.507167 0.118804
C29   C     C_3   0.059952 0.426913 0.382574 -0.111045
C30   C     C_3   0.122133 0.489908 0.500423 -0.367030
Cu1   Cu    Cu3+1 0.509350 0.507730 0.615930 1.105278
Cu2   Cu    Cu3+1 0.490650 0.492270 0.384070 1.134017
H1    H     H_    0.333259 0.337176 0.970196 0.248652
H2    H     H_    0.092783 0.458757 0.308241 0.225161
N1    N     N_R   0.523430 0.519360 0.790130 -0.311787
N2    N     N_R   0.476570 0.480640 0.209880 -0.326362
O1    O     O_R   0.506640 0.354460 0.582000 -0.544309
O2    O     O_R   0.490840 0.341410 0.386200 -0.494294
O3    O     O_R   0.325590 0.506510 0.597900 -0.544411
O4    O     O_R   0.309790 0.493450 0.402100 -0.571036
O5    O     O_R   0.509160 0.658590 0.613800 -0.528975
O6    O     O_R   0.493360 0.645540 0.418000 -0.548951
O7    O     O_R   0.690210 0.506550 0.597900 -0.574002
O8    O     O_R   0.674410 0.493490 0.402100 -0.514820
I1    I     I_    0.143693 0.522384 0.779443 -0.055491
F1    F     F_    0.886310 0.509733 0.300421 -0.602548
I2    I     I_    0.100156 0.668518 0.349148 -0.110309
I3    I     I_    0.821183 0.721092 0.470201 0.013183
I4    I     I_    0.393650 0.779716 0.260754 -0.004373
F2    F     F_    0.469930 0.829834 0.734811 -0.562493
F3    F     F_    0.506566 0.969774 0.235087 -0.532067
F4    F     F_    0.467074 0.032300 0.757005 -0.542807
F5    F     F_    0.498967 0.171140 0.260173 -0.535591
I5    I     I_    0.611219 0.210448 0.730333 -0.004446
F6    F     F_    0.390014 0.376845 0.776729 -0.617976
I6    I     I_    0.166858 0.291104 0.627592 -0.013961
I7    I     I_    0.713626 0.700541 0.798019 0.121635
F7    F     F_    0.685093 0.675055 0.046068 -0.521394
F8    F     F_    0.334571 0.342982 0.193124 -0.582340
F9    F     F_    0.626408 0.611692 0.226740 -0.530289
F10   F     F_    0.912973 0.316051 0.539335 -0.646937
I8    I     I_    0.856998 0.416188 0.756170 -0.062623
I9    I     I_    0.171415 0.726838 0.625325 -0.057306
F11   F     F_    0.929449 0.627988 0.654298 -0.630762
I10   I     I_    0.127266 0.272521 0.327282 -0.019487
I11   I     I_    0.810042 0.302492 0.292546 0.014304

loop_
_geom_bond_atom_site_label_1
_geom_bond_atom_site_label_2
_ccdc_geom_bond_type
C8    F5    S    
C12   O4    A    
C2    C4    S    
C28   I2    S    
C29   C30   S    
C21   N1    A    
C17   N2    A    
Cu2   O2    S    
C16   H1    S    
C5    C14   A    
C9    C10   A    
C19   C20   A    
C5    C13   A    
C4    C29   S    
C23   O5    A    
C1    O1    A    
C16   C20   A    
C25   O7    A    
C22   I7    S    
C28   C30   S    
C19   C24   A    
Cu2   O8    S    
C7    F3    S    
C7    C8    A    
Cu1   O5    S    
C4    F1    S    
C3    F11   S    
C4    I11   S    
C22   N1    A    
C11   C13   A    
C26   C27   S    
C2    C27   S    
C23   O6    A    
Cu1   O7    S    
C1    O2    A    
C17   F8    S    
C13   I4    S    
Cu2   N2    S    
C25   O8    A    
C18   F9    S    
C3    C28   S    
C27   I8    S    
Cu1   O3    S    
C26   C30   S    
C2    C25   S    
C2    C3    S    
C10   C15   A    
Cu2   O4    S    
C6    C8    A    
C29   I10   S    
C10   C11   A    
C14   F2    S    
C1    C6    S    
C28   I9    S    
Cu1   O1    S    
C3    I3    S    
C6    C9    A    
C20   C21   A    
C24   F7    S    
C18   C19   A    
C22   C24   A    
C21   F6    S    
Cu2   O6    S    
C14   C15   A    
C7    C11   A    
Cu1   N1    S    
C9    I5    S    
C27   F10   S    
C26   I1    S    
C12   C30   S    
C15   F4    S    
C18   N2    A    
C29   H2    S    
C12   O3    A    
Cu1   Cu2   S    
C26   I6    S    
C16   C17   A    
C5    C23   S    
