data_mof_unit_49026.cif
_audit_creation_date              2013-03-05T15:49:46-0500
_audit_creation_method            fapswitch 2.2
_symmetry_space_group_name_H-M    P1
_symmetry_Int_Tables_number       1
_space_group_crystal_system       orthorhombic
_cell_length_a                    6.914894
_cell_length_b                    19.629645
_cell_length_c                    23.121893
_cell_angle_alpha                 90.0
_cell_angle_beta                  90.0
_cell_angle_gamma                 90.0
_cell_volume                      3138.49441166

loop_
_atom_site_label
_atom_site_type_symbol
_atom_site_description
_atom_site_fract_x
_atom_site_fract_y
_atom_site_fract_z
_atom_type_partial_charge
O1    O     O_R   0.620180 0.810610 0.187990 -0.564490
O2    O     O_R   0.379820 0.189390 0.812010 -0.564494
O3    O     O_R   0.379820 0.189390 0.687990 -0.564489
O4    O     O_R   0.620180 0.810610 0.312010 -0.564489
O5    O     O_R   0.120180 0.689390 0.312010 -0.564489
O6    O     O_R   0.879820 0.310610 0.687990 -0.564489
O7    O     O_R   0.879820 0.310610 0.812010 -0.564488
O8    O     O_R   0.120180 0.689390 0.187990 -0.564490
O9    O     O_R   0.290420 0.818570 0.311590 -0.569029
O10   O     O_R   0.709580 0.181430 0.688410 -0.569029
O11   O     O_R   0.709580 0.181430 0.811590 -0.569029
O12   O     O_R   0.290420 0.818570 0.188410 -0.569029
O13   O     O_R   0.790420 0.681430 0.188410 -0.569030
O14   O     O_R   0.209580 0.318570 0.811590 -0.569032
O15   O     O_R   0.209580 0.318570 0.688410 -0.569029
O16   O     O_R   0.790420 0.681430 0.311590 -0.569029
C1    C     C_R   0.459787 0.835358 0.331795 1.065082
C2    C     C_R   0.540212 0.164642 0.668205 1.065085
C3    C     C_R   0.540212 0.164642 0.831795 1.065080
C4    C     C_R   0.459787 0.835358 0.168205 1.065083
C5    C     C_R   0.959787 0.664642 0.168205 1.065083
C6    C     C_R   0.040212 0.335358 0.831795 1.065074
C7    C     C_R   0.040212 0.335358 0.668205 1.065084
C8    C     C_R   0.959787 0.664642 0.331795 1.065082
H1    H     H_    0.581846 0.606777 0.514149 0.213913
H2    H     H_    0.418153 0.393222 0.485850 0.213913
H3    H     H_    0.418155 0.393223 0.014148 0.213912
H4    H     H_    0.581846 0.606778 0.985850 0.213913
H5    H     H_    0.081848 0.893222 0.985850 0.213913
H6    H     H_    0.918154 0.106777 0.014149 0.213914
H7    H     H_    0.918153 0.106778 0.485850 0.213913
H8    H     H_    0.081845 0.893223 0.514149 0.213913
O17   O     O_3   0.453640 0.707610 0.250000 -0.230396
O18   O     O_3   0.546360 0.292390 0.750000 -0.230395
O19   O     O_3   0.953640 0.792390 0.250000 -0.230396
O20   O     O_3   0.046360 0.207610 0.750000 -0.230396
V1    V     V_3+5 0.178800 0.757860 0.250000 1.424955
V2    V     V_3+5 0.821200 0.242140 0.750000 1.424955
V3    V     V_3+5 0.678800 0.742140 0.250000 1.424955
V4    V     V_3+5 0.321200 0.257860 0.750000 1.424953
C9    C     C_R   0.163464 0.381013 0.572972 0.372670
C10   C     C_R   0.836536 0.618986 0.427027 0.372670
C11   C     C_R   0.836536 0.618987 0.072972 0.372670
C12   C     C_R   0.163463 0.381014 0.927027 0.372670
C13   C     C_R   0.663464 0.118987 0.927027 0.372671
C14   C     C_R   0.336537 0.881013 0.072972 0.372670
C15   C     C_R   0.336536 0.881014 0.427027 0.372669
C16   C     C_R   0.663463 0.118987 0.572972 0.372670
C17   C     C_R   0.027806 0.384346 0.618488 -0.429041
C18   C     C_R   0.972194 0.615654 0.381512 -0.429041
C19   C     C_R   0.972194 0.615654 0.118488 -0.429040
C20   C     C_R   0.027806 0.384346 0.881512 -0.429043
C21   C     C_R   0.527806 0.115654 0.881512 -0.429042
C22   C     C_R   0.472194 0.884346 0.118488 -0.429040
C23   C     C_R   0.472194 0.884346 0.381512 -0.429040
C24   C     C_R   0.527806 0.115654 0.618488 -0.429041
C25   C     C_R   0.882593 0.435397 0.617016 0.345310
C26   C     C_R   0.117406 0.564602 0.382984 0.345310
C27   C     C_R   0.117406 0.564602 0.117016 0.345311
C28   C     C_R   0.882594 0.435398 0.882984 0.345312
C29   C     C_R   0.382593 0.064603 0.882984 0.345310
C30   C     C_R   0.617407 0.935397 0.117016 0.345310
C31   C     C_R   0.617406 0.935398 0.382984 0.345310
C32   C     C_R   0.382593 0.064602 0.617016 0.345310
C33   C     C_R   0.862031 0.478841 0.567995 -0.112333
C34   C     C_R   0.137969 0.521158 0.432005 -0.112333
C35   C     C_R   0.137969 0.521158 0.067995 -0.112333
C36   C     C_R   0.862031 0.478842 0.932005 -0.112334
C37   C     C_R   0.362032 0.021158 0.932005 -0.112333
C38   C     C_R   0.637969 0.978841 0.067995 -0.112333
C39   C     C_R   0.637968 0.978842 0.432005 -0.112333
C40   C     C_R   0.362031 0.021159 0.567994 -0.112332
C41   C     C_R   0.004207 0.476745 0.523750 0.017767
C42   C     C_R   0.995793 0.523254 0.476249 0.017767
C43   C     C_R   0.995793 0.523255 0.023750 0.017767
C44   C     C_R   0.004207 0.476745 0.976249 0.017766
C45   C     C_R   0.504207 0.023255 0.976249 0.017768
C46   C     C_R   0.495793 0.976745 0.023750 0.017767
C47   C     C_R   0.495792 0.976746 0.476249 0.017767
C48   C     C_R   0.504207 0.023255 0.523750 0.017767
C49   C     C_R   0.155465 0.428408 0.526875 -0.021530
C50   C     C_R   0.844535 0.571592 0.473125 -0.021530
C51   C     C_R   0.844535 0.571592 0.026875 -0.021529
C52   C     C_R   0.155465 0.428408 0.973125 -0.021527
C53   C     C_R   0.655466 0.071592 0.973125 -0.021530
C54   C     C_R   0.344536 0.928408 0.026875 -0.021530
C55   C     C_R   0.344534 0.928408 0.473125 -0.021530
C56   C     C_R   0.655464 0.071592 0.526875 -0.021529
C57   C     C_R   0.705483 0.525334 0.561805 0.501337
C58   C     C_R   0.294517 0.474666 0.438195 0.501338
C59   C     C_R   0.294517 0.474666 0.061805 0.501337
C60   C     C_R   0.705483 0.525334 0.938195 0.501337
C61   C     C_R   0.205484 0.974665 0.938195 0.501335
C62   C     C_R   0.794518 0.025334 0.061805 0.501338
C63   C     C_R   0.794517 0.025334 0.438195 0.501338
C64   C     C_R   0.205482 0.974666 0.561804 0.501339
C65   C     C_R   0.701985 0.571561 0.516168 -0.199623
C66   C     C_R   0.298015 0.428439 0.483832 -0.199623
C67   C     C_R   0.298016 0.428439 0.016167 -0.199620
C68   C     C_R   0.701985 0.571561 0.983832 -0.199623
C69   C     C_R   0.201986 0.928438 0.983832 -0.199622
C70   C     C_R   0.798016 0.071561 0.016168 -0.199623
C71   C     C_R   0.798015 0.071561 0.483832 -0.199623
C72   C     C_R   0.201983 0.928439 0.516167 -0.199623
Cl1   Cl    Cl    0.495926 0.525533 0.605503 -0.503807
Cl2   Cl    Cl    0.504073 0.474467 0.394497 -0.503808
Cl3   Cl    Cl    0.504074 0.474467 0.105503 -0.503807
Cl4   Cl    Cl    0.495927 0.525533 0.894496 -0.503808
Cl5   Cl    Cl    0.995929 0.974465 0.894496 -0.503805
Cl6   Cl    Cl    0.004074 0.025533 0.105503 -0.503806
Cl7   Cl    Cl    0.004073 0.025533 0.394497 -0.503808
Cl8   Cl    Cl    0.995925 0.974468 0.605502 -0.503809
N1    N     N_R   0.783482 0.451801 0.669462 0.251327
O21   O     O_R   0.637313 0.415349 0.686603 -0.267422
O22   O     O_R   0.815198 0.510722 0.693300 -0.248836
N2    N     N_R   0.216516 0.548199 0.330537 0.251326
O23   O     O_R   0.184803 0.489277 0.306700 -0.248836
O24   O     O_R   0.362684 0.584651 0.313396 -0.267423
N3    N     N_R   0.216518 0.548199 0.169462 0.251326
O25   O     O_R   0.362685 0.584651 0.186604 -0.267423
O26   O     O_R   0.184803 0.489277 0.193300 -0.248835
N4    N     N_R   0.783485 0.451802 0.830537 0.251327
O27   O     O_R   0.815200 0.510724 0.806700 -0.248835
O28   O     O_R   0.637319 0.415350 0.813395 -0.267422
N5    N     N_R   0.283481 0.048200 0.830538 0.251327
O29   O     O_R   0.137311 0.084651 0.813397 -0.267423
O30   O     O_R   0.315204 0.989280 0.806698 -0.248838
N6    N     N_R   0.716518 0.951801 0.169462 0.251326
O31   O     O_R   0.684804 0.010722 0.193300 -0.248835
O32   O     O_R   0.862686 0.915349 0.186604 -0.267423
N7    N     N_R   0.716516 0.951801 0.330537 0.251327
O33   O     O_R   0.862683 0.915349 0.313395 -0.267423
O34   O     O_R   0.684801 0.010723 0.306700 -0.248836
N8    N     N_R   0.283484 0.048198 0.669462 0.251327
O35   O     O_R   0.315196 0.989275 0.693299 -0.248834
O36   O     O_R   0.137318 0.084651 0.686605 -0.267423
N9    N     N_R   0.310299 0.329377 0.573658 0.235565
O37   O     O_R   0.488934 0.345561 0.584591 -0.347068
O38   O     O_R   0.263727 0.265725 0.566724 -0.337074
N10   N     N_R   0.689701 0.670623 0.426342 0.235565
O39   O     O_R   0.511066 0.654439 0.415409 -0.347068
O40   O     O_R   0.736272 0.734274 0.433277 -0.337072
N11   N     N_R   0.689701 0.670623 0.073658 0.235565
O41   O     O_R   0.736272 0.734275 0.066724 -0.337074
O42   O     O_R   0.511066 0.654439 0.084591 -0.347068
N12   N     N_R   0.310298 0.329377 0.926342 0.235563
O43   O     O_R   0.488931 0.345560 0.915405 -0.347066
O44   O     O_R   0.263728 0.265727 0.933286 -0.337067
N13   N     N_R   0.810299 0.170623 0.926342 0.235565
O45   O     O_R   0.988934 0.154439 0.915409 -0.347070
O46   O     O_R   0.763726 0.234275 0.933278 -0.337071
N14   N     N_R   0.189701 0.829377 0.073658 0.235565
O47   O     O_R   0.236272 0.765725 0.066724 -0.337073
O48   O     O_R   0.011066 0.845561 0.084590 -0.347068
N15   N     N_R   0.189701 0.829377 0.426342 0.235565
O49   O     O_R   0.011066 0.845561 0.415408 -0.347067
O50   O     O_R   0.236272 0.765726 0.433277 -0.337072
N16   N     N_R   0.810299 0.170623 0.573658 0.235565
O51   O     O_R   0.988934 0.154438 0.584591 -0.347068
O52   O     O_R   0.763728 0.234275 0.566724 -0.337074

loop_
_geom_bond_atom_site_label_1
_geom_bond_atom_site_label_2
_geom_bond_distance
_ccdc_geom_bond_type
C14   N14   1.434775 S    
O5    V1    2.006614 S    
N15   O50   1.300218 A    
C11   C51   1.415859 A    
C41   C42   1.429400 A    
C11   N11   1.434774 S    
C10   C50   1.415857 A    
C5    C19   1.501187 S    
C32   C40   1.425547 A    
C43   C51   1.414036 A    
N6    O31   1.299863 A    
C44   C52   1.414035 A    
C47   C55   1.414036 A    
H4    C68   1.081753 S    
C14   C54   1.415857 A    
C33   C41   1.419434 A    
C34   C58   1.423103 A    
C45   C46   1.429401 A    
C33   C57   1.423103 A    
N9    O38   1.300215 A    
O11   C3    1.303248 A    
O17   V3    1.698101 S    
O18   V4    1.698101 S    
C6    C20   1.501186 S    
O19   V1    1.698101 S    
O14   V4    2.010949 S    
N10   O40   1.300217 A    
N12   O43   1.300251 A    
C37   C61   1.423104 A    
N13   O46   1.300219 A    
C39   C63   1.423104 A    
C7    C17   1.501186 S    
C38   C46   1.419433 A    
C49   C66   1.400764 A    
C29   C37   1.425548 A    
N11   O41   1.300217 A    
C34   C42   1.419433 A    
C17   C25   1.419049 A    
N2    O23   1.299860 A    
C30   C38   1.425548 A    
O3    C2    1.294357 A    
N11   O42   1.300251 A    
C41   C49   1.414036 A    
O12   V1    2.010950 S    
C20   C28   1.419050 A    
C27   C35   1.425550 A    
C21   C29   1.419049 A    
C60   Cl4   1.766540 S    
C63   C71   1.391933 A    
O9    V1    2.010949 S    
C23   C31   1.419051 A    
C12   N12   1.434772 S    
C16   C56   1.415859 A    
C31   N7    1.429663 S    
C1    C23   1.501184 S    
C9    N9    1.434775 S    
C2    C24   1.501185 S    
C12   C20   1.411298 A    
O15   C7    1.303248 A    
C3    C21   1.501185 S    
C13   C21   1.411301 A    
O16   C8    1.303248 A    
N16   O52   1.300217 A    
C14   C22   1.411300 A    
C42   C50   1.414036 A    
C9    C17   1.411299 A    
C26   C34   1.425550 A    
N12   O44   1.300223 A    
N3    O26   1.299863 A    
C8    C18   1.501185 S    
C32   N8    1.429664 S    
C10   N10   1.434775 S    
C18   C26   1.419049 A    
C59   Cl3   1.766541 S    
O20   V4    2.141221 S    
N10   O39   1.300251 A    
C58   Cl2   1.766542 S    
C4    C22   1.501184 S    
C61   C69   1.391933 A    
C25   N1    1.429664 S    
C22   C30   1.419050 A    
C12   C52   1.415859 A    
C16   N16   1.434775 S    
C62   Cl6   1.766542 S    
O17   V1    2.141221 S    
C39   C47   1.419434 A    
C47   C48   1.429400 A    
C57   C65   1.391933 A    
H7    C71   1.081753 S    
O11   V2    2.010949 S    
O19   V3    2.141221 S    
C43   C44   1.429398 A    
C64   Cl8   1.766542 S    
O4    V3    2.006614 S    
C10   C18   1.411301 A    
C9    C49   1.415859 A    
O12   C4    1.303249 A    
C35   C59   1.423103 A    
O8    C5    1.294357 A    
H5    C69   1.081752 S    
C26   N2    1.429662 S    
C28   N4    1.429663 S    
C62   C70   1.391930 A    
H6    C70   1.081754 S    
H2    C66   1.081752 S    
O4    C1    1.294358 A    
H1    C65   1.081752 S    
C31   C39   1.425546 A    
O3    V4    2.006616 S    
C51   C68   1.400764 A    
C64   C72   1.391931 A    
N5    O29   1.300259 A    
C50   C65   1.400762 A    
C35   C43   1.419434 A    
O8    V1    2.006616 S    
N4    O28   1.300258 A    
N7    O33   1.300259 A    
H8    C72   1.081752 S    
C56   C71   1.400764 A    
C60   C68   1.391932 A    
C15   C23   1.411301 A    
N1    O21   1.300259 A    
O9    C1    1.303248 A    
C16   C24   1.411301 A    
O1    C4    1.294357 A    
C27   N3    1.429662 S    
C38   C62   1.423104 A    
O2    C3    1.294357 A    
O18   V2    2.141221 S    
C52   C67   1.400763 A    
N14   O48   1.300250 A    
N7    O34   1.299861 A    
N6    O32   1.300258 A    
N8    O36   1.300259 A    
N3    O25   1.300259 A    
N8    O35   1.299861 A    
C36   C44   1.419435 A    
O7    C6    1.294358 A    
N9    O37   1.300250 A    
C37   C45   1.419434 A    
C13   C53   1.415858 A    
O10   V2    2.010950 S    
O14   C6    1.303248 A    
O20   V2    1.698101 S    
N4    O27   1.299861 A    
C40   C48   1.419434 A    
C63   Cl7   1.766540 S    
N13   O45   1.300250 A    
O13   C5    1.303248 A    
C30   N6    1.429664 S    
C11   C19   1.411301 A    
C24   C32   1.419050 A    
N16   O51   1.300252 A    
O5    C8    1.294358 A    
C15   N15   1.434774 S    
O10   C2    1.303249 A    
O6    C7    1.294358 A    
C36   C60   1.423103 A    
O7    V2    2.006614 S    
N2    O24   1.300260 A    
C13   N13   1.434774 S    
C25   C33   1.425547 A    
H3    C67   1.081753 S    
O15   V4    2.010950 S    
O13   V3    2.010950 S    
O1    V3    2.006616 S    
O16   V3    2.010949 S    
C45   C53   1.414036 A    
C55   C72   1.400763 A    
C40   C64   1.423103 A    
O2    V4    2.006614 S    
C19   C27   1.419050 A    
N14   O47   1.300218 A    
C28   C36   1.425548 A    
C48   C56   1.414036 A    
C46   C54   1.414036 A    
C57   Cl1   1.766541 S    
N15   O49   1.300250 A    
N5    O30   1.299864 A    
C29   N5    1.429662 S    
C59   C67   1.391934 A    
O6    V2    2.006616 S    
C54   C69   1.400764 A    
C58   C66   1.391931 A    
C53   C70   1.400765 A    
C61   Cl5   1.766542 S    
N1    O22   1.299861 A    
C15   C55   1.415858 A    
