data_mof_unit_30696.cif
_audit_creation_date              2013-03-05T16:04:19-0500
_audit_creation_method            fapswitch 2.2
_symmetry_space_group_name_H-M    P1
_symmetry_Int_Tables_number       1
_space_group_crystal_system       triclinic
_cell_length_a                    14.972543
_cell_length_b                    14.003891
_cell_length_c                    27.70815
_cell_angle_alpha                 90.011972
_cell_angle_beta                  89.871886
_cell_angle_gamma                 89.929374
_cell_volume                      5809.65570117

loop_
_atom_site_label
_atom_site_type_symbol
_atom_site_description
_atom_site_fract_x
_atom_site_fract_y
_atom_site_fract_z
_atom_type_partial_charge
O1    O     O_R   0.367850 0.580280 0.500010 -0.623363
O2    O     O_R   0.632150 0.419720 0.499990 -0.629103
O3    O     O_R   0.632150 0.580280 0.499990 -0.626298
O4    O     O_R   0.367850 0.419720 0.500010 -0.632552
C1    C     C_R   0.326581 0.500020 0.500051 0.902295
C2    C     C_R   0.673381 0.500072 0.499731 0.904569
O5    O     O_R   0.500010 0.580260 0.428760 -0.626372
O6    O     O_R   0.499990 0.419740 0.571240 -0.620747
O7    O     O_R   0.499990 0.580260 0.571240 -0.631336
O8    O     O_R   0.500010 0.419740 0.428760 -0.625228
C3    C     C_R   0.499920 0.499968 0.405932 0.878863
C4    C     C_R   0.500130 0.499944 0.594052 0.875709
Zn1   Zn    Zn3+2 0.500000 0.607200 0.500000 0.943995
Zn2   Zn    Zn3+2 0.500000 0.392800 0.500000 0.945052
C5    C     C_R   0.420708 0.519998 0.177274 0.531731
C6    C     C_R   0.584092 0.511010 0.822545 0.531860
O9    O     O_2   0.344317 0.534176 0.202255 -0.561567
O10   O     O_2   0.661230 0.518079 0.797487 -0.562259
N1    N     N_R   0.498314 0.500668 0.201236 -0.356200
N2    N     N_R   0.505186 0.498833 0.798660 -0.356109
C7    C     C_R   0.576851 0.485016 0.177297 0.502163
C8    C     C_R   0.425778 0.490508 0.822666 0.501621
C9    C     C_R   0.510737 0.414215 0.277596 -0.098862
C10   C     C_R   0.485824 0.414241 0.722205 -0.098840
C11   C     C_R   0.511290 0.414060 0.327755 -0.215376
C12   C     C_R   0.484198 0.414664 0.672062 -0.213330
C13   C     C_R   0.486264 0.585580 0.327941 -0.219972
C14   C     C_R   0.520994 0.583667 0.672078 -0.225615
C15   C     C_R   0.485516 0.585396 0.277836 -0.101292
C16   C     C_R   0.523169 0.582783 0.722182 -0.102556
C17   C     C_R   0.497928 0.499908 0.252671 0.313938
C18   C     C_R   0.505214 0.498345 0.747230 0.315068
C19   C     C_R   0.500409 0.509559 0.101415 -0.060236
C20   C     C_R   0.504039 0.508344 0.898467 -0.060291
C21   C     C_R   0.420279 0.524873 0.126863 -0.104276
C22   C     C_R   0.585032 0.516016 0.872959 -0.104260
C23   C     C_R   0.342305 0.547382 0.101722 -0.214018
C24   C     C_R   0.664540 0.531357 0.898040 -0.214374
C25   C     C_R   0.579443 0.489159 0.126896 0.004118
C26   C     C_R   0.423640 0.495123 0.873055 0.004487
C27   C     C_R   0.499276 0.499870 0.353230 -0.042351
C28   C     C_R   0.501467 0.499542 0.646717 -0.041670
H1    H     H_    0.476143 0.652477 0.346794 0.162671
H2    H     H_    0.535326 0.649688 0.653260 0.162097
H3    H     H_    0.475414 0.651474 0.258360 0.134550
H4    H     H_    0.538583 0.647497 0.741780 0.133337
H5    H     H_    0.281106 0.564097 0.120914 0.207564
H6    H     H_    0.726803 0.542161 0.878797 0.207380
C29   C     C_R   0.420783 0.512319 0.974466 0.072551
C30   C     C_R   0.583713 0.505056 0.025426 0.072556
C31   C     C_R   0.585320 0.518279 0.974775 -0.097939
C32   C     C_R   0.420250 0.526251 0.025066 -0.097972
C33   C     C_R   0.503409 0.513230 0.949361 0.020790
C34   C     C_R   0.501458 0.513896 0.050510 0.020880
C35   C     C_R   0.341980 0.493559 0.948318 -0.191003
C36   C     C_R   0.660749 0.479395 0.051661 -0.191223
C37   C     C_R   0.343332 0.485901 0.898393 -0.176249
C38   C     C_R   0.658765 0.472376 0.101610 -0.175592
O11   O     O_2   0.349164 0.479103 0.797733 -0.563685
O12   O     O_2   0.652241 0.466725 0.202298 -0.561769
C39   C     C_R   0.342148 0.552150 0.051529 0.458985
C40   C     C_R   0.665156 0.536505 0.948230 0.458888
H7    H     H_    0.468861 0.348947 0.653210 0.165455
H8    H     H_    0.521528 0.347087 0.346505 0.164617
H9    H     H_    0.471983 0.348840 0.741666 0.141836
H10   H     H_    0.520220 0.347994 0.258045 0.141711
H11   H     H_    0.281093 0.472284 0.879765 0.194240
H12   H     H_    0.719691 0.453228 0.120295 0.194495
H13   H     H_    0.278893 0.480269 0.965921 0.206978
H14   H     H_    0.722577 0.460148 0.034124 0.207017
C41   C     C_R   0.814662 0.426201 0.476413 -0.256022
C42   C     C_R   0.185139 0.576619 0.520711 -0.249798
C43   C     C_R   0.769007 0.500708 0.499049 -0.070302
C44   C     C_R   0.230888 0.500082 0.499830 -0.074525
C45   C     C_R   0.814369 0.576621 0.520555 -0.245519
C46   C     C_R   0.185527 0.424051 0.478386 -0.256266
C47   C     C_R   0.906791 0.577552 0.520475 0.118868
C48   C     C_R   0.093083 0.424550 0.477171 0.130925
C49   C     C_R   0.953456 0.501417 0.498479 0.056430
C50   C     C_R   0.046412 0.501104 0.498784 0.060161
C51   C     C_R   0.907123 0.425685 0.476124 0.131855
C52   C     C_R   0.092705 0.577372 0.520697 0.118453
C53   C     C_R   0.953138 0.652930 0.542141 -0.209271
C54   C     C_R   0.046687 0.350322 0.454525 -0.231088
C55   C     C_R   0.045966 0.652938 0.542164 -0.208326
C56   C     C_R   0.953857 0.351058 0.453867 -0.208510
H15   H     H_    0.778064 0.369739 0.458481 0.148418
H16   H     H_    0.221532 0.634766 0.537479 0.160692
H17   H     H_    0.777682 0.634152 0.537834 0.158572
H18   H     H_    0.222234 0.365581 0.461951 0.156975
H19   H     H_    0.917636 0.711637 0.559013 0.150136
H20   H     H_    0.082157 0.291803 0.437472 0.145226
H21   H     H_    0.081163 0.711691 0.559019 0.156999
H22   H     H_    0.918629 0.293307 0.436188 0.151819
C57   C     C_R   0.559538 0.797831 0.471754 -0.009469
C58   C     C_R   0.439142 0.202203 0.527411 -0.005562
C59   C     C_R   0.440465 0.797994 0.528352 -0.010733
C60   C     C_R   0.561953 0.201915 0.473274 -0.007967
N3    N     N_R   0.500000 0.750030 0.500000 -0.127336
N4    N     N_R   0.500000 0.249970 0.500000 -0.126776
C61   C     C_R   0.439054 0.898873 0.529440 -0.097236
C62   C     C_R   0.563983 0.101041 0.472743 -0.096784
C63   C     C_R   0.561518 0.898624 0.471165 -0.094134
C64   C     C_R   0.437869 0.101383 0.528442 -0.095123
C65   C     C_R   0.500333 0.949406 0.500315 -0.063777
C66   C     C_R   0.500455 0.050522 0.500320 -0.062263
C67   C     C_R   0.379066 0.949803 0.559373 0.373507
C68   C     C_R   0.628988 0.050136 0.446202 0.358390
C69   C     C_R   0.623222 0.949160 0.442330 0.354216
C70   C     C_R   0.375806 0.050957 0.557022 0.335283
H23   H     H_    0.605700 0.756773 0.449938 0.174549
H24   H     H_    0.391957 0.243296 0.548571 0.166581
H25   H     H_    0.394277 0.757035 0.550128 0.166638
H26   H     H_    0.609508 0.242746 0.452296 0.167769
O13   O     O_3   0.319460 0.900023 0.588317 -0.663118
C71   C     C_3   0.342848 0.910081 0.637594 0.117961
H27   H     H_    0.282397 0.893837 0.659398 0.169731
H28   H     H_    0.362875 0.984130 0.647381 0.175325
C72   C     C_3   0.416785 0.839683 0.651788 -0.414050
H29   H     H_    0.394943 0.765534 0.643787 0.235184
H30   H     H_    0.478242 0.854874 0.630619 0.218916
C73   C     C_3   0.438869 0.848009 0.705345 -0.930687
H31   H     H_    0.457758 0.922532 0.714479 0.264837
H32   H     H_    0.496110 0.800841 0.714000 0.260642
H33   H     H_    0.380532 0.826326 0.727603 0.271127
O14   O     O_3   0.696518 0.099970 0.422950 -0.664681
C74   C     C_3   0.779062 0.084442 0.446708 0.095451
H34   H     H_    0.832694 0.111611 0.422603 0.162863
H35   H     H_    0.793500 0.007322 0.452476 0.179415
C75   C     C_3   0.784068 0.138624 0.494854 -0.396455
H36   H     H_    0.769948 0.215333 0.488679 0.230688
H37   H     H_    0.733387 0.110413 0.520465 0.222606
C76   C     C_3   0.875865 0.128215 0.517904 -0.951486
H38   H     H_    0.889214 0.052170 0.526746 0.264134
H39   H     H_    0.878201 0.170722 0.551709 0.280596
H40   H     H_    0.928629 0.154488 0.493067 0.267185
O15   O     O_3   0.682225 0.898906 0.413159 -0.664011
C77   C     C_3   0.661180 0.913690 0.363902 0.118237
H41   H     H_    0.722312 0.898103 0.342502 0.172310
H42   H     H_    0.642604 0.988957 0.355522 0.165461
C78   C     C_3   0.587011 0.845719 0.347483 -0.406842
H43   H     H_    0.607686 0.770727 0.354423 0.235858
H44   H     H_    0.524894 0.860418 0.368213 0.218844
C79   C     C_3   0.567320 0.857984 0.293847 -0.932513
H45   H     H_    0.548560 0.933130 0.285930 0.265517
H46   H     H_    0.510745 0.811289 0.283511 0.261573
H47   H     H_    0.626746 0.838068 0.271970 0.270406
O16   O     O_3   0.315467 0.101070 0.585160 -0.661692
C80   C     C_3   0.233634 0.108032 0.560250 0.081181
H48   H     H_    0.197073 0.039052 0.562998 0.183345
H49   H     H_    0.243376 0.126418 0.521342 0.121163
C81   C     C_3   0.177776 0.187156 0.583431 -0.321317
H50   H     H_    0.170610 0.173217 0.622760 0.237349
H51   H     H_    0.212367 0.256766 0.578579 0.224962
C82   C     C_3   0.085252 0.192985 0.560844 -0.963222
H52   H     H_    0.090795 0.203324 0.521237 0.266701
H53   H     H_    0.047857 0.254194 0.576494 0.279357
H54   H     H_    0.047704 0.126193 0.568247 0.270110
O17   O     O_3   0.265070 0.585218 0.029628 -0.660835
C83   C     C_3   0.277476 0.680373 0.013617 0.081611
H55   H     H_    0.232191 0.691883 0.982442 0.175700
H56   H     H_    0.346430 0.694983 0.000155 0.130034
C84   C     C_3   0.252417 0.751349 0.053536 -0.360480
H57   H     H_    0.183558 0.736159 0.066467 0.241022
H58   H     H_    0.299060 0.743346 0.084399 0.219143
C85   C     C_3   0.256900 0.854094 0.035387 -0.934838
H59   H     H_    0.325609 0.871179 0.022909 0.263637
H60   H     H_    0.238789 0.903697 0.065117 0.270939
H61   H     H_    0.209350 0.864823 0.005146 0.265852
O18   O     O_3   0.744616 0.562413 0.970038 -0.660760
C86   C     C_3   0.739921 0.658559 0.985781 0.082390
H62   H     H_    0.785856 0.666056 0.016983 0.176476
H63   H     H_    0.672373 0.679848 0.999115 0.129768
C87   C     C_3   0.770782 0.726413 0.945704 -0.360373
H64   H     H_    0.838166 0.704536 0.932884 0.241400
H65   H     H_    0.723752 0.722572 0.914813 0.218946
C88   C     C_3   0.774659 0.829382 0.963578 -0.934933
H66   H     H_    0.707584 0.853128 0.975944 0.263709
H67   H     H_    0.796823 0.876726 0.933737 0.270673
H68   H     H_    0.822824 0.835841 0.993837 0.266099

loop_
_geom_bond_atom_site_label_1
_geom_bond_atom_site_label_2
_geom_bond_distance
_ccdc_geom_bond_type
C61   C67   1.413550 A    
C16   C18   1.397287 A    
C86   H62   1.110985 S    
O14   C74   1.418140 S    
C82   H53   1.110790 S    
C65   C66   1.416021 A    
C75   H37   1.110834 S    
C84   H57   1.111534 S    
O3    C2    1.281041 A    
N1    C17   1.425207 S    
C78   H44   1.111019 S    
C10   C18   1.397720 A    
C77   H41   1.110878 S    
C68   C69   1.420845 A    
O5    C3    1.289996 A    
C86   H63   1.116146 S    
C19   C25   1.408329 A    
C44   C46   1.396889 A    
O1    C1    1.283271 A    
C9    H10   1.082915 S    
C84   H58   1.110900 S    
C46   C48   1.384611 A    
C32   C39   1.425351 A    
C39   O17   1.384362 S    
C57   N3    1.361564 A    
C60   H26   1.082149 S    
C13   C15   1.388383 A    
O18   C86   1.416852 S    
C47   C53   1.399848 A    
O13   C71   1.417336 S    
C71   H27   1.110894 S    
C69   O15   1.387096 S    
C14   C28   1.403062 A    
C1    C44   1.432794 S    
O7    Zn1   2.009735 S    
C87   H64   1.111537 S    
C4    C28   1.459444 S    
C56   H22   1.083644 S    
C42   H16   1.085312 S    
C55   H21   1.083880 S    
C32   C34   1.417304 A    
C14   C16   1.388810 A    
C88   H67   1.110369 S    
C76   H40   1.109727 S    
C62   C68   1.411077 A    
C24   C40   1.392570 A    
C36   C38   1.387733 A    
C23   H5    1.083699 S    
C24   H6    1.083697 S    
C51   C56   1.399325 A    
O3    Zn1   2.013758 S    
C6    N2    1.366306 A    
C29   C32   1.415502 A    
C72   H30   1.110913 S    
C82   H54   1.110795 S    
C85   H60   1.110369 S    
C43   C45   1.396370 A    
O2    C2    1.284134 A    
C31   C40   1.425443 A    
C37   H11   1.083367 S    
C79   H47   1.110771 S    
C70   O16   1.382598 S    
C5    C21   1.398508 A    
C59   N3    1.363102 A    
C57   C63   1.411946 A    
C47   C49   1.411517 A    
C61   C65   1.411528 A    
C40   O18   1.384325 S    
C86   C87   1.532572 S    
C83   C84   1.532602 S    
C84   C85   1.525769 S    
O16   C80   1.410890 S    
C7    O12   1.349986 S    
C42   C44   1.396031 A    
O8    Zn2   2.009737 S    
C78   C79   1.525464 S    
C11   C27   1.404698 A    
C8    O11   1.350026 S    
C49   C51   1.411794 A    
C79   H45   1.110882 S    
C60   C62   1.412989 A    
C25   C38   1.397196 A    
C14   H2    1.083019 S    
C30   C36   1.410950 A    
C15   H3    1.081938 S    
C31   C33   1.417395 A    
C11   H8    1.083153 S    
C9    C17   1.397931 A    
Zn1   N3    2.000176 S    
C5    N1    1.366372 A    
C12   H7    1.083237 S    
C74   H35   1.112771 S    
C48   C54   1.400095 A    
C58   H24   1.082137 S    
C13   C27   1.403581 A    
O17   C83   1.416854 S    
C7    C25   1.398197 A    
C81   C82   1.523507 S    
O6    C4    1.288700 A    
C88   H68   1.110864 S    
C8    C26   1.397969 A    
C30   C31   1.415804 A    
C63   C65   1.411431 A    
C30   C34   1.418064 A    
C45   C47   1.383861 A    
C87   C88   1.525768 S    
C67   O13   1.387154 S    
C35   H13   1.078504 S    
C77   H42   1.114414 S    
C10   H9    1.082913 S    
C85   H61   1.110861 S    
C41   H15   1.083712 S    
C79   H46   1.108837 S    
C53   C55   1.389866 A    
C81   H51   1.112457 S    
C60   N4    1.362675 A    
C35   C37   1.387553 A    
C76   H38   1.110781 S    
C42   C52   1.384003 A    
C67   C70   1.418840 A    
C20   C26   1.408353 A    
C80   C81   1.528002 S    
C75   C76   1.523707 S    
O1    Zn1   2.014672 S    
C73   H32   1.108124 S    
C74   H34   1.110924 S    
C12   C28   1.404697 A    
C2    C43   1.431889 S    
C41   C43   1.394760 A    
N2    C18   1.425058 S    
C72   C73   1.525535 S    
C38   H12   1.083364 S    
C19   C34   1.411839 A    
C5    O9    1.350037 S    
C58   C64   1.412323 A    
O6    Zn2   2.009580 S    
C26   C37   1.397144 A    
N1    C7    1.366227 A    
C16   H4    1.081800 S    
C10   C12   1.389651 A    
N2    C8    1.366167 A    
O4    C1    1.282418 A    
C77   C78   1.533270 S    
C23   C39   1.392384 A    
C72   H29   1.111480 S    
Zn2   N4    2.000177 S    
C64   C66   1.409754 A    
C52   C55   1.399787 A    
C53   H19   1.083816 S    
O15   C77   1.416597 S    
C36   H14   1.078464 S    
C71   C72   1.533460 S    
C63   C69   1.411121 A    
C83   H55   1.110982 S    
C73   H33   1.110771 S    
C80   H49   1.117747 S    
C75   H36   1.107975 S    
C74   C75   1.536593 S    
C21   C23   1.396586 A    
C15   C17   1.397296 A    
C57   H23   1.081988 S    
C78   H43   1.111414 S    
C6    C22   1.398727 A    
C64   C70   1.409894 A    
C85   H59   1.110933 S    
C29   C33   1.417997 A    
C58   N4    1.361324 A    
C22   C24   1.396620 A    
C19   C21   1.406452 A    
C50   C52   1.411829 A    
C71   H28   1.113459 S    
C3    C27   1.460306 S    
C48   C50   1.411469 A    
C9    C11   1.389861 A    
C29   C35   1.410873 A    
O4    Zn2   2.013759 S    
O2    Zn2   2.014670 S    
O7    C4    1.290282 A    
C87   H65   1.110898 S    
O8    C3    1.289433 A    
C45   H17   1.085179 S    
C49   C50   1.391825 A    
C13   H1    1.082858 S    
O5    Zn1   2.009583 S    
C81   H50   1.112076 S    
C20   C22   1.406469 A    
C20   C33   1.411834 A    
C6    O10   1.349993 S    
C88   H66   1.110931 S    
C62   C66   1.409882 A    
C46   H18   1.085116 S    
C82   H52   1.109910 S    
C76   H39   1.110351 S    
C54   C56   1.390079 A    
C54   H20   1.083756 S    
C68   O14   1.386887 S    
C73   H31   1.110900 S    
C80   H48   1.113433 S    
C59   H25   1.081918 S    
C59   C61   1.413145 A    
C83   H56   1.116120 S    
C41   C51   1.384393 A    
