data_mof_unit_31071.cif
_audit_creation_date              2013-03-05T15:43:30-0500
_audit_creation_method            fapswitch 2.2
_symmetry_space_group_name_H-M    P1
_symmetry_Int_Tables_number       1
_space_group_crystal_system       triclinic
_cell_length_a                    10.864324
_cell_length_b                    10.952709
_cell_length_c                    9.789204
_cell_angle_alpha                 90.261986
_cell_angle_beta                  88.357199
_cell_angle_gamma                 91.06261
_cell_volume                      1164.16584245

loop_
_atom_site_label
_atom_site_type_symbol
_atom_site_description
_atom_site_fract_x
_atom_site_fract_y
_atom_site_fract_z
_atom_type_partial_charge
O1    O     O_R   0.500020 0.321960 0.617040 -0.527031
O2    O     O_R   0.499980 0.321920 0.382900 -0.597706
C1    C     C_R   0.496558 0.265551 0.498910 0.879612
O3    O     O_R   0.317710 0.500000 0.617070 -0.548529
O4    O     O_R   0.317670 0.499960 0.382930 -0.523600
C2    C     C_R   0.260335 0.497571 0.500930 0.922839
Cu1   Cu    Cu3+1 0.500030 0.500020 0.638630 1.103095
Cu2   Cu    Cu3+1 0.499970 0.499980 0.361370 1.021418
O5    O     O_R   0.500020 0.678080 0.617100 -0.520309
O6    O     O_R   0.499980 0.678040 0.382960 -0.593163
O7    O     O_R   0.682330 0.500040 0.617070 -0.579435
O8    O     O_R   0.682290 0.500000 0.382930 -0.591790
C3    C     C_R   0.503930 0.734247 0.500634 0.844673
C4    C     C_R   0.739237 0.495255 0.497431 0.905723
C5    C     C_3   0.066260 0.412074 0.618284 -0.204086
H1    H     H_    0.097146 0.453388 0.714669 0.260825
C6    C     C_3   0.922990 0.422537 0.624272 0.095062
H2    H     H_    0.901680 0.485816 0.710625 0.159523
H3    H     H_    0.881907 0.664073 0.596959 0.185248
C7    C     C_3   0.073486 0.631316 0.527447 0.352666
C8    C     C_3   0.074255 0.446339 0.355292 0.172321
C9    C     C_3   0.122127 0.494978 0.499634 -0.291905
H4    H     H_    0.095004 0.523029 0.284630 0.190359
C10   C     C_3   0.876786 0.490040 0.491163 -0.231807
C11   C     C_3   0.928502 0.626886 0.503940 -0.036748
C12   C     C_3   0.930546 0.424729 0.354896 0.146483
C13   C     C_2   0.485291 0.930350 0.395833 -0.219391
C14   C     C_2   0.524516 0.865593 0.501836 0.186957
H5    H     H_    0.439419 0.884265 0.312218 0.195247
C15   C     C_2   0.501697 0.062737 0.384161 0.172824
C16   C     C_2   0.482628 0.133352 0.496532 -0.154316
H6    H     H_    0.453164 0.091677 0.592775 0.174955
C17   C     C_2   0.421141 0.438919 0.925742 0.443633
N1    N     N_2   0.498630 0.498660 0.846910 -0.338338
H7    H     H_    0.587586 0.503510 0.877176 0.194867
C18   C     C_2   0.434845 0.426584 0.076859 0.001081
N2    N     N_2   0.498590 0.498630 0.153040 -0.187786
H8    H     H_    0.377014 0.358151 0.127858 0.198254
C19   C     C_3   0.880798 0.472326 0.215079 -0.652408
H9    H     H_    0.840590 0.562931 0.218511 0.267526
H10   H     H_    0.952503 0.471942 0.131983 0.263769
H11   H     H_    0.804230 0.414191 0.176148 0.216726
N3    N     N_R   0.133878 0.726517 0.439608 0.162825
O9    O     O_R   0.114174 0.840975 0.467980 -0.231963
O10   O     O_R   0.207823 0.701920 0.336790 -0.349714
N4    N     N_R   0.887281 0.708286 0.394638 0.150986
O11   O     O_R   0.785656 0.767709 0.413502 -0.343530
O12   O     O_R   0.952568 0.729613 0.283309 -0.275408
N5    N     N_R   0.599500 0.918952 0.606677 0.131505
O13   O     O_R   0.582697 0.886477 0.733623 -0.298274
O14   O     O_R   0.694499 0.987792 0.573322 -0.246552
C20   C     C_3   0.535711 0.111072 0.243437 -0.647365
H12   H     H_    0.552827 0.035268 0.169891 0.238491
H13   H     H_    0.459116 0.164994 0.203918 0.246884
H14   H     H_    0.621597 0.167310 0.246310 0.222324
N6    N     N_R   0.318470 0.376494 0.869548 0.132069
O15   O     O_R   0.209375 0.408823 0.911774 -0.329110
O16   O     O_R   0.333713 0.264575 0.828622 -0.366505
C21   C     C_3   0.117373 0.281364 0.629064 -0.473672
H15   H     H_    0.098990 0.244606 0.733172 0.287320
H16   H     H_    0.078796 0.214839 0.557321 0.245701
H17   H     H_    0.218536 0.281850 0.613403 0.233567
C22   C     C_3   0.576841 0.597548 0.099416 -0.459825
H18   H     H_    0.608957 0.656960 0.182384 0.251672
H19   H     H_    0.664343 0.561515 0.056225 0.153421
H20   H     H_    0.526599 0.657204 0.029358 0.206334
N7    N     N_R   0.859044 0.308015 0.667654 0.151383
O17   O     O_R   0.877662 0.267354 0.789933 -0.300581
O18   O     O_R   0.765630 0.262472 0.603522 -0.351271
N8    N     N_R   0.101346 0.668467 0.670322 0.116153
O19   O     O_R   0.017195 0.674449 0.767443 -0.342432
O20   O     O_R   0.211920 0.707060 0.698271 -0.276884
N9    N     N_R   0.140509 0.341908 0.293182 0.130199
O21   O     O_R   0.129821 0.319992 0.163364 -0.302610
O22   O     O_R   0.214064 0.274073 0.361003 -0.397407
C23   C     C_3   0.894206 0.286248 0.350828 -0.550237
H21   H     H_    0.924445 0.242610 0.253207 0.259317
H22   H     H_    0.932853 0.232149 0.431694 0.253035
H23   H     H_    0.792579 0.274216 0.356351 0.212817

loop_
_geom_bond_atom_site_label_1
_geom_bond_atom_site_label_2
_geom_bond_distance
_ccdc_geom_bond_type
C8    C12   1.574901 S    
C22   H19   1.107976 S    
C13   H5    1.087847 S    
N9    O21   1.300275 A    
C23   H23   1.109320 S    
Cu1   Cu2   2.714172 S    
C19   H10   1.110104 S    
Cu1   O7    1.985749 S    
C18   N2    1.289343 D    
C23   H22   1.089312 S    
C15   C16   1.355082 D    
O7    C4    1.309865 A    
C12   C19   1.580060 S    
C7    C11   1.598203 S    
C5    H1    1.102828 S    
C2    C9    1.501694 S    
C8    N9    1.481611 S    
C17   C18   1.497996 S    
N6    O15   1.298917 A    
C5    C6    1.562270 S    
N1    H7    1.019312 S    
C4    C10   1.496012 S    
O5    C3    1.297215 A    
C5    C9    1.578213 S    
N5    O14   1.301698 A    
C12   C23   1.560809 S    
C3    C14   1.451820 S    
N8    O19   1.302251 A    
C20   H14   1.109448 S    
C17   N6    1.420480 S    
C22   H20   1.110858 S    
C21   H15   1.108926 S    
C8    C9    1.604940 S    
C13   C15   1.462215 S    
N9    O22   1.299373 A    
C7    N8    1.492598 S    
O3    Cu1   1.997999 S    
N2    C22   1.455175 S    
C20   H13   1.108935 S    
C6    H2    1.112615 S    
C19   H11   1.113092 S    
N4    O12   1.302779 A    
C6    N7    1.480521 S    
C6    C10   1.598927 S    
C21   H16   1.095747 S    
N7    O17   1.301614 A    
C10   C11   1.596533 S    
O3    C2    1.312096 A    
C19   H9    1.091644 S    
O1    C1    1.309763 A    
N3    O9    1.303041 A    
C14   N5    1.443367 S    
C16   H6    1.086120 S    
Cu2   O8    1.998000 S    
C17   N1    1.295894 D    
C23   H21   1.110525 S    
C1    C16   1.453179 S    
N3    O10   1.300078 A    
O8    C4    1.297435 A    
C8    H4    1.106433 S    
Cu1   N1    2.038637 S    
Cu2   N2    2.039854 S    
C7    C9    1.612624 S    
C7    N3    1.485796 S    
C20   H12   1.111219 S    
Cu1   O5    1.962556 S    
C15   C20   1.511543 S    
N4    O11   1.300221 A    
C21   H17   1.105270 S    
O1    Cu1   1.960695 S    
C5    C21   1.550256 S    
O2    Cu2   1.962556 S    
C10   C12   1.610698 S    
O6    C3    1.305048 A    
O4    Cu2   1.985749 S    
C18   H8    1.083401 S    
O2    C1    1.294375 A    
O4    C2    1.296695 A    
N6    O16   1.299915 A    
H3    C11   1.108666 S    
C22   H18   1.099019 S    
Cu2   O6    1.960695 S    
N5    O13   1.301064 A    
C13   C14   1.343418 D    
N8    O20   1.302167 A    
N7    O18   1.299162 A    
C11   N4    1.480293 S    
