data_mof_unit_44849.cif
_audit_creation_date              2012-12-11T16:33:28-0500
_audit_creation_method            fapswitch 2.2
_symmetry_space_group_name_H-M    P1
_symmetry_Int_Tables_number       1
_space_group_crystal_system       triclinic
_cell_length_a                    7.028983
_cell_length_b                    18.713215
_cell_length_c                    19.874881
_cell_angle_alpha                 68.448844
_cell_angle_beta                  90.784016
_cell_angle_gamma                 90.109726
_cell_volume                      2431.23706226

loop_
_atom_site_label
_atom_site_type_symbol
_atom_type_description
_atom_site_fract_x
_atom_site_fract_y
_atom_site_fract_z
_atom_type_partial_charge
O1    O     O_R   0.488960 0.443750 0.941980 -0.543666
O2    O     O_R   0.823890 0.406510 0.087590 -0.539334
O3    O     O_R   0.999680 0.556250 0.058020 -0.537882
C1    C     C_R   0.655967 0.383474 0.114920 0.685954
O4    O     O_R   0.818360 0.434410 0.944340 -0.536972
O5    O     O_R   0.994110 0.584350 0.913750 -0.543326
C2    C     C_R   0.649026 0.419943 0.923884 0.716505
O6    O     O_R   0.494530 0.415650 0.086250 -0.538267
O7    O     O_3   0.662590 0.549160 0.990130 -0.366711
V1    V     V_3+5 0.935320 0.490880 0.001830 1.400228
O8    O     O_R   0.324180 0.593490 0.912410 -0.536751
C3    C     C_R   0.153088 0.619498 0.888294 0.675113
O9    O     O_R   0.329720 0.565590 0.055660 -0.535884
C4    C     C_R   0.162002 0.578313 0.077289 0.708684
V2    V     V_3+5 0.435990 0.509120 0.998170 1.407465
O10   O     O_3   0.158850 0.450840 0.009870 -0.374871
C5    C     C_3   0.076015 0.702168 0.321085 0.135573
C6    C     C_3   0.259131 0.685174 0.286614 0.141495
C7    C     C_1   0.156186 0.621326 0.125555 -0.198738
C8    C     C_1   0.111720 0.877838 0.375766 -0.222900
C9    C     C_3   0.963538 0.719827 0.248379 -0.251279
C10   C     C_3   0.148224 0.702712 0.214162 0.025655
C11   C     C_3   0.026064 0.805546 0.223152 0.135261
C12   C     C_3   0.132725 0.788222 0.295601 0.025307
C13   C     C_3   0.207832 0.787682 0.189733 0.110763
C14   C     C_3   0.314799 0.770867 0.262574 0.061299
C15   C     C_1   0.152671 0.657147 0.166003 -0.017103
C16   C     C_1   0.119938 0.837715 0.339616 -0.058508
H1    H     H_    0.403207 0.536008 0.707077 0.150882
C17   C     C_R   0.023330 0.769025 0.878019 -0.135630
C18   C     C_R   0.962939 0.840735 0.875632 -0.118568
C19   C     C_R   0.955199 0.902490 0.810187 -0.128363
C20   C     C_R   0.006944 0.892875 0.746619 -0.141872
C21   C     C_R   0.066980 0.820310 0.746820 0.066453
C22   C     C_R   0.075749 0.757331 0.814215 0.068095
C23   C     C_R   0.122172 0.810972 0.681699 -0.164949
C24   C     C_R   0.189417 0.736408 0.684995 0.015325
C25   C     C_R   0.186206 0.672974 0.752891 -0.007336
C26   C     C_R   0.137023 0.684343 0.817300 -0.157062
C27   C     C_R   0.253932 0.719777 0.623639 0.085208
C28   C     C_R   0.364484 0.652627 0.635092 0.135462
C29   C     C_R   0.345048 0.591448 0.700554 -0.133269
C30   C     C_R   0.229240 0.598052 0.754170 0.075036
H2    H     H_    0.922379 0.848484 0.924858 0.116026
H3    H     H_    0.000375 0.943515 0.697665 0.110213
C31   C     C_R   0.476956 0.108454 0.235255 0.082874
C32   C     C_R   0.374065 0.115318 0.170223 0.179932
C33   C     C_R   0.357663 0.187396 0.115038 -0.149849
C34   C     C_R   0.451882 0.249660 0.119099 -0.208530
C35   C     C_R   0.546595 0.247076 0.182565 0.051021
C36   C     C_R   0.545932 0.177285 0.245091 0.031193
C37   C     C_R   0.646797 0.312924 0.182496 -0.153438
C38   C     C_R   0.735077 0.311871 0.247034 0.025893
C39   C     C_R   0.712950 0.247678 0.312506 0.063960
C40   C     C_R   0.620515 0.179877 0.312385 -0.160297
C41   C     C_R   0.838537 0.375999 0.248261 -0.161177
C42   C     C_R   0.910944 0.379431 0.312626 0.201972
C43   C     C_R   0.882066 0.318041 0.377406 -0.163355
C44   C     C_R   0.784103 0.253322 0.377601 -0.163432
O11   O     O_R   0.770540 0.084530 0.414050 -0.536060
O12   O     O_R   0.445710 0.065660 0.555720 -0.535061
O13   O     O_R   0.270420 0.915650 0.586190 -0.538564
C45   C     C_R   0.614510 0.077602 0.577671 0.726081
O14   O     O_R   0.441140 0.093540 0.412470 -0.542508
O15   O     O_R   0.265820 0.943740 0.441930 -0.551234
C46   C     C_R   0.608695 0.113800 0.383115 0.697982
O16   O     O_R   0.775150 0.056440 0.558310 -0.538859
O17   O     O_3   0.602370 0.950960 0.510050 -0.373160
V3    V     V_3+5 0.329450 0.009140 0.498150 1.405071
O18   O     O_R   0.935790 0.934280 0.444060 -0.531753
C47   C     C_R   0.103190 0.924785 0.420024 0.712570
O19   O     O_R   0.940370 0.906390 0.587310 -0.535661
C48   C     C_R   0.110987 0.880954 0.613008 0.703353
V4    V     V_3+5 0.828810 0.990710 0.501460 1.404848
O20   O     O_3   0.105780 0.049100 0.489960 -0.367713
C49   C     C_3   0.717061 0.304909 0.720471 -0.188972
C50   C     C_3   0.537629 0.274478 0.694811 -0.144878
C51   C     C_1   0.622538 0.117869 0.627263 -0.189905
C52   C     C_1   0.639629 0.372368 0.879199 -0.200042
C53   C     C_3   0.808801 0.223506 0.743182 -0.158031
C54   C     C_3   0.626836 0.194412 0.718244 0.054571
C55   C     C_3   0.722722 0.201635 0.819841 0.161379
C56   C     C_3   0.632849 0.282986 0.797075 0.064329
C57   C     C_3   0.540762 0.171897 0.794173 0.129513
C58   C     C_3   0.452965 0.253049 0.771159 0.148722
C59   C     C_1   0.625340 0.151231 0.669199 -0.056895
C60   C     C_1   0.635887 0.332524 0.842059 -0.068994
C61   C     C_3   0.390331 0.614757 0.312159 -0.349403
C62   C     C_3   0.494834 0.604043 0.382576 -0.790321
H4    H     H_    0.617051 0.643594 0.370903 0.248505
H5    H     H_    0.402281 0.615404 0.422003 0.237558
H6    H     H_    0.547137 0.543995 0.407350 0.215685
H7    H     H_    0.305063 0.562798 0.318706 0.181799
H8    H     H_    0.496478 0.620629 0.269547 0.175343
H9    H     H_    0.909515 0.958327 0.808630 0.113120
C63   C     C_3   0.174333 0.761081 0.548526 -0.378028
C64   C     C_3   0.960192 0.747679 0.545704 -0.731466
H10   H     H_    0.934546 0.685486 0.559884 0.227071
H11   H     H_    0.882117 0.767260 0.583917 0.236682
H12   H     H_    0.902476 0.778337 0.490380 0.216470
H13   H     H_    0.212988 0.820782 0.531159 0.192733
H14   H     H_    0.238117 0.742908 0.506934 0.161911
C65   C     C_3   0.472270 0.640826 0.573841 -0.367341
C66   C     C_3   0.631688 0.580644 0.597836 -0.798950
H15   H     H_    0.722760 0.589098 0.640428 0.237274
H16   H     H_    0.572359 0.521597 0.618034 0.221326
H17   H     H_    0.720782 0.586155 0.550588 0.225914
H18   H     H_    0.370005 0.623605 0.539540 0.180227
H19   H     H_    0.539053 0.696148 0.540250 0.183341
C67   C     C_3   0.128690 0.526825 0.805064 -0.317559
C68   C     C_3   0.103446 0.462842 0.776955 -0.852248
H20   H     H_    0.044746 0.485596 0.720799 0.242051
H21   H     H_    0.242999 0.434476 0.779790 0.245809
H22   H     H_    0.004230 0.419449 0.812317 0.240358
H23   H     H_    0.207012 0.501835 0.857083 0.217410
H24   H     H_    0.981690 0.543271 0.813306 0.197201
H25   H     H_    0.933851 0.320343 0.428157 0.112010
C69   C     C_3   0.540932 0.028163 0.284841 -0.383316
C70   C     C_3   0.752595 0.016874 0.275998 -0.751620
H26   H     H_    0.783373 0.026667 0.218608 0.225315
H27   H     H_    0.840080 0.056792 0.293054 0.229946
H28   H     H_    0.792517 0.957102 0.309687 0.219378
H29   H     H_    0.505210 0.014049 0.341740 0.195232
H30   H     H_    0.466088 0.981948 0.273466 0.166348
C71   C     C_3   0.291326 0.045515 0.157710 -0.369077
C72   C     C_3   0.180668 0.062441 0.086297 -0.818637
H31   H     H_    0.053607 0.098570 0.083877 0.238371
H32   H     H_    0.274321 0.090919 0.039733 0.232243
H33   H     H_    0.132275 0.008849 0.080523 0.221985
H34   H     H_    0.409339 0.006033 0.157907 0.179211
H35   H     H_    0.194190 0.015796 0.202943 0.173377
H36   H     H_    0.282196 0.196697 0.064871 0.137802
H37   H     H_    0.448352 0.299945 0.070088 0.142890
C73   C     C_3   0.015909 0.663717 0.400638 -0.334059
C74   C     C_3   0.996616 0.576526 0.428300 -0.802886
H38   H     H_    0.872904 0.559556 0.403319 0.240989
H39   H     H_    0.125079 0.548384 0.418281 0.245378
H40   H     H_    0.975024 0.554397 0.487619 0.216160
H41   H     H_    0.124656 0.677459 0.434851 0.178392
H42   H     H_    0.880813 0.689272 0.409059 0.177592
H43   H     H_    0.861036 0.425438 0.199592 0.126592
C75   C     C_3   0.010767 0.450760 0.311518 -0.383221
C76   C     C_3   0.874797 0.519082 0.285033 -0.786517
H44   H     H_    0.834104 0.533907 0.227348 0.224912
H45   H     H_    0.744404 0.506831 0.318224 0.234735
H46   H     H_    0.947527 0.569007 0.289798 0.244092
H47   H     H_    0.064787 0.443820 0.366403 0.176893
H48   H     H_    0.134817 0.462077 0.274995 0.176456
H49   H     H_    0.763420 0.208539 0.429878 0.122918
H50   H     H_    0.467316 0.303543 0.641302 0.125399
H51   H     H_    0.767727 0.362395 0.685183 0.125236
C77   C     C_3   0.253097 0.274516 0.783327 -0.365024
C78   C     C_3   0.174854 0.335410 0.714186 -0.794296
H52   H     H_    0.276236 0.383721 0.691594 0.230308
H53   H     H_    0.142915 0.310702 0.672378 0.223444
H54   H     H_    0.044674 0.358444 0.727411 0.240797
H55   H     H_    0.164871 0.222462 0.799498 0.189141
H56   H     H_    0.252529 0.296063 0.828422 0.182394
C79   C     C_3   0.436460 0.095447 0.828989 -0.349306
C80   C     C_3   0.380824 0.080110 0.906901 -0.808149
H57   H     H_    0.506672 0.070695 0.943032 0.239433
H58   H     H_    0.297338 0.128962 0.910065 0.231039
H59   H     H_    0.294770 0.026873 0.927248 0.226573
H60   H     H_    0.306303 0.096539 0.796328 0.171305
H61   H     H_    0.527617 0.047763 0.827360 0.183799
C81   C     C_3   0.830750 0.163473 0.891487 -0.343702
C82   C     C_3   0.904899 0.084020 0.900036 -0.802516
H62   H     H_    0.788076 0.044049 0.901160 0.235238
H63   H     H_    0.999305 0.088065 0.854579 0.232448
H64   H     H_    0.984371 0.059275 0.952032 0.228251
H65   H     H_    0.952081 0.200427 0.894033 0.171968
H66   H     H_    0.736254 0.159016 0.937095 0.181837
H67   H     H_    0.947277 0.206182 0.728131 0.128119
C83   C     C_3   0.504763 0.806077 0.269715 -0.348660
C84   C     C_3   0.554442 0.801414 0.346563 -0.754559
H68   H     H_    0.710922 0.802255 0.353429 0.209639
H69   H     H_    0.496393 0.749163 0.388419 0.229759
H70   H     H_    0.497626 0.852014 0.356000 0.230500
H71   H     H_    0.613449 0.776285 0.250647 0.196809
H72   H     H_    0.499901 0.867413 0.233445 0.172621
C85   C     C_3   0.296423 0.834864 0.116706 -0.344324
C86   C     C_3   0.196425 0.825585 0.051531 -0.735372
H73   H     H_    0.266504 0.779519 0.038029 0.220187
H74   H     H_    0.044593 0.810241 0.061936 0.233422
H75   H     H_    0.206767 0.879869 0.003698 0.208540
H76   H     H_    0.298288 0.896105 0.110486 0.176874
H77   H     H_    0.445471 0.815844 0.117650 0.172611
C87   C     C_3   0.911437 0.879875 0.190676 -0.353383
C88   C     C_3   0.805679 0.887730 0.120888 -0.781060
H78   H     H_    0.897826 0.915405 0.073619 0.235485
H79   H     H_    0.760502 0.830684 0.121624 0.222830
H80   H     H_    0.678687 0.925024 0.114223 0.212564
H81   H     H_    0.812795 0.884258 0.231361 0.188913
H82   H     H_    0.008856 0.928506 0.180622 0.187235
H83   H     H_    0.824182 0.695874 0.240846 0.126369
H84   H     H_    0.028174 0.722949 0.930500 0.097254

loop_
_geom_bond_atom_site_label_1
_geom_bond_atom_site_label_2
_ccdc_geom_bond_type
C74   H40   S    
C56   C60   S    
C81   H66   S    
C72   H31   S    
C63   H14   S    
H1    C29   S    
C76   H46   S    
C20   H3    S    
C28   C29   A    
C39   C40   A    
C22   C26   A    
C68   H20   S    
C6    C14   S    
C1    O6    A    
C54   C57   S    
C52   C60   T    
C64   H10   S    
C85   H77   S    
C74   H38   S    
C82   H63   S    
C85   C86   S    
C42   C75   S    
C1    C37   S    
C23   C24   A    
C12   C14   S    
C53   H67   S    
C24   C27   A    
C73   H42   S    
C17   C18   A    
C83   C84   S    
C38   C41   A    
C14   C83   S    
O17   V4    S    
V2    O10   S    
C41   C42   A    
C31   C69   S    
C74   H39   S    
C21   C22   A    
O12   C45   A    
C69   C70   S    
C65   C66   S    
C11   C87   S    
C86   H73   S    
O8    V2    S    
C71   H34   S    
C17   H84   S    
C79   C80   S    
O17   V3    S    
C10   C13   S    
O18   V4    S    
C32   C33   A    
C35   C37   A    
C11   C12   S    
O11   C46   A    
O13   C48   A    
C32   C71   S    
C65   H18   S    
O1    V2    S    
C30   C67   S    
C78   H53   S    
C7    C15   T    
O7    V1    S    
C21   C23   A    
C54   C59   S    
C51   C59   T    
C44   H49   S    
C71   C72   S    
C87   H82   S    
C81   H65   S    
O1    C2    A    
O9    C4    A    
C27   C63   S    
C4    C7    S    
C49   C56   S    
C66   H16   S    
C66   H15   S    
C64   H11   S    
C57   C79   S    
C13   C85   S    
C5    C6    S    
C82   H64   S    
C45   O16   A    
C39   C44   A    
C70   H27   S    
C61   H8    S    
C5    C12   S    
V4    O20   S    
C80   H59   S    
C75   H48   S    
C63   H13   S    
C57   C58   S    
C84   H69   S    
C18   H2    S    
C62   H4    S    
C82   H62   S    
O4    C2    A    
C61   H7    S    
C84   H70   S    
C53   C54   S    
C49   C53   S    
C8    C16   T    
C72   H33   S    
C35   C36   A    
C13   C14   S    
O15   C47   A    
C31   C36   A    
C43   H25   S    
C6    C61   S    
C79   H61   S    
O13   V3    S    
C87   C88   S    
C78   H54   S    
C8    C47   S    
C80   H58   S    
C88   H80   S    
O2    C1    A    
C24   C25   A    
C71   H35   S    
C84   H68   S    
C79   H60   S    
C50   C54   S    
C70   H26   S    
C63   C64   S    
C20   C21   A    
C68   H21   S    
O16   V4    S    
C69   H30   S    
O14   V3    S    
C9    H83   S    
C62   H6    S    
O18   C47   A    
O3    C4    A    
C77   H56   S    
C41   H43   S    
C17   C22   A    
O19   V4    S    
C33   C34   A    
C56   C58   S    
C87   H81   S    
C55   C56   S    
O6    V2    S    
C55   C57   S    
C10   C15   S    
C9    C11   S    
C81   C82   S    
C62   H5    S    
C29   C30   A    
V3    O20   S    
O2    V1    S    
C67   H24   S    
C73   H41   S    
C40   C46   S    
C37   C38   A    
C2    C52   S    
C55   C81   S    
C70   H28   S    
O12   V3    S    
C76   H45   S    
C34   H37   S    
C31   C32   A    
C27   C28   A    
C72   H32   S    
C64   H12   S    
C6    C10   S    
C75   H47   S    
C18   C19   A    
C12   C16   S    
O19   C48   A    
C50   H50   S    
O5    V1    S    
C85   H76   S    
C67   C68   S    
C38   C39   A    
C73   C74   S    
C83   H72   S    
C49   H51   S    
C65   H19   S    
C19   C20   A    
C3    C26   S    
O9    V2    S    
C43   C44   A    
C58   C77   S    
O4    V1    S    
O3    V1    S    
V1    O10   S    
C80   H57   S    
O5    C3    A    
C49   C50   S    
C42   C43   A    
C25   C26   A    
O15   V3    S    
C67   H23   S    
O11   V4    S    
C53   C55   S    
C77   H55   S    
C68   H22   S    
C36   C40   A    
C69   H29   S    
C11   C13   S    
O7    V2    S    
C88   H78   S    
C86   H74   S    
C23   C48   S    
C50   C58   S    
C28   C65   S    
C25   C30   A    
C19   H9    S    
C61   C62   S    
C34   C35   A    
C5    C73   S    
C75   C76   S    
C33   H36   S    
C77   C78   S    
C88   H79   S    
C78   H52   S    
C9    C10   S    
C83   H71   S    
C86   H75   S    
C66   H17   S    
C76   H44   S    
O8    C3    A    
O14   C46   A    
C45   C51   S    
C5    C9    S    
