data_mof_unit_47124.cif
_audit_creation_date              2012-12-10T19:07:03-0500
_audit_creation_method            fapswitch 2.2
_symmetry_space_group_name_H-M    P1
_symmetry_Int_Tables_number       1
_space_group_crystal_system       triclinic
_cell_length_a                    27.819728
_cell_length_b                    10.84183
_cell_length_c                    9.541526
_cell_angle_alpha                 90.665434
_cell_angle_beta                  89.985313
_cell_angle_gamma                 90.347045
_cell_volume                      2877.63724482

loop_
_atom_site_label
_atom_site_type_symbol
_atom_type_description
_atom_site_fract_x
_atom_site_fract_y
_atom_site_fract_z
_atom_type_partial_charge
C1    C     C_R   0.498821 0.262435 0.499183 0.800380
C2    C     C_R   0.278870 0.490169 0.373094 -0.101618
C3    C     C_R   0.253644 0.498355 0.499795 0.358422
C4    C     C_R   0.101916 0.497279 0.498772 -0.043818
C5    C     C_R   0.127439 0.389051 0.465518 -0.020688
C6    C     C_R   0.102202 0.281136 0.431673 -0.145201
C7    C     C_R   0.127666 0.605832 0.532525 -0.021121
C8    C     C_R   0.354513 0.499417 0.499952 -0.037028
C9    C     C_R   0.645428 0.496586 0.499874 -0.029456
C10   C     C_R   0.974331 0.384235 0.473516 0.043200
C11   C     C_R   0.974601 0.608712 0.521721 0.043254
C12   C     C_R   0.407463 0.499851 0.499987 0.799732
C13   C     C_R   0.949221 0.496303 0.497494 0.067555
C14   C     C_R   0.947210 0.274095 0.456707 -0.205595
C15   C     C_R   0.897298 0.274765 0.458410 -0.146048
C16   C     C_R   0.872310 0.384939 0.477450 -0.020285
C17   C     C_R   0.898087 0.495953 0.497320 -0.044310
C18   C     C_R   0.872592 0.606612 0.517100 -0.019479
C19   C     C_R   0.822125 0.604270 0.516471 0.531580
C20   C     C_R   0.821841 0.386528 0.478386 0.533478
C21   C     C_R   0.721367 0.521551 0.622640 -0.103266
C22   C     C_R   0.671255 0.522054 0.623491 -0.227240
C23   C     C_R   0.499244 0.737905 0.500410 0.808523
C24   C     C_R   0.670639 0.468108 0.376170 -0.204593
C25   C     C_R   0.720753 0.467660 0.375450 -0.117350
C26   C     C_R   0.746299 0.494843 0.498539 0.358447
C27   C     C_R   0.025415 0.385595 0.468144 0.042668
C28   C     C_R   0.050784 0.496959 0.498275 0.068003
C29   C     C_R   0.025664 0.608006 0.527932 0.042647
C30   C     C_R   0.052286 0.279213 0.432635 -0.206128
C31   C     C_R   0.102657 0.713427 0.565900 -0.144939
C32   C     C_R   0.947763 0.718523 0.538022 -0.205827
C33   C     C_R   0.897853 0.717167 0.536010 -0.146400
C34   C     C_R   0.592518 0.499000 0.500000 0.809546
C35   C     C_R   0.052751 0.714722 0.563981 -0.206049
C36   C     C_R   0.488276 0.065905 0.622337 0.132355
C37   C     C_R   0.493562 0.129615 0.497261 -0.097911
C38   C     C_R   0.492159 0.062982 0.370146 -0.211291
C39   C     C_R   0.492589 0.934345 0.371236 -0.212487
C40   C     C_R   0.494492 0.871265 0.499406 -0.099852
C41   C     C_R   0.488737 0.938904 0.623715 0.138940
C42   C     C_3   0.516926 0.937957 0.756915 -0.495721
C43   C     C_3   0.516064 0.077593 0.755357 -0.450051
C44   C     C_R   0.540106 0.535232 0.074374 0.211663
C45   C     C_R   0.177909 0.391416 0.466370 0.534102
C46   C     C_R   0.462363 0.452554 0.073736 -0.086493
C47   C     C_R   0.462351 0.452619 0.924954 -0.076007
C48   C     C_R   0.540189 0.534716 0.926741 0.206016
C49   C     C_3   0.564601 0.657112 0.921896 -0.560229
C50   C     C_3   0.564130 0.658492 0.081309 0.037890
C51   C     C_R   0.178130 0.604127 0.532565 0.534904
C52   C     C_R   0.278819 0.507055 0.626588 -0.101779
C53   C     C_R   0.328947 0.507362 0.626850 -0.216785
C54   C     C_R   0.328992 0.490899 0.372988 -0.214773
Cu1   Cu    Cu3+1 0.500000 0.499980 0.640670 0.946093
Cu2   Cu    Cu3+1 0.500000 0.500020 0.359330 0.952218
H1    H     H_    0.347686 0.484527 0.273626 0.150991
H2    H     H_    0.259473 0.513185 0.724891 0.139834
H3    H     H_    0.121606 0.797748 0.593981 0.188545
H4    H     H_    0.964128 0.808214 0.550168 0.136808
H5    H     H_    0.651661 0.444898 0.280407 0.156799
H6    H     H_    0.879102 0.803829 0.549373 0.187225
H7    H     H_    0.739786 0.446341 0.279255 0.141532
H8    H     H_    0.036587 0.800985 0.594043 0.138927
H9    H     H_    0.493349 0.109519 0.270356 0.166279
H10   H     H_    0.493835 0.885218 0.271894 0.157384
H11   H     H_    0.495695 0.899485 0.845075 0.196681
H12   H     H_    0.259565 0.483657 0.274724 0.139564
H13   H     H_    0.553673 0.900088 0.742265 0.202151
H14   H     H_    0.494302 0.118564 0.841645 0.199199
H15   H     H_    0.552176 0.120025 0.740345 0.204751
H16   H     H_    0.431588 0.415590 0.128609 0.141643
H17   H     H_    0.431561 0.415751 0.869135 0.140013
H18   H     H_    0.600941 0.652096 0.874200 0.193823
H19   H     H_    0.540905 0.727194 0.876826 0.198887
H20   H     H_    0.541070 0.731009 0.129411 0.159420
H21   H     H_    0.120980 0.197050 0.403968 0.188408
H22   H     H_    0.652829 0.542938 0.720595 0.146546
H23   H     H_    0.740890 0.541777 0.718438 0.140202
H24   H     H_    0.878328 0.187856 0.444848 0.187316
H25   H     H_    0.963343 0.184640 0.444474 0.136795
H26   H     H_    0.035950 0.192728 0.402332 0.138850
H27   H     H_    0.347614 0.514072 0.726258 0.153213
N1    N     N_R   0.202106 0.497935 0.499657 -0.469181
N2    N     N_R   0.797868 0.495206 0.497643 -0.467754
N3    N     N_R   0.500300 0.500930 0.147930 -0.200915
N4    N     N_R   0.500310 0.500890 0.852020 -0.176807
O1    O     O_R   0.500000 0.319640 0.618810 -0.578867
O2    O     O_2   0.796900 0.280234 0.461314 -0.536781
O3    O     O_2   0.203075 0.707935 0.564122 -0.533067
O4    O     O_2   0.797458 0.710215 0.533627 -0.538927
O5    O     O_R   0.500010 0.319680 0.381230 -0.585359
O6    O     O_R   0.430260 0.500000 0.618780 -0.590414
O7    O     O_R   0.430270 0.500040 0.381190 -0.589915
O8    O     O_R   0.499990 0.680320 0.618770 -0.574629
O9    O     O_R   0.500000 0.680360 0.381190 -0.585583
O10   O     O_R   0.569730 0.499960 0.618810 -0.584925
O11   O     O_R   0.569740 0.500000 0.381220 -0.561871
O12   O     O_2   0.202638 0.287940 0.435226 -0.534161
N5    N     N_2   0.611798 0.651272 0.142321 -0.398836
H28   H     H_    0.634279 0.587419 0.095756 0.246148
C55   C     C_3   0.634784 0.768849 0.170157 -0.644587
H29   H     H_    0.669514 0.753837 0.224530 0.237909
H30   H     H_    0.611732 0.826756 0.239251 0.230072
H31   H     H_    0.641746 0.817593 0.070318 0.224869

loop_
_geom_bond_atom_site_label_1
_geom_bond_atom_site_label_2
_ccdc_geom_bond_type
C10   C27   A    
Cu1   Cu2   S    
C24   H5    S    
C41   C42   S    
Cu1   O10   S    
Cu2   O11   S    
C21   C26   A    
Cu2   O7    S    
C28   C29   A    
C36   C37   A    
C2    H12   S    
C51   O3    S    
C5    C6    A    
C9    C22   A    
C42   H11   S    
C23   C40   S    
C34   O10   A    
C23   O9    A    
C55   H31   S    
C18   C19   A    
C25   H7    S    
C31   H3    S    
Cu1   O1    S    
C33   H6    S    
C49   H19   S    
C35   H8    S    
C46   H16   S    
C16   C20   A    
C1    O1    A    
C21   C22   A    
C27   C30   A    
C12   O7    A    
C36   C41   A    
C4    C7    A    
C44   N3    A    
C4    C28   A    
C7    C31   A    
C24   C25   A    
C22   H22   S    
Cu1   O8    S    
C45   O12   S    
C8    C54   A    
C39   C40   A    
C16   C17   A    
C6    H21   S    
C25   C26   A    
C5    C45   A    
C42   H13   S    
C47   N4    A    
C30   H26   S    
C37   C38   A    
C50   H20   S    
Cu2   N3    S    
C15   H24   S    
C38   H9    S    
C8    C12   S    
C20   N2    A    
C21   H23   S    
N5    C55   S    
C17   C18   A    
C48   N4    A    
C55   H30   S    
C47   H17   S    
C52   H2    S    
C48   C49   S    
C6    C30   A    
C11   C32   A    
C43   H14   S    
C2    C54   A    
C9    C34   S    
C39   H10   S    
C31   C35   A    
C12   O6    A    
C45   N1    A    
C42   C43   S    
C32   H4    S    
C3    N1    S    
C52   C53   A    
C44   C50   S    
Cu2   O9    S    
C46   C47   A    
C40   C41   A    
C43   H15   S    
C14   C15   A    
C4    C5    A    
C19   N2    A    
C10   C13   A    
C8    C53   A    
C3    C52   A    
C9    C24   A    
C1    C37   S    
C1    O5    A    
C20   O2    S    
C29   C35   A    
C50   N5    S    
C13   C17   A    
C53   H27   S    
C32   C33   A    
C2    C3    A    
C7    C51   A    
C11   C13   A    
C38   C39   A    
C26   N2    S    
C51   N1    A    
N5    H28   S    
C34   O11   A    
C23   O8    A    
Cu1   N4    S    
C55   H29   S    
C18   C33   A    
C19   O4    S    
C44   C48   A    
Cu2   O5    S    
C11   C29   A    
C49   C50   S    
C27   C28   A    
C49   H18   S    
C36   C43   S    
C14   H25   S    
Cu1   O6    S    
C15   C16   A    
C10   C14   A    
C46   N3    A    
C54   H1    S    
