data_mof_unit_35569.cif
_audit_creation_date              2012-12-11T15:31:35-0500
_audit_creation_method            fapswitch 2.2
_symmetry_space_group_name_H-M    P1
_symmetry_Int_Tables_number       1
_space_group_crystal_system       triclinic
_cell_length_a                    6.93815
_cell_length_b                    14.7681
_cell_length_c                    21.311668
_cell_angle_alpha                 74.588273
_cell_angle_beta                  90.714798
_cell_angle_gamma                 90.066826
_cell_volume                      2104.97233825

loop_
_atom_site_label
_atom_site_type_symbol
_atom_type_description
_atom_site_fract_x
_atom_site_fract_y
_atom_site_fract_z
_atom_type_partial_charge
O1    O     O_R   0.648150 0.130050 0.214300 -0.542885
O2    O     O_R   0.351850 0.869950 0.785700 -0.542885
O3    O     O_R   0.320490 0.006660 0.340150 -0.532306
O4    O     O_R   0.679510 0.993340 0.659850 -0.532307
O5    O     O_R   0.146100 0.869940 0.285700 -0.527132
O6    O     O_R   0.853900 0.130060 0.714300 -0.527132
C1    C     C_R   0.489650 0.001208 0.367152 0.765983
C2    C     C_R   0.510350 0.998792 0.632848 0.765983
O7    O     O_R   0.318690 0.137980 0.218120 -0.545024
O8    O     O_R   0.681310 0.862020 0.781880 -0.545024
O9    O     O_R   0.144280 0.002190 0.162800 -0.545466
O10   O     O_R   0.855720 0.997810 0.837200 -0.545466
C3    C     C_R   0.487214 0.175641 0.206483 0.685211
C4    C     C_R   0.512785 0.824359 0.793517 0.685211
O11   O     O_R   0.649960 0.997790 0.337200 -0.540251
O12   O     O_R   0.350040 0.002210 0.662800 -0.540251
O13   O     O_3   0.479300 0.955290 0.231990 -0.366673
O14   O     O_3   0.520700 0.044710 0.768010 -0.366673
V1    V     V_3+5 0.206040 0.008290 0.253340 1.498508
V2    V     V_3+5 0.793960 0.991710 0.746660 1.498508
O15   O     O_R   0.814320 0.993320 0.159850 -0.544011
O16   O     O_R   0.185680 0.006680 0.840150 -0.544011
C5    C     C_R   0.982127 0.998363 0.132814 0.675452
C6    C     C_R   0.017873 0.001637 0.867186 0.675452
O17   O     O_R   0.816120 0.862000 0.281880 -0.530046
O18   O     O_R   0.183880 0.138000 0.718120 -0.530046
C7    C     C_R   0.986027 0.824132 0.294602 0.735434
C8    C     C_R   0.013973 0.175868 0.705398 0.735434
V3    V     V_3+5 0.705540 0.991700 0.246660 1.502283
V4    V     V_3+5 0.294460 0.008300 0.753340 1.502283
O19   O     O_3   0.982150 0.044700 0.268010 -0.371715
O20   O     O_3   0.017850 0.955300 0.731990 -0.371715
C9    C     C_R   0.003554 0.722095 0.321463 -0.064811
C10   C     C_R   0.996446 0.277905 0.678537 -0.064812
C11   C     C_R   0.166502 0.579298 0.317521 -0.038225
C12   C     C_R   0.833498 0.420702 0.682479 -0.038224
C13   C     C_R   0.103645 0.669831 0.286670 -0.129208
C14   C     C_R   0.896355 0.330169 0.713330 -0.129208
C15   C     C_R   0.953454 0.680323 0.386061 -0.056150
C16   C     C_R   0.046546 0.319677 0.613939 -0.056150
C17   C     C_R   0.002886 0.585857 0.417080 0.092668
C18   C     C_R   0.997113 0.414143 0.582920 0.092668
C19   C     C_R   0.128611 0.538962 0.383958 0.002355
C20   C     C_R   0.871389 0.461038 0.616041 0.002355
C21   C     C_R   0.947867 0.540679 0.482243 -0.073467
C22   C     C_R   0.052132 0.459321 0.517757 -0.073466
C23   C     C_R   0.208458 0.426702 0.486965 0.273183
C24   C     C_R   0.791542 0.573298 0.513034 0.273183
C25   C     C_R   0.229858 0.458702 0.419291 0.373284
C26   C     C_R   0.770142 0.541298 0.580708 0.373285
H1    H     H_    0.106799 0.274845 0.586523 0.163032
H2    H     H_    0.893201 0.725155 0.413476 0.163032
H3    H     H_    0.854906 0.298384 0.763193 0.149031
H4    H     H_    0.145094 0.701616 0.236807 0.149030
H5    H     H_    0.254551 0.543974 0.289764 0.180077
H6    H     H_    0.745449 0.456026 0.710236 0.180077
C27   C     C_3   0.921466 0.921091 0.991275 -0.128688
C28   C     C_3   0.078534 0.078909 0.008725 -0.128689
C29   C     C_3   0.096742 0.925192 0.036244 -0.135261
C30   C     C_3   0.903258 0.074808 0.963756 -0.135262
H7    H     H_    0.176330 0.863448 0.066547 0.141183
H8    H     H_    0.823670 0.136552 0.933453 0.141183
H9    H     H_    0.856654 0.855996 0.983653 0.118028
H10   H     H_    0.143346 0.144004 0.016347 0.118028
C31   C     C_3   0.990038 0.998882 0.062184 -0.017302
C32   C     C_3   0.009962 0.001118 0.937816 -0.017302
C33   C     C_3   0.814623 0.994789 0.018018 -0.112211
C34   C     C_3   0.185376 0.005211 0.981982 -0.112211
H11   H     H_    0.661710 0.990367 0.033242 0.117412
H12   H     H_    0.338290 0.009633 0.966758 0.117412
C35   C     C_3   0.680115 0.986006 0.481406 -0.186674
C36   C     C_3   0.319885 0.013994 0.518594 -0.186674
C37   C     C_3   0.614379 0.068161 0.508325 0.335103
C38   C     C_3   0.385620 0.931839 0.491675 0.335103
H13   H     H_    0.828716 0.975225 0.466001 0.175239
H14   H     H_    0.171284 0.024775 0.533999 0.175239
C39   C     C_3   0.502054 0.999411 0.562368 -0.136354
C40   C     C_3   0.497946 0.000589 0.437632 -0.136354
C41   C     C_3   0.566818 0.916590 0.536163 -0.168876
C42   C     C_3   0.433182 0.083410 0.463837 -0.168876
H15   H     H_    0.620164 0.847554 0.566106 0.189476
H16   H     H_    0.379836 0.152446 0.433894 0.189476
C43   C     C_R   0.495265 0.276995 0.178860 -0.051593
C44   C     C_R   0.504735 0.723005 0.821140 -0.051593
C45   C     C_R   0.510841 0.433543 0.192378 -0.087014
C46   C     C_R   0.489163 0.566456 0.807622 -0.087014
C47   C     C_R   0.503948 0.336932 0.219299 -0.155469
C48   C     C_R   0.496055 0.663068 0.780702 -0.155469
C49   C     C_R   0.493212 0.313153 0.111424 -0.188356
C50   C     C_R   0.506787 0.686847 0.888576 -0.188356
C51   C     C_R   0.499377 0.411166 0.082290 0.065115
C52   C     C_R   0.500625 0.588834 0.917710 0.065116
C53   C     C_R   0.508526 0.471842 0.124280 0.061196
C54   C     C_R   0.491478 0.528158 0.875720 0.061195
C55   C     C_R   0.496648 0.450303 0.013137 0.011241
C56   C     C_R   0.503355 0.549697 0.986863 0.011241
C57   C     C_R   0.512692 0.606892 0.030531 -0.196354
C58   C     C_R   0.487313 0.393108 0.969469 -0.196354
C59   C     C_R   0.515186 0.569402 0.097591 0.241740
C60   C     C_R   0.484820 0.430598 0.902409 0.241740
H17   H     H_    0.513675 0.737923 0.916335 0.090764
H18   H     H_    0.486320 0.262077 0.083665 0.090764
H19   H     H_    0.494313 0.691201 0.728280 0.167050
H20   H     H_    0.505692 0.308799 0.271719 0.167050
H21   H     H_    0.518016 0.477530 0.225571 0.196411
H22   H     H_    0.481991 0.522470 0.774429 0.196410
H23   H     H_    0.518409 0.682215 0.014536 0.149245
H24   H     H_    0.481599 0.317785 0.985464 0.149245
Cl1   Cl    Cl    0.404450 0.404644 0.381023 -0.619523
Cl2   Cl    Cl    0.595550 0.595356 0.618976 -0.619523
Br1   Br    Br    0.528045 0.657271 0.150156 -0.621409
Br2   Br    Br    0.471964 0.342729 0.849843 -0.621410
Br3   Br    Br    0.425712 0.359432 0.536129 -0.431084
Br4   Br    Br    0.574288 0.640568 0.463871 -0.431085
Br5   Br    Br    0.783419 0.167417 0.519372 -0.512163
Br6   Br    Br    0.216581 0.832583 0.480628 -0.512163

loop_
_geom_bond_atom_site_label_1
_geom_bond_atom_site_label_2
_ccdc_geom_bond_type
C32   C34   S    
C37   C42   S    
C49   H18   S    
O13   V3    S    
C43   C47   A    
C55   C56   A    
C4    C44   S    
C27   C32   S    
C36   H14   S    
V1    O19   S    
C35   C41   S    
C55   C58   A    
C23   C25   A    
C21   C22   A    
C7    C9    S    
O9    V1    S    
C9    C15   A    
C44   C50   A    
C10   C16   A    
C24   Br4   S    
C11   C13   A    
O3    C1    A    
C40   C42   S    
C27   C29   S    
C28   C30   S    
C26   Cl2   S    
C58   H24   S    
C30   H8    S    
C18   C22   A    
O4    C2    A    
O7    C3    A    
C46   C54   A    
O5    C7    A    
C45   C53   A    
O7    V1    S    
O6    C8    A    
C30   C33   S    
O8    V2    S    
C31   C33   S    
O3    V1    S    
O14   V4    S    
C49   C51   A    
C11   C19   A    
C53   C59   A    
C6    C32   S    
C24   C26   A    
C15   H2    S    
C30   C32   S    
C2    O12   A    
O17   V3    S    
C17   C19   A    
C46   H22   S    
C18   C20   A    
C27   C33   S    
C45   H21   S    
O1    V3    S    
C57   C59   A    
O11   V3    S    
C45   C47   A    
C52   C56   A    
C28   H10   S    
C43   C49   A    
C29   H7    S    
C46   C48   A    
C11   H5    S    
V4    O20   S    
C36   C38   S    
O8    C4    A    
C41   H15   S    
C19   C25   A    
C1    O11   A    
O15   V3    S    
C9    C13   A    
C33   H11   S    
O4    V2    S    
C50   H17   S    
C36   C39   S    
C12   H6    S    
C29   C34   S    
C51   C53   A    
C28   C31   S    
C50   C52   A    
C54   C60   A    
C59   Br1   S    
C56   C57   A    
O10   V2    S    
C52   C54   A    
C39   C41   S    
C1    C40   S    
C13   H4    S    
C28   C34   S    
O18   V4    S    
C58   C60   A    
C38   C41   S    
O15   C5    A    
C2    C39   S    
O16   C6    A    
C12   C20   A    
O1    C3    A    
C48   H19   S    
C25   Cl1   S    
V2    O20   S    
C21   C24   A    
C20   C26   A    
C23   Br3   S    
C3    C43   S    
C22   C23   A    
C37   C39   S    
O16   V4    S    
C10   C14   A    
C44   C48   A    
C27   H9    S    
C16   C18   A    
C60   Br2   S    
O5    V1    S    
O17   C7    A    
C16   H1    S    
O6    V2    S    
O10   C6    A    
O18   C8    A    
C37   Br5   S    
O2    V4    S    
C5    C31   S    
C12   C14   A    
C36   C42   S    
C38   Br6   S    
C29   C31   S    
C35   H13   S    
C14   H3    S    
O9    C5    A    
O13   V1    S    
C42   H16   S    
O14   V2    S    
O2    C4    A    
C8    C10   S    
C47   H20   S    
C57   H23   S    
C15   C17   A    
C51   C55   A    
V3    O19   S    
C38   C40   S    
C35   C37   S    
C34   H12   S    
C17   C21   A    
O12   V4    S    
C35   C40   S    
