data_mof_unit_20986.cif
_audit_creation_date              2012-12-10T17:22:03-0500
_audit_creation_method            fapswitch 2.2
_symmetry_space_group_name_H-M    P1
_symmetry_Int_Tables_number       1
_space_group_crystal_system       triclinic
_cell_length_a                    10.185861
_cell_length_b                    10.833108
_cell_length_c                    15.752176
_cell_angle_alpha                 91.189854
_cell_angle_beta                  80.523865
_cell_angle_gamma                 97.491702
_cell_volume                      1699.81254483

loop_
_atom_site_label
_atom_site_type_symbol
_atom_type_description
_atom_site_fract_x
_atom_site_fract_y
_atom_site_fract_z
_atom_type_partial_charge
C1    C     C_R   0.558496 0.733054 0.494752 0.837468
C2    C     C_2   0.496790 0.936512 0.512115 -0.097658
C3    C     C_2   0.403745 0.133617 0.511305 -0.232676
C4    C     C_R   0.499262 0.500072 0.661477 0.894747
C5    C     C_2   0.501902 0.063565 0.484253 -0.105356
C6    C     C_2   0.919390 0.483644 0.521939 -0.042848
C7    C     C_2   0.066230 0.472813 0.504978 0.234272
C8    C     C_R   0.441605 0.267105 0.505218 0.831509
C9    C     C_R   0.500575 0.499425 0.338541 0.901246
C10   C     C_3   0.412946 0.586272 0.961258 -0.489725
C11   C     C_3   0.645246 0.520182 0.936420 0.126287
C12   C     C_3   0.411790 0.585455 0.059335 -0.182136
C13   C     C_3   0.640678 0.516859 0.035770 -0.480932
C14   C     C_1   0.500217 0.494084 0.249874 -0.111355
C15   C     C_3   0.496691 0.484889 0.917064 0.049290
C16   C     C_2   0.270174 0.578838 0.108113 0.446881
C17   C     C_2   0.532868 0.255593 0.077840 0.519980
C18   C     C_2   0.265198 0.084294 0.551938 0.477612
C19   C     C_2   0.736406 0.916322 0.449593 0.467113
C20   C     C_2   0.704285 0.650417 0.902822 0.454362
C21   C     C_2   0.477018 0.243492 0.902104 0.574124
C22   C     C_2   0.304620 0.297574 0.109994 0.367395
C23   C     C_3   0.493926 0.481941 0.083456 0.042823
C24   C     C_3   0.438669 0.345808 0.055007 -0.119674
C25   C     C_3   0.425924 0.352161 0.954605 0.047410
C26   C     C_1   0.497986 0.488428 0.174942 -0.085865
C27   C     C_1   0.496069 0.491298 0.825497 -0.013553
C28   C     C_1   0.496795 0.496170 0.750344 -0.086021
C29   C     C_2   0.596328 0.866827 0.487775 -0.236886
H1    H     H_    0.465044 0.677152 0.076077 0.199191
H2    H     H_    0.519222 0.220524 0.143311 0.068958
H3    H     H_    0.209847 0.139177 0.600257 0.094657
H4    H     H_    0.796820 0.857892 0.406965 0.103029
H5    H     H_    0.706145 0.729954 0.945888 0.074864
H6    H     H_    0.542958 0.258375 0.840887 0.058776
H7    H     H_    0.260050 0.351253 0.163325 0.087545
H8    H     H_    0.309955 0.575564 0.945438 0.217524
H9    H     H_    0.593611 0.105345 0.444720 0.220053
H10   H     H_    0.403708 0.894615 0.550090 0.221690
H11   H     H_    0.873763 0.508739 0.585956 0.163034
H12   H     H_    0.455637 0.680463 0.935566 0.199727
H13   H     H_    0.682836 0.608014 0.060608 0.166259
H14   H     H_    0.707927 0.452028 0.052932 0.238887
H15   H     H_    0.190740 0.511657 0.090320 0.096753
I1    I     I_    0.113575 0.309005 0.433943 -0.180407
I2    I     I_    0.102509 0.698641 0.613370 -0.120764
I3    I     I_    0.922052 0.494405 0.336803 -0.151277
I4    I     I_    0.789756 0.401376 0.874479 -0.206931
I5    I     I_    0.216620 0.326501 0.929389 -0.234773
N1    N     N_2   0.842720 0.448890 0.465540 -0.025822
N2    N     N_2   0.157250 0.551040 0.534500 -0.060975
O1    O     O_R   0.431050 0.692470 0.506940 -0.578604
O2    O     O_2   0.627533 0.226022 0.027092 -0.528049
O3    O     O_2   0.208737 0.986698 0.527880 -0.508856
O4    O     O_2   0.788091 0.018877 0.468951 -0.518632
O5    O     O_2   0.744448 0.669119 0.826158 -0.519644
O6    O     O_2   0.436325 0.136216 0.924876 -0.479029
O7    O     O_2   0.249297 0.192695 0.099110 -0.461757
O8    O     O_R   0.651130 0.659650 0.484820 -0.612917
O9    O     O_R   0.389910 0.516410 0.633920 -0.596031
O10   O     O_R   0.609990 0.483590 0.611800 -0.610176
O11   O     O_R   0.348870 0.340350 0.515180 -0.613388
O12   O     O_R   0.568950 0.307530 0.493060 -0.586319
O13   O     O_R   0.390010 0.516410 0.388200 -0.581410
O14   O     O_R   0.610090 0.483590 0.366080 -0.592413
O15   O     O_2   0.243038 0.650935 0.167074 -0.511359
Zn1   Zn    Zn3+2 0.353060 0.521920 0.514770 1.046330
Zn2   Zn    Zn3+2 0.646940 0.478080 0.485230 1.034421

loop_
_geom_bond_atom_site_label_1
_geom_bond_atom_site_label_2
_ccdc_geom_bond_type
C22   O7    D    
C9    C14   S    
C21   O6    D    
C6    C7    S    
C21   H6    S    
O8    Zn2   S    
C9    O13   A    
C22   H7    S    
C16   H15   S    
C15   C27   S    
O10   Zn2   S    
C20   O5    D    
C23   C24   S    
O14   Zn2   S    
C20   H5    S    
C4    O9    A    
C1    C29   S    
C7    N2    D    
N2    Zn1   S    
C5    H9    S    
C14   C26   T    
C10   H12   S    
C11   C13   S    
C12   C23   S    
C11   I4    S    
O1    Zn1   S    
C10   C12   S    
O11   Zn1   S    
I2    N2    S    
C10   H8    S    
C7    I1    S    
N1    Zn2   S    
C13   H13   S    
C4    C28   S    
C1    O8    A    
I3    N1    S    
C22   C24   S    
C10   C15   S    
C2    C29   D    
C17   H2    S    
C1    O1    A    
C9    O14   A    
C11   C20   S    
C15   C25   S    
C17   C24   S    
C16   O15   D    
C2    H10   S    
C8    O12   A    
C19   C29   S    
O13   Zn1   S    
C17   O2    D    
C13   H14   S    
C6    H11   S    
C18   H3    S    
C24   C25   S    
C13   C23   S    
C3    C18   S    
C3    C8    S    
C19   H4    S    
C23   C26   S    
C19   O4    D    
C27   C28   T    
C18   O3    D    
O12   Zn2   S    
C21   C25   S    
C12   H1    S    
C2    C5    S    
C11   C15   S    
C4    O10   A    
C6    N1    D    
C12   C16   S    
O9    Zn1   S    
C8    O11   A    
C3    C5    D    
C25   I5    S    
