data_mof_unit_21009.cif
_audit_creation_date              2012-12-11T16:48:29-0500
_audit_creation_method            fapswitch 2.2
_symmetry_space_group_name_H-M    P1
_symmetry_Int_Tables_number       1
_space_group_crystal_system       triclinic
_cell_length_a                    17.359347
_cell_length_b                    24.335403
_cell_length_c                    15.056377
_cell_angle_alpha                 90.351946
_cell_angle_beta                  125.696167
_cell_angle_gamma                 89.537994
_cell_volume                      5165.34322445

loop_
_atom_site_label
_atom_site_type_symbol
_atom_type_description
_atom_site_fract_x
_atom_site_fract_y
_atom_site_fract_z
_atom_type_partial_charge
C1    C     C_R   0.357004 0.347355 0.908799 0.637992
C2    C     C_R   0.533182 0.497082 0.706825 -0.108305
C3    C     C_R   0.054562 0.845468 0.911679 -0.015765
C4    C     C_R   0.384053 0.315414 0.997594 -0.164574
C5    C     C_R   0.616136 0.314076 0.003783 -0.216972
C6    C     C_R   0.883393 0.815415 0.998145 -0.170654
C7    C     C_R   0.115149 0.814009 0.004187 -0.211770
C8    C     C_R   0.063717 0.997707 0.364423 -0.103773
C9    C     C_R   0.034341 0.997104 0.708090 -0.104343
C10   C     C_R   0.174223 0.498103 0.688810 0.112157
C11   C     C_R   0.797105 0.498650 0.367460 0.092827
C12   C     C_R   0.702975 0.998395 0.632466 0.110744
C13   C     C_R   0.325807 0.997704 0.309965 0.092873
C14   C     C_2   0.920166 0.454041 0.535985 -0.085367
C15   C     C_2   0.021819 0.457872 0.621246 -0.109202
C16   C     C_2   0.478920 0.956924 0.378594 -0.100436
C17   C     C_R   0.645010 0.347409 0.092105 0.673487
C18   C     C_2   0.580594 0.953280 0.464226 -0.098895
C19   C     C_2   0.870231 0.499434 0.484275 -0.187442
C20   C     C_2   0.072219 0.498192 0.617654 -0.189123
C21   C     C_2   0.427741 0.997595 0.381327 -0.179943
C22   C     C_2   0.629614 0.998816 0.515681 -0.201538
C23   C     C_R   0.266405 0.689907 0.106182 0.029421
C24   C     C_R   0.733210 0.692510 0.898559 0.026831
C25   C     C_R   0.762627 0.187348 0.104082 0.033594
C26   C     C_R   0.226914 0.196408 0.896290 0.019869
C27   C     C_R   0.243225 0.668732 0.006805 0.080620
C28   C     C_R   0.856113 0.847437 0.908937 0.655123
C29   C     C_R   0.753593 0.673717 0.997979 0.084009
C30   C     C_R   0.739804 0.166037 0.004757 0.080184
C31   C     C_R   0.247970 0.177851 0.995948 0.084982
C32   C     C_R   0.153603 0.681658 0.911168 -0.212946
C33   C     C_R   0.842372 0.686842 0.094406 -0.215802
C34   C     C_R   0.651594 0.180710 0.908697 -0.212095
C35   C     C_R   0.338546 0.188628 0.091666 -0.216283
C36   C     C_R   0.600900 0.225449 0.910117 -0.117178
C37   C     C_R   0.394619 0.228859 0.089975 -0.132886
C38   C     C_R   0.101063 0.725236 0.912461 -0.119886
C39   C     C_R   0.143877 0.847257 0.092189 0.655245
C40   C     C_R   0.896113 0.728849 0.092855 -0.128166
C41   C     C_R   0.638739 0.255524 0.007608 0.026356
C42   C     C_R   0.358917 0.258116 0.992762 0.031346
C43   C     C_R   0.138860 0.755776 0.009306 0.028257
C44   C     C_R   0.860318 0.757581 0.994930 0.029190
C45   C     C_R   0.402514 0.623855 0.091915 -0.122384
C46   C     C_R   0.593031 0.631024 0.910545 -0.112002
C47   C     C_R   0.900685 0.122385 0.090821 -0.123306
C48   C     C_R   0.089659 0.133344 0.909379 -0.111888
C49   C     C_R   0.712279 0.231049 0.105854 0.087515
C50   C     C_R   0.315481 0.640976 0.001948 0.072809
C51   C     C_R   0.282240 0.235755 0.894164 0.087367
C52   C     C_R   0.214574 0.732619 0.107877 0.092742
C53   C     C_R   0.786736 0.733342 0.896647 0.080963
C54   C     C_3   0.800087 0.254888 0.205834 0.823568
C55   C     C_3   0.196828 0.262222 0.794640 0.835246
C56   C     C_3   0.302293 0.757997 0.205801 0.831343
C57   C     C_3   0.701237 0.757686 0.794389 0.826802
C58   C     C_3   0.358408 0.711618 0.202839 -0.739398
C59   C     C_3   0.643080 0.713682 0.797789 -0.743898
C60   C     C_3   0.854824 0.207725 0.202730 -0.739940
C61   C     C_R   0.681436 0.645769 0.001515 0.073940
C62   C     C_3   0.137015 0.219376 0.798104 -0.743062
C63   C     C_R   0.564594 0.444861 0.591801 0.198269
C64   C     C_R   0.574297 0.444906 0.507889 0.208911
C65   C     C_R   0.064116 0.944936 0.591668 0.202178
C66   C     C_R   0.073157 0.945055 0.507268 0.214522
C67   C     C_R   0.573112 0.493803 0.645562 0.053211
C68   C     C_R   0.592837 0.493831 0.475672 0.062567
C69   C     C_R   0.073796 0.993757 0.646347 0.051125
C70   C     C_R   0.092123 0.993914 0.475367 0.063215
C71   C     C_R   0.611038 0.540269 0.629240 -0.187929
C72   C     C_R   0.812184 0.137763 0.000170 0.072340
C73   C     C_R   0.620961 0.540306 0.543537 -0.191913
C74   C     C_R   0.111773 0.040158 0.629913 -0.190484
C75   C     C_R   0.120924 0.040272 0.543624 -0.189957
C76   C     C_3   0.493675 0.405501 0.441270 -0.503399
C77   C     C_3   0.483177 0.405410 0.533322 -0.431225
C78   C     C_3   0.991827 0.906137 0.440424 -0.509143
C79   C     C_3   0.981956 0.905971 0.532972 -0.434478
C80   C     C_R   0.549824 0.452985 0.301037 0.695625
C81   C     C_R   0.513374 0.452628 0.745684 0.716321
C82   C     C_R   0.049658 0.953016 0.300997 0.709907
C83   C     C_R   0.176119 0.150294 0.999806 0.074940
C84   C     C_R   0.013902 0.952637 0.746286 0.709729
C85   C     C_R   0.230454 0.544358 0.722642 -0.135603
C86   C     C_R   0.752304 0.544593 0.304514 -0.149635
C87   C     C_R   0.747611 0.044435 0.695223 -0.147545
C88   C     C_R   0.269423 0.044220 0.275868 -0.133129
C89   C     C_R   0.548271 0.544234 0.303467 -0.261470
C90   C     C_R   0.503537 0.543704 0.732602 -0.248920
C91   C     C_R   0.048161 0.044266 0.303396 -0.262476
C92   C     C_R   0.004892 0.043770 0.733990 -0.247841
C93   C     C_R   0.232292 0.452432 0.732757 -0.112455
C94   C     C_R   0.564091 0.497652 0.364579 -0.097935
C95   C     C_R   0.752147 0.453204 0.302503 -0.057557
C96   C     C_R   0.748172 0.953063 0.697649 -0.100242
C97   C     C_R   0.267996 0.952179 0.266912 -0.068791
C98   C     C_R   0.312810 0.629050 0.909564 -0.128005
C99   C     C_R   0.687412 0.628470 0.093387 -0.135171
C100  C     C_R   0.809505 0.124991 0.907803 -0.129005
C101  C     C_R   0.182774 0.133211 0.091855 -0.134702
C102  C     C_R   0.442672 0.347335 0.090191 -0.152662
C103  C     C_R   0.554915 0.345594 0.911518 -0.012873
C104  C     C_R   0.942406 0.847491 0.090438 -0.149490
F1    F     F_    0.331303 0.328093 0.810515 -0.690596
F2    F     F_    0.535777 0.399669 0.743763 -0.756932
F3    F     F_    0.086750 0.902128 0.338455 -0.707249
F4    F     F_    0.036096 0.899644 0.744200 -0.757189
F5    F     F_    0.674697 0.329609 0.192382 -0.674074
F6    F     F_    0.829122 0.828306 0.810152 -0.699790
F7    F     F_    0.171512 0.829290 0.191701 -0.661939
F8    F     F_    0.798504 0.251864 0.296606 -0.620020
F9    F     F_    0.196970 0.255930 0.703226 -0.627369
F10   F     F_    0.303066 0.755278 0.298190 -0.616424
F11   F     F_    0.704793 0.750985 0.705395 -0.630043
F12   F     F_    0.587197 0.402141 0.338426 -0.720576
H1    H     H_    0.895680 0.539539 0.522417 0.136709
H2    H     H_    0.458350 0.241722 0.166924 0.153021
H3    H     H_    0.038382 0.738968 0.835315 0.148565
H4    H     H_    0.957903 0.743070 0.170139 0.152649
H5    H     H_    0.820917 0.295668 0.193502 -0.023605
H6    H     H_    0.180726 0.304685 0.807215 -0.049577
H7    H     H_    0.320582 0.799022 0.191071 -0.049039
H8    H     H_    0.681630 0.799849 0.803677 -0.019799
H9    H     H_    0.406983 0.725804 0.182250 0.179505
H10   H     H_    0.592725 0.730952 0.813816 0.180196
H11   H     H_    0.905119 0.221467 0.184400 0.180103
H12   H     H_    0.038920 0.531845 0.559762 0.136530
H13   H     H_    0.088981 0.237159 0.817210 0.179712
H14   H     H_    0.391129 0.683940 0.274893 0.246200
H15   H     H_    0.611980 0.684329 0.728152 0.239849
H16   H     H_    0.885338 0.179515 0.273737 0.246725
H17   H     H_    0.103025 0.190773 0.727068 0.240489
H18   H     H_    0.623488 0.577906 0.674440 0.150781
H19   H     H_    0.640001 0.578121 0.523549 0.152718
H20   H     H_    0.124857 0.077723 0.675550 0.152622
H21   H     H_    0.140130 0.078046 0.523713 0.153892
H22   H     H_    0.431387 0.423941 0.365063 0.187645
H23   H     H_    0.460339 0.031517 0.438789 0.136984
H24   H     H_    0.500688 0.364565 0.573587 0.250077
H25   H     H_    0.929682 0.924997 0.364682 0.186780
H26   H     H_    0.998911 0.864990 0.572641 0.250237
H27   H     H_    0.517191 0.364930 0.430552 0.249966
H28   H     H_    0.415071 0.423834 0.510660 0.195083
H29   H     H_    0.014511 0.865485 0.428846 0.250735
H30   H     H_    0.914315 0.924765 0.511066 0.192843
H31   H     H_    0.428136 0.624794 0.176393 0.129915
H32   H     H_    0.561721 0.640907 0.827363 0.118381
H33   H     H_    0.926022 0.123251 0.175157 0.130690
H34   H     H_    0.603508 0.038811 0.477247 0.140393
H35   H     H_    0.057224 0.143476 0.825875 0.116844
H36   H     H_    0.206914 0.585670 0.693096 0.098586
H37   H     H_    0.761304 0.586260 0.334464 0.104080
H38   H     H_    0.738202 0.085969 0.665078 0.105948
H39   H     H_    0.292848 0.085612 0.304229 0.097693
H40   H     H_    0.565492 0.586037 0.333315 0.143594
H41   H     H_    0.497879 0.584372 0.701652 0.144398
H42   H     H_    0.065155 0.086097 0.333136 0.146415
H43   H     H_    0.000535 0.084543 0.704228 0.142886
H44   H     H_    0.212040 0.409663 0.718307 0.161402
H45   H     H_    0.129354 0.663087 0.833502 0.131322
H46   H     H_    0.760112 0.411223 0.329638 0.188044
H47   H     H_    0.740493 0.910882 0.671014 0.166903
H48   H     H_    0.288741 0.909378 0.281848 0.163199
H49   H     H_    0.257367 0.640359 0.826837 0.097249
H50   H     H_    0.745781 0.633537 0.178370 0.101038
H51   H     H_    0.750942 0.130665 0.823077 0.102465
H52   H     H_    0.237429 0.143824 0.175332 0.094765
H53   H     H_    0.486376 0.333435 0.174009 0.209182
H54   H     H_    0.506203 0.329799 0.829626 0.207249
H55   H     H_    0.986549 0.833695 0.174289 0.210866
H56   H     H_    0.865219 0.669803 0.172459 0.132231
H57   H     H_    0.006152 0.829631 0.829745 0.204921
H58   H     H_    0.893197 0.413434 0.502522 0.150752
H59   H     H_    0.056808 0.423659 0.677486 0.130489
H60   H     H_    0.444599 0.922436 0.322856 0.127600
H61   H     H_    0.608348 0.912759 0.497966 0.145718
H62   H     H_    0.627476 0.162629 0.830712 0.132204
H63   H     H_    0.361723 0.170971 0.169401 0.131399
H64   H     H_    0.539640 0.240119 0.832777 0.148362
N1    N     N_R   0.395410 0.396350 0.944340 -0.114743
N2    N     N_R   0.474920 0.471030 0.794350 -0.102498
N3    N     N_R   0.025080 0.971030 0.205650 -0.102182
N4    N     N_R   0.974920 0.971030 0.794350 -0.104374
N5    N     N_R   0.320260 0.527820 0.794570 -0.046448
N6    N     N_R   0.679740 0.527820 0.205430 -0.048720
N7    N     N_R   0.820260 0.027820 0.794570 -0.047462
N8    N     N_R   0.179740 0.027820 0.205430 -0.048603
N9    N     N_R   0.524590 0.527840 0.205200 -0.073685
N10   N     N_R   0.475410 0.527840 0.794800 -0.071801
N11   N     N_R   0.024590 0.027840 0.205200 -0.075970
N12   N     N_R   0.604590 0.396350 0.055660 -0.115882
N13   N     N_R   0.975410 0.027840 0.794800 -0.070976
N14   N     N_R   0.320750 0.471000 0.795020 -0.050728
N15   N     N_R   0.679250 0.471000 0.204980 -0.056486
N16   N     N_R   0.820750 0.971000 0.795020 -0.055829
N17   N     N_R   0.179250 0.971000 0.204980 -0.045831
N18   N     N_R   0.393620 0.602490 0.942710 -0.041872
N19   N     N_R   0.606380 0.602490 0.057290 -0.042004
N20   N     N_R   0.893620 0.102490 0.942710 -0.042466
N21   N     N_R   0.106380 0.102490 0.057290 -0.041450
N22   N     N_R   0.451720 0.396350 0.057510 -0.083235
N23   N     N_R   0.895410 0.896350 0.944340 -0.113281
N24   N     N_R   0.548280 0.396350 0.942490 -0.086802
N25   N     N_R   0.951720 0.896350 0.057510 -0.083751
N26   N     N_R   0.048280 0.896350 0.942490 -0.086726
N27   N     N_R   0.104590 0.896350 0.055660 -0.117783
N28   N     N_R   0.449930 0.602500 0.055880 -0.043962
N29   N     N_R   0.550070 0.602500 0.944120 -0.042399
N30   N     N_R   0.949930 0.102500 0.055880 -0.043811
N31   N     N_R   0.050070 0.102500 0.944120 -0.042196
N32   N     N_R   0.525080 0.471030 0.205650 -0.100811
Ni1   Ni    Ni4+2 0.435420 0.434270 0.870230 0.278503
Ni2   Ni    Ni4+2 0.564580 0.434270 0.129770 0.293248
Ni3   Ni    Ni4+2 0.935420 0.934270 0.870230 0.265900
Ni4   Ni    Ni4+2 0.064580 0.934270 0.129770 0.308374
Ni5   Ni    Ni4+2 0.563430 0.564580 0.128740 0.201812
Ni6   Ni    Ni4+2 0.436570 0.564580 0.871260 0.212895
Ni7   Ni    Ni4+2 0.063430 0.064580 0.128740 0.207568
Ni8   Ni    Ni4+2 0.936570 0.064580 0.871260 0.205887

loop_
_geom_bond_atom_site_label_1
_geom_bond_atom_site_label_2
_ccdc_geom_bond_type
N26   Ni3   S    
C47   N30   A    
N13   Ni8   S    
C5    C103  A    
C10   C85   A    
C16   C21   D    
C65   C79   S    
C12   C22   S    
N7    N16   A    
C23   C58   S    
C93   N14   A    
C36   H64   S    
C77   H24   S    
N5    N14   A    
C60   H16   S    
C71   H18   S    
C22   H34   S    
C23   C52   A    
C56   F10   S    
C57   F11   S    
C54   C60   S    
C59   H10   S    
N31   Ni8   S    
N23   N25   A    
C59   H15   S    
C4    C42   S    
C92   H43   S    
C8    C82   A    
N29   Ni6   S    
C64   C68   A    
C62   H17   S    
N23   Ni3   S    
C35   C37   A    
C86   H37   S    
C9    C69   S    
C20   H12   S    
C3    C7    A    
C72   C100  A    
C43   C52   A    
C57   C59   S    
C79   H26   S    
C5    C17   A    
C11   C86   A    
C49   C54   S    
C55   C62   S    
C29   C33   A    
N3    Ni4   S    
C31   C83   S    
C51   C55   S    
C96   N16   A    
C41   C49   A    
C37   C42   A    
C2    C90   A    
C103  N24   A    
C91   H42   S    
C74   H20   S    
C78   H29   S    
C24   C29   A    
C52   C56   S    
C44   C53   A    
C3    H57   S    
C46   H32   S    
C37   H2    S    
N1    N22   A    
C18   H61   S    
C10   C20   S    
N15   Ni2   S    
N19   Ni5   S    
C103  H54   S    
N20   N30   A    
N18   Ni6   S    
C25   C60   S    
C32   C38   A    
C83   C101  A    
C34   C36   A    
C27   C50   S    
C42   C51   A    
C80   N32   A    
C99   H50   S    
C16   H60   S    
C102  H53   S    
C39   F7    S    
C26   C62   S    
C55   H6    S    
C26   C31   A    
C6    C44   S    
C35   H63   S    
C28   N23   A    
C62   H13   S    
C36   C41   A    
C61   C99   A    
C81   N2    A    
N14   Ni1   S    
N10   Ni6   S    
C9    C92   A    
N12   Ni2   S    
N9    Ni5   S    
C79   H30   S    
C29   C61   S    
N7    Ni8   S    
C56   C58   S    
C17   N12   A    
C85   N5    A    
C15   C20   D    
C66   C78   S    
N6    Ni5   S    
C63   C67   A    
C50   C98   A    
C33   C40   A    
N5    Ni6   S    
C30   C34   A    
C46   C61   A    
N18   N28   A    
C88   H39   S    
C80   F12   S    
N6    N15   A    
C84   N4    A    
C76   C77   S    
N21   Ni7   S    
C92   N13   A    
C75   H21   S    
C95   H46   S    
N11   Ni7   S    
C71   C73   A    
N16   Ni3   S    
C47   H33   S    
N26   N27   A    
C25   C30   A    
N4    Ni3   S    
C87   N7    A    
C55   F9    S    
C10   C93   A    
C28   F6    S    
C68   C73   A    
C82   F3    S    
C91   N11   A    
C82   N3    A    
C73   H19   S    
N30   Ni7   S    
C39   N27   A    
N19   N29   A    
C101  H52   S    
C93   H44   S    
C56   H7    S    
C97   N17   A    
N2    Ni1   S    
C102  N22   A    
C48   N31   A    
C88   N8    A    
C97   H48   S    
C11   C19   S    
C32   H45   S    
C76   H27   S    
C64   C76   S    
C87   H38   S    
C54   F8    S    
C69   C74   A    
C8    C91   A    
C104  N25   A    
N22   Ni2   S    
N17   Ni4   S    
C104  H55   S    
C38   H3    S    
C100  N20   A    
C40   H4    S    
C54   H5    S    
N32   Ni2   S    
C86   N6    A    
C45   N28   A    
C23   C27   A    
C100  H51   S    
N20   Ni8   S    
C31   C35   A    
C34   H62   S    
C21   H23   S    
C80   C94   A    
C70   C75   A    
C90   N10   A    
N8    Ni7   S    
C11   C95   A    
N28   Ni5   S    
C5    C41   S    
C81   F2    S    
C95   N15   A    
N12   N24   A    
C12   C87   A    
C27   C32   A    
C45   H31   S    
C3    N26   A    
C14   C19   D    
C60   H11   S    
N25   Ni4   S    
C7    C43   S    
C89   H40   S    
N9    N32   A    
N3    N11   A    
C89   C94   A    
C30   C72   S    
C48   C83   A    
C1    N1    A    
C76   H22   S    
C46   N29   A    
C68   C94   S    
C8    C70   S    
C6    C104  A    
C96   H47   S    
C15   H59   S    
C1    C4    A    
C90   H41   S    
C18   C22   D    
C24   C53   A    
C77   H28   S    
C38   C43   A    
C14   H58   S    
C101  N21   A    
C89   N9    A    
C13   C21   S    
C57   H8    S    
C45   C50   A    
C78   C79   S    
C98   N18   A    
C66   C70   A    
C17   F5    S    
N8    N17   A    
C58   H14   S    
C24   C59   S    
C65   C69   A    
N24   Ni1   S    
C13   C88   A    
N27   Ni4   S    
C84   F4    S    
C53   C57   S    
C67   C71   A    
C13   C97   A    
C78   H25   S    
C25   C49   A    
C47   C72   A    
C85   H36   S    
C98   H49   S    
C9    C84   A    
C63   C64   A    
C4    C102  A    
C2    C67   S    
C6    C28   A    
C40   C44   A    
C74   C75   A    
C19   H1    S    
C58   H9    S    
C16   C18   S    
C65   C66   A    
C48   H35   S    
C99   N19   A    
C63   C77   S    
C7    C39   A    
C14   C15   S    
C12   C96   A    
C2    C81   A    
N1    Ni1   S    
N2    N10   A    
C26   C51   A    
C33   H56   S    
N21   N31   A    
N4    N13   A    
C1    F1    S    
