data_mof_unit_50966.cif
_audit_creation_date              2012-12-11T14:36:21-0500
_audit_creation_method            fapswitch 2.2
_symmetry_space_group_name_H-M    P1
_symmetry_Int_Tables_number       1
_space_group_crystal_system       triclinic
_cell_length_a                    13.651867
_cell_length_b                    13.612391
_cell_length_c                    27.490224
_cell_angle_alpha                 91.118671
_cell_angle_beta                  90.046439
_cell_angle_gamma                 59.900447
_cell_volume                      4418.68091663

loop_
_atom_site_label
_atom_site_type_symbol
_atom_type_description
_atom_site_fract_x
_atom_site_fract_y
_atom_site_fract_z
_atom_type_partial_charge
C1    C     C_R   0.619611 0.101349 0.570163 0.546385
C2    C     C_1   0.644894 0.703058 0.657796 -0.020238
C3    C     C_3   0.085997 0.159731 0.736899 0.087346
C4    C     C_R   0.598451 0.781141 0.568837 0.551042
C5    C     C_3   0.170490 0.070874 0.772531 -0.139816
C6    C     C_1   0.098720 0.199587 0.902324 -0.002182
C7    C     C_1   0.229909 0.143146 0.617067 0.005361
C8    C     C_3   0.066413 0.256730 0.772265 0.175303
C9    C     C_3   0.151609 0.170256 0.807760 0.008050
C10   C     C_3   0.161509 0.265453 0.747405 0.133294
C11   C     C_3   0.179860 0.169643 0.711548 0.099831
C12   C     C_1   0.628500 0.733060 0.616185 0.008009
C13   C     C_3   0.248523 0.180225 0.783267 -0.124450
C14   C     C_3   0.264239 0.083639 0.747158 0.064459
C15   C     C_1   0.128105 0.180490 0.860225 -0.044107
C16   C     C_R   0.277892 0.122717 0.569346 0.551495
C17   C     C_1   0.202181 0.158440 0.659206 -0.007284
C18   C     C_3   0.618748 0.275149 0.742619 0.107704
C19   C     C_3   0.546107 0.255291 0.779269 0.115457
C20   C     C_1   0.687164 0.205581 0.904865 0.000421
C21   C     C_1   0.633125 0.133303 0.618547 0.009032
C22   C     C_3   0.723598 0.205063 0.774219 0.098119
C23   C     C_3   0.700244 0.542981 0.762513 -0.141847
C24   C     C_3   0.650605 0.185187 0.811078 0.039327
C25   C     C_3   0.748222 0.096313 0.745985 0.088964
C26   C     C_3   0.644322 0.166460 0.713801 0.084631
C27   C     C_3   0.676616 0.074308 0.782981 -0.100068
C28   C     C_R   0.621183 0.098161 0.430912 0.534921
C29   C     C_3   0.572154 0.146716 0.750773 0.101063
C30   C     C_1   0.665365 0.195015 0.863343 -0.017704
C31   C     C_1   0.639707 0.151849 0.661067 0.006873
C32   C     C_R   0.743647 0.674962 0.362023 0.093385
C33   C     C_R   0.758607 0.656416 0.310382 0.047039
C34   C     C_3   0.690867 0.627344 0.802971 0.070806
C35   C     C_R   0.770646 0.648567 0.206748 0.032854
C36   C     C_R   0.869739 0.613452 0.234589 0.114570
C37   C     C_R   0.863973 0.617615 0.286050 0.096355
C38   C     C_R   0.772460 0.649172 0.155283 0.089126
C39   C     C_R   0.682263 0.650294 0.129585 0.026246
C40   C     C_R   0.602173 0.774601 0.430647 0.555427
C41   C     C_R   0.547463 0.722669 0.354324 -0.153907
C42   C     C_R   0.557659 0.712244 0.304512 0.006085
C43   C     C_R   0.661914 0.681754 0.281831 -0.001460
C44   C     C_R   0.461165 0.740080 0.277321 -0.122765
C45   C     C_3   0.589056 0.636873 0.739816 -0.103604
C46   C     C_R   0.465948 0.739280 0.227230 -0.120486
C47   C     C_R   0.568656 0.706820 0.203179 0.008632
C48   C     C_R   0.667599 0.678246 0.230603 -0.039508
C49   C     C_R   0.576190 0.694578 0.152336 0.061709
C50   C     C_R   0.635302 0.716131 0.382724 0.031488
C51   C     C_R   0.224272 0.057738 0.353141 0.052657
C52   C     C_R   0.292033 0.114890 0.427636 0.586659
C53   C     C_R   0.207371 0.062247 0.302387 0.020974
C54   C     C_R   0.156200 0.086790 0.202813 0.008907
C55   C     C_R   0.141312 0.009242 0.229799 -0.135507
C56   C     C_3   0.659809 0.674421 0.709400 0.053110
C57   C     C_R   0.166611 0.996945 0.279068 -0.131514
C58   C     C_R   0.115872 0.111044 0.155600 -0.137967
C59   C     C_R   0.119156 0.198081 0.130439 -0.021168
C60   C     C_R   0.286164 0.198201 0.346621 0.060716
C61   C     C_R   0.271959 0.200647 0.296103 -0.010617
C62   C     C_R   0.229648 0.135271 0.274279 0.015310
C63   C     C_R   0.297738 0.269142 0.267025 -0.127877
C64   C     C_3   0.770622 0.580721 0.731215 -0.125597
C65   C     C_R   0.272773 0.281169 0.217684 0.081792
C66   C     C_R   0.220811 0.224490 0.196663 0.048186
C67   C     C_3   0.581660 0.718916 0.780798 0.142625
C68   C     C_R   0.204325 0.147203 0.224395 0.035777
C69   C     C_R   0.177800 0.249180 0.149601 -0.108122
C70   C     C_R   0.262450 0.126410 0.375433 0.067789
C71   C     C_R   0.631682 0.219768 0.367647 -0.168557
C72   C     C_R   0.632943 0.244856 0.318638 0.001500
C73   C     C_R   0.647563 0.287779 0.220401 -0.004282
C74   C     C_R   0.643039 0.363762 0.256768 -0.125069
C75   C     C_R   0.636027 0.342259 0.305627 -0.123427
C76   C     C_3   0.761310 0.664548 0.772729 -0.110051
C77   C     C_R   0.664698 0.303643 0.172134 -0.150046
C78   C     C_3   0.650470 0.756154 0.750460 0.115785
C79   C     C_R   0.678013 0.223500 0.136112 0.022711
C80   C     C_R   0.624638 0.050010 0.343579 0.073511
C81   C     C_R   0.626999 0.073626 0.294542 0.049734
C82   C     C_R   0.632643 0.170446 0.281974 0.025073
C83   C     C_R   0.625637 0.000999 0.257811 -0.119113
C84   C     C_R   0.635321 0.020779 0.209205 -0.131900
C85   C     C_R   0.645111 0.114589 0.195952 0.043342
C86   C     C_R   0.640516 0.191579 0.232695 0.024989
C87   C     C_R   0.663619 0.130676 0.147066 0.090505
C88   C     C_1   0.704249 0.592563 0.898264 0.007795
C89   C     C_1   0.699691 0.609367 0.855363 -0.010350
C90   C     C_R   0.630864 0.121251 0.380146 0.015129
C91   C     C_R   0.049144 0.235999 0.949932 0.543811
C92   C     C_R   0.713155 0.559288 0.947705 0.541746
C93   C     C_R   0.721878 0.224926 0.951500 0.540467
C94   C     C_R   0.049426 0.243986 0.087418 0.547422
C95   C     C_R   0.706674 0.578159 0.085307 0.563976
C96   C     C_R   0.718424 0.235351 0.089064 0.533996
Cr1   Cr    Cr6+3 0.417550 0.169090 0.500530 1.046860
Cr2   Cr    Cr6+3 0.669180 0.913420 0.499920 1.040775
Cr3   Cr    Cr6+3 0.413260 0.917540 0.499520 1.040312
Cr4   Cr    Cr6+3 0.909170 0.177380 0.020380 1.029176
Cr5   Cr    Cr6+3 0.912710 0.429210 0.018220 1.046552
Cr6   Cr    Cr6+3 0.657170 0.432570 0.019030 1.044187
H1    H     H_    0.465008 0.749313 0.370278 0.138547
H2    H     H_    0.558526 0.444000 0.748695 0.232148
H3    H     H_    0.655802 0.378036 0.703794 0.232156
H4    H     H_    0.467939 0.092935 0.769099 0.237246
H5    H     H_    0.418700 0.187876 0.724000 0.241353
H6    H     H_    0.705147 0.992749 0.801253 0.103566
H7    H     H_    0.916078 0.983430 0.754403 0.222579
H8    H     H_    0.878529 0.033047 0.696870 0.239583
H9    H     H_    0.826453 0.263825 0.757088 0.250077
H10   H     H_    0.875185 0.168827 0.802314 0.236171
H11   H     H_    0.871956 0.717539 0.145183 0.235050
H12   H     H_    0.831080 0.676683 0.786485 0.122117
H13   H     H_    0.837526 0.680057 0.094098 0.226274
H14   H     H_    0.847521 0.526058 0.708904 0.143562
H15   H     H_    0.867027 0.708983 0.383366 0.257781
H16   H     H_    0.895368 0.572553 0.393966 0.264820
H17   H     H_    0.028981 0.481709 0.220990 0.241889
H18   H     H_    0.016661 0.612739 0.220605 0.220144
H19   H     H_    0.002755 0.628642 0.304167 0.226414
H20   H     H_    0.022808 0.494429 0.304334 0.235839
H21   H     H_    0.417923 0.807922 0.129508 0.226511
H22   H     H_    0.444655 0.671613 0.133448 0.236759
H23   H     H_    0.308286 0.194510 0.805376 0.121150
H24   H     H_    0.388686 0.762229 0.207832 0.112053
H25   H     H_    0.380750 0.764903 0.294918 0.101575
H26   H     H_    0.073081 0.068841 0.140246 0.140105
H27   H     H_    0.250751 0.902172 0.370994 0.220610
H28   H     H_    0.114644 0.010519 0.378736 0.229072
H29   H     H_    0.105816 0.961226 0.213242 0.110698
H30   H     H_    0.614297 0.906442 0.778528 0.208927
H31   H     H_    0.696503 0.868222 0.728190 0.258670
H32   H     H_    0.150755 0.938206 0.298740 0.105565
H33   H     H_    0.182849 0.313658 0.129054 0.182226
H34   H     H_    0.147041 0.417385 0.765620 0.245221
H35   H     H_    0.254441 0.435409 0.205370 0.228187
H36   H     H_    0.384091 0.324264 0.191570 0.240953
H37   H     H_    0.334704 0.316960 0.282117 0.113330
H38   H     H_    0.403975 0.247361 0.355018 0.233641
H39   H     H_    0.266624 0.354282 0.361810 0.225717
H40   H     H_    0.675184 0.375066 0.162877 0.128418
H41   H     H_    0.631631 0.276244 0.396038 0.111831
H42   H     H_    0.647841 0.438301 0.247477 0.123795
H43   H     H_    0.635084 0.400680 0.333235 0.118231
H44   H     H_    0.587528 0.062112 0.107335 0.222459
H45   H     H_    0.228512 0.353077 0.716382 0.219703
H46   H     H_    0.685696 0.071682 0.075443 0.241800
H47   H     H_    0.409486 0.813914 0.790735 0.222139
H48   H     H_    0.486059 0.853896 0.827011 0.221940
H49   H     H_    0.637787 0.960353 0.182320 0.144740
H50   H     H_    0.620164 0.926559 0.266377 0.163324
H51   H     H_    0.544583 0.980571 0.379143 0.242375
H52   H     H_    0.688542 0.896708 0.373158 0.269871
H53   H     H_    0.517005 0.628899 0.725890 0.117330
H54   H     H_    0.718961 0.456148 0.770079 0.135820
H55   H     H_    0.176149 0.989572 0.782513 0.106277
H56   H     H_    0.909382 0.371077 0.755491 0.238293
H57   H     H_    0.984809 0.094652 0.730658 0.217688
H58   H     H_    0.036948 0.103640 0.677749 0.235363
H59   H     H_    0.419488 0.957402 0.760380 0.250158
H60   H     H_    0.354981 0.927002 0.715425 0.231481
H61   H     H_    0.923387 0.332927 0.813920 0.245082
H62   H     H_    0.383206 0.376675 0.767236 0.232519
H63   H     H_    0.442907 0.403984 0.815073 0.241780
N1    N     N_3   0.152530 0.372326 0.733551 -0.609804
N2    N     N_3   0.978033 0.565871 0.210560 -0.591838
N3    N     N_3   0.966245 0.579711 0.313107 -0.670404
N4    N     N_3   0.478307 0.722417 0.123307 -0.604396
N5    N     N_3   0.199867 0.986618 0.382712 -0.611969
N6    N     N_3   0.624881 0.871527 0.743553 -0.589712
N7    N     N_3   0.297193 0.353962 0.189464 -0.645566
N8    N     N_3   0.324411 0.269278 0.369018 -0.585629
N9    N     N_3   0.668406 0.052281 0.109751 -0.637867
N10   N     N_3   0.482121 0.785079 0.811769 -0.634603
N11   N     N_3   0.614235 0.953978 0.355824 -0.642390
N12   N     N_3   0.959509 0.355458 0.785975 -0.609793
N13   N     N_3   0.000353 0.148641 0.710161 -0.664732
N14   N     N_3   0.370702 0.989432 0.729701 -0.583796
N15   N     N_3   0.434405 0.340022 0.797425 -0.638286
N16   N     N_3   0.584393 0.383594 0.720451 -0.638115
N17   N     N_3   0.489718 0.115318 0.736695 -0.567331
N18   N     N_3   0.855524 0.004253 0.727311 -0.636870
N19   N     N_3   0.803695 0.239791 0.788813 -0.661088
N20   N     N_3   0.862941 0.651949 0.129451 -0.543350
N21   N     N_3   0.833458 0.658512 0.394046 -0.607042
O1    O     O_R   0.301710 0.195650 0.554160 -0.503016
O2    O     O_R   0.635520 0.542770 0.964420 -0.499075
O3    O     O_R   0.665950 0.325030 0.970100 -0.493185
O4    O     O_R   0.522390 0.158990 0.550460 -0.493637
O5    O     O_R   0.816620 0.158530 0.074540 -0.507009
O6    O     O_R   0.004460 0.188870 0.069750 -0.507171
O7    O     O_R   0.025800 0.341780 0.072300 -0.497235
O8    O     O_R   0.807650 0.528950 0.067500 -0.489422
O9    O     O_R   0.633420 0.550490 0.071810 -0.482096
O10   O     O_R   0.664000 0.332180 0.069640 -0.505597
O11   O     O_3   0.826350 0.346390 0.019210 -0.262665
O12   O     O_R   0.658900 0.818120 0.449760 -0.481388
O13   O     O_R   0.694390 0.003530 0.554040 -0.500404
O14   O     O_R   0.657700 0.819660 0.549320 -0.487828
O15   O     O_R   0.501930 0.803280 0.552920 -0.505939
O16   O     O_R   0.318170 0.023580 0.549580 -0.491974
O17   O     O_R   0.303010 0.193990 0.446760 -0.479601
O18   O     O_R   0.523600 0.157450 0.450900 -0.493453
O19   O     O_R   0.695690 0.001860 0.446640 -0.517537
O20   O     O_R   0.503220 0.801620 0.445520 -0.530276
O21   O     O_R   0.319370 0.022040 0.450020 -0.473781
O22   O     O_3   0.499990 0.000010 0.499990 -0.275716
O23   O     O_R   0.818720 0.150820 0.967160 -0.510040
O24   O     O_R   0.006410 0.181720 0.970200 -0.496345
O25   O     O_R   0.027890 0.334070 0.964920 -0.503321
O26   O     O_R   0.809600 0.521790 0.967960 -0.502486

loop_
_geom_bond_atom_site_label_1
_geom_bond_atom_site_label_2
_ccdc_geom_bond_type
C66   C68   A    
C20   C93   S    
C63   C65   A    
C44   H25   S    
C1    C21   S    
C23   C45   S    
C27   C29   S    
C52   O21   A    
C41   C42   A    
C35   C36   A    
C18   C26   S    
C24   C27   S    
C2    C12   T    
Cr6   O9    S    
C79   C87   A    
C81   C82   A    
H16   N21   S    
C47   C49   A    
C20   C30   T    
C85   C86   A    
C75   H43   S    
C58   H26   S    
C21   C31   T    
H51   N11   S    
C40   O12   A    
Cr2   O13   S    
C83   C84   A    
C64   H14   S    
C96   O5    A    
C36   C37   A    
C3    N13   S    
C76   C78   S    
H15   N21   S    
C91   O24   A    
C38   C39   A    
H13   N20   S    
C11   C14   S    
Cr5   O11   S    
C66   C69   A    
C54   C68   A    
C6    C91   S    
C94   O7    A    
Cr4   O23   S    
Cr6   O3    S    
C56   C78   S    
C18   C19   S    
C73   C74   A    
C96   O10   A    
C61   C63   A    
C9    C13   S    
C77   H40   S    
H4    N17   S    
H35   N7    S    
C22   N19   S    
C6    C15   T    
C54   C55   A    
C8    N12   S    
C11   C17   S    
H22   N4    S    
C88   C92   S    
C45   C56   S    
C67   N10   S    
C8    C9    S    
C7    C17   T    
C22   C25   S    
C45   C67   S    
C76   H12   S    
C56   C64   S    
Cr2   O19   S    
C45   H53   S    
H30   N6    S    
H59   N14   S    
C43   C48   A    
C14   N14   S    
H62   N15   S    
C32   C50   A    
C13   H23   S    
Cr4   O11   S    
H7    N18   S    
C85   C87   A    
H48   N10   S    
C26   C31   S    
C69   H33   S    
C23   H54   S    
Cr3   O15   S    
H39   N8    S    
C60   N8    S    
Cr2   O22   S    
C1    O13   A    
C67   C78   S    
C42   C44   A    
Cr1   O17   S    
C72   C75   A    
C16   O16   A    
C35   C48   A    
C81   C83   A    
Cr5   O7    S    
C37   N3    S    
C94   O6    A    
C77   C79   A    
Cr5   O26   S    
H47   N10   S    
C40   O20   A    
C19   N15   S    
H20   N3    S    
C74   C75   A    
Cr2   O12   S    
Cr3   O20   S    
H36   N7    S    
C33   C43   A    
C59   C94   S    
H27   N5    S    
Cr4   O6    S    
C35   C38   A    
C3    C11   S    
C84   C85   A    
C80   N11   S    
H10   N19   S    
C3    C8    S    
C29   N17   S    
Cr6   O11   S    
C53   C57   A    
H38   N8    S    
H5    N17   S    
C18   N16   S    
C25   C26   S    
C82   C86   A    
C16   O1    A    
C36   N2    S    
Cr5   O25   S    
C65   N7    S    
C41   H1    S    
Cr3   O21   S    
C60   C61   A    
C51   C53   A    
C28   O18   A    
H60   N14   S    
C5    C9    S    
H61   N12   S    
H45   N1    S    
H9    N19   S    
H56   N12   S    
C53   C62   A    
C47   C48   A    
C60   C70   A    
C10   N1    S    
C23   C34   S    
H11   N20   S    
C64   C76   S    
Cr2   O14   S    
H58   N13   S    
C5    C14   S    
H21   N4    S    
C59   C69   A    
C91   O25   A    
Cr1   O4    S    
C51   C70   A    
H8    N18   S    
C95   O8    A    
C5    H55   S    
C55   C57   A    
Cr3   O16   S    
C93   O23   A    
C22   C24   S    
C57   H32   S    
C92   O26   A    
Cr4   O5    S    
C4    C12   S    
C42   C43   A    
H57   N13   S    
C28   O19   A    
C19   C29   S    
H46   N9    S    
H17   N2    S    
C41   C50   A    
C87   N9    S    
Cr5   O8    S    
C71   H41   S    
C83   H50   S    
C54   C58   A    
Cr1   O1    S    
H19   N3    S    
C74   H42   S    
C46   C47   A    
C23   C64   S    
C95   O9    A    
C93   O3    A    
C39   C49   A    
C18   C22   S    
C58   C59   A    
C63   H37   S    
C46   H24   S    
C51   N5    S    
C7    C16   S    
C80   C81   A    
C3    C5    S    
C10   C13   S    
Cr6   O10   S    
C34   C67   S    
C92   O2    A    
H52   N11   S    
C25   C27   S    
C38   N20   S    
C55   H29   S    
C32   N21   S    
Cr3   O22   S    
C52   O17   A    
H3    N16   S    
C32   C33   A    
C19   C24   S    
C39   C95   S    
C34   C89   S    
C79   C96   S    
C2    C56   S    
C1    O4    A    
C49   N4    S    
C4    O15   A    
C71   C90   A    
H34   N1    S    
C27   H6    S    
H28   N5    S    
C40   C50   S    
H44   N9    S    
Cr4   O24   S    
C78   N6    S    
C33   C37   A    
H2    N16   S    
C62   C68   A    
Cr1   O22   S    
C9    C15   S    
C61   C62   A    
C24   C30   S    
C73   C86   A    
C52   C70   S    
C10   C11   S    
H31   N6    S    
C84   H49   S    
C4    O14   A    
C71   C72   A    
C88   C89   T    
C26   C29   S    
C8    C10   S    
C65   C66   A    
H63   N15   S    
C73   C77   A    
C28   C90   S    
Cr1   O18   S    
Cr6   O2    S    
C13   C14   S    
C80   C90   A    
C44   C46   A    
C72   C82   A    
C25   N18   S    
H18   N2    S    
C34   C76   S    
