data_mof_unit_35915.cif
_audit_creation_date              2013-03-05T15:53:44-0500
_audit_creation_method            fapswitch 2.2
_symmetry_space_group_name_H-M    P1
_symmetry_Int_Tables_number       1
_space_group_crystal_system       triclinic
_cell_length_a                    7.033427
_cell_length_b                    12.180707
_cell_length_c                    35.312718
_cell_angle_alpha                 89.920306
_cell_angle_beta                  90.417379
_cell_angle_gamma                 89.45916
_cell_volume                      3025.09691301

loop_
_atom_site_label
_atom_site_type_symbol
_atom_site_description
_atom_site_fract_x
_atom_site_fract_y
_atom_site_fract_z
_atom_type_partial_charge
O1    O     O_R   0.379730 0.148600 0.662710 -0.594459
O2    O     O_R   0.620270 0.851400 0.337290 -0.592083
O3    O     O_R   0.120270 0.648600 0.337290 -0.589040
O4    O     O_R   0.879730 0.351400 0.662710 -0.593796
O5    O     O_R   0.722480 0.134490 0.741330 -0.588463
O6    O     O_R   0.277520 0.865510 0.258670 -0.597020
O7    O     O_R   0.777520 0.634490 0.258670 -0.594794
O8    O     O_R   0.222480 0.365510 0.741330 -0.589276
O9    O     O_R   0.892880 0.345890 0.741600 -0.585730
O10   O     O_R   0.107120 0.654110 0.258400 -0.600012
O11   O     O_R   0.607120 0.845890 0.258400 -0.595663
O12   O     O_R   0.392880 0.154110 0.741600 -0.587383
C1    C     C_R   0.552786 0.111372 0.754220 0.938214
C2    C     C_R   0.445898 0.883158 0.244454 0.924828
C3    C     C_R   0.947023 0.618953 0.243900 0.929924
C4    C     C_R   0.051957 0.388514 0.754158 0.934199
O13   O     O_R   0.709490 0.135560 0.662990 -0.580374
O14   O     O_R   0.290510 0.864440 0.337010 -0.577920
O15   O     O_R   0.790510 0.635560 0.337010 -0.579043
O16   O     O_R   0.209490 0.364440 0.662990 -0.580411
C5    C     C_R   0.540457 0.106449 0.651730 0.953676
C6    C     C_R   0.459535 0.893457 0.348306 0.966481
C7    C     C_R   0.960605 0.606393 0.348232 0.969588
C8    C     C_R   0.039381 0.393708 0.651807 0.953333
O17   O     O_3   0.552800 0.316610 0.702160 -0.270124
O18   O     O_3   0.447200 0.683390 0.297840 -0.270056
O19   O     O_3   0.947200 0.816610 0.297840 -0.272804
O20   O     O_3   0.052800 0.183390 0.702160 -0.270780
V1    V     V_3+5 0.827630 0.234380 0.702160 1.219497
V2    V     V_3+5 0.172370 0.765620 0.297840 1.206787
V3    V     V_3+5 0.672370 0.734380 0.297840 1.207658
V4    V     V_3+5 0.327630 0.265620 0.702160 1.216745
C9    C     C_R   0.991370 0.686633 0.911060 0.447489
C10   C     C_R   0.030851 0.392240 0.070856 0.477614
C11   C     C_R   0.465186 0.120308 0.073772 0.472933
C12   C     C_R   0.484626 0.820598 0.913189 0.454007
O21   O     O_2   0.972451 0.580334 0.920933 -0.583998
O22   O     O_2   0.050943 0.499733 0.063395 -0.551630
O23   O     O_2   0.438933 0.013682 0.065842 -0.536497
O24   O     O_2   0.458082 0.926989 0.922404 -0.578497
N1    N     N_R   0.001939 0.715772 0.873369 -0.172254
N2    N     N_R   0.011022 0.356860 0.107733 -0.172344
N3    N     N_R   0.464661 0.155201 0.110789 -0.175614
N4    N     N_R   0.501839 0.790392 0.875720 -0.173420
C13   C     C_R   0.013759 0.825413 0.864144 0.446882
C14   C     C_R   0.006221 0.246355 0.114877 0.477617
C15   C     C_R   0.463480 0.265353 0.118388 0.469829
C16   C     C_R   0.519418 0.680491 0.867132 0.440861
C17   C     C_R   0.908474 0.643860 0.809023 0.018391
C18   C     C_R   0.848012 0.409500 0.167327 -0.082416
C19   C     C_R   0.600806 0.093353 0.172337 -0.083465
C20   C     C_R   0.411223 0.859118 0.810541 0.013023
C21   C     C_R   0.918912 0.563964 0.780486 -0.169900
C22   C     C_R   0.832874 0.470387 0.200638 -0.132964
C23   C     C_R   0.595694 0.029286 0.205160 -0.132723
C24   C     C_R   0.423423 0.936930 0.781296 -0.167262
C25   C     C_R   0.141013 0.459020 0.818560 -0.064220
C26   C     C_R   0.097004 0.580618 0.180569 -0.141167
C27   C     C_R   0.324727 0.932860 0.179784 -0.144380
C28   C     C_R   0.637452 0.044078 0.819486 -0.056589
C29   C     C_R   0.123266 0.536285 0.847816 0.002653
C30   C     C_R   0.107557 0.521166 0.146460 0.035372
C31   C     C_R   0.334797 0.994607 0.146308 0.056759
C32   C     C_R   0.616385 0.969526 0.849511 0.014776
C33   C     C_R   0.009213 0.631555 0.843590 0.110848
C34   C     C_R   0.986735 0.431762 0.139794 0.192521
C35   C     C_R   0.468726 0.078757 0.142607 0.192069
C36   C     C_R   0.507359 0.873539 0.845476 0.101319
C37   C     C_R   0.012397 0.879111 0.930626 -0.019759
C38   C     C_R   0.009735 0.203499 0.047631 -0.045339
C39   C     C_R   0.505586 0.308544 0.051651 -0.052909
C40   C     C_R   0.518694 0.629260 0.933851 -0.018552
C41   C     C_R   0.996664 0.767163 0.940001 -0.070523
C42   C     C_R   0.033215 0.315792 0.040336 -0.051087
C43   C     C_R   0.488361 0.196189 0.043655 -0.054228
C44   C     C_R   0.489750 0.740888 0.942537 -0.082518
C45   C     C_R   0.998004 0.737314 0.978180 -0.092387
C46   C     C_R   0.058081 0.348794 0.002854 -0.128018
C47   C     C_R   0.485761 0.163148 0.005800 -0.119953
C48   C     C_R   0.460149 0.770267 0.980256 -0.066898
C49   C     C_R   0.027350 0.906913 0.892444 -0.115362
C50   C     C_R   0.988824 0.170468 0.085307 -0.130850
C51   C     C_R   0.494264 0.342430 0.089506 -0.133707
C52   C     C_R   0.536053 0.600028 0.895875 -0.092585
C53   C     C_R   0.037251 0.471492 0.784771 -0.152830
C54   C     C_R   0.960515 0.554800 0.208221 -0.134358
C55   C     C_R   0.454118 0.950567 0.209663 -0.126639
C56   C     C_R   0.539331 0.029271 0.785234 -0.160192
H1    H     H_    0.233502 0.388295 0.822604 0.163943
H2    H     H_    0.194430 0.647720 0.185165 0.129636
H3    H     H_    0.217512 0.869984 0.182125 0.128023
H4    H     H_    0.728213 0.114477 0.823218 0.170235
H5    H     H_    0.201589 0.521773 0.873640 0.151480
H6    H     H_    0.212266 0.544163 0.125932 0.150330
H7    H     H_    0.236287 0.977265 0.123763 0.141724
H8    H     H_    0.688678 0.986525 0.875773 0.163030
H9    H     H_    0.999303 0.651762 0.986623 0.188584
H10   H     H_    0.075401 0.434817 0.995959 0.176616
H11   H     H_    0.464223 0.077836 0.998415 0.184280
H12   H     H_    0.427856 0.854486 0.987872 0.187585
C57   C     C_R   0.978289 0.011676 0.026643 -0.080742
C58   C     C_R   0.049291 0.075163 0.949623 -0.108732
C59   C     C_R   0.550103 0.433582 0.953516 -0.131246
C60   C     C_R   0.527684 0.500870 0.031004 -0.074974
C61   C     C_R   0.045591 0.156968 0.979611 0.078512
C62   C     C_R   0.996748 0.930587 0.997747 0.051629
C63   C     C_R   0.509827 0.580083 0.001348 0.037002
C64   C     C_R   0.528736 0.353263 0.983402 0.068936
C65   C     C_R   0.011256 0.123750 0.017723 0.076958
C66   C     C_R   0.017022 0.962499 0.959365 0.082839
C67   C     C_R   0.527454 0.547188 0.962982 0.088179
C68   C     C_R   0.523399 0.387705 0.021869 0.070411
C69   C     C_R   0.923017 0.985906 0.064473 0.335971
C70   C     C_R   0.085195 0.097205 0.910194 0.447898
C71   C     C_R   0.588883 0.408190 0.914416 0.382966
C72   C     C_R   0.544984 0.530108 0.069892 0.342224
C73   C     C_R   0.941169 0.063105 0.093129 -0.265368
C74   C     C_R   0.063773 0.015336 0.882868 -0.158874
C75   C     C_R   0.574006 0.490936 0.886807 -0.180240
C76   C     C_R   0.519229 0.452344 0.098174 -0.259210
O25   O     O_2   0.024226 0.208985 0.150739 -0.560999
O26   O     O_2   0.013306 0.857356 0.827616 -0.610421
O27   O     O_2   0.520585 0.647168 0.830808 -0.612997
O28   O     O_2   0.425525 0.300781 0.153777 -0.553721
C77   C     C_R   0.007016 0.817120 0.006272 -0.106979
C78   C     C_R   0.067151 0.271801 0.973513 -0.110445
C79   C     C_R   0.497237 0.240371 0.976607 -0.112141
C80   C     C_R   0.462412 0.690960 0.008736 -0.088264
H13   H     H_    0.724774 0.449063 0.220993 0.152410
H14   H     H_    0.837457 0.575689 0.754617 0.140311
H15   H     H_    0.345086 0.923735 0.755196 0.140872
H16   H     H_    0.698973 0.043478 0.227486 0.141561
H17   H     H_    0.753847 0.341852 0.163454 0.159632
H18   H     H_    0.818025 0.714560 0.803954 0.188617
H19   H     H_    0.323154 0.788331 0.805686 0.188612
H20   H     H_    0.706010 0.156448 0.170468 0.160386
H21   H     H_    0.904193 0.040341 0.121775 0.193740
H22   H     H_    0.088472 0.036901 0.853512 0.193717
H23   H     H_    0.599887 0.470331 0.857478 0.211592
H24   H     H_    0.529606 0.478016 0.127448 0.189319
H25   H     H_    0.028978 0.787956 0.034806 0.191217
H26   H     H_    0.090567 0.307231 0.946327 0.199129
H27   H     H_    0.467371 0.210131 0.948760 0.204929
H28   H     H_    0.418218 0.717726 0.036423 0.186843
C81   C     C_R   0.972842 0.527877 0.379031 -0.155027
C82   C     C_R   0.027163 0.472341 0.621050 -0.146843
C83   C     C_R   0.530156 0.027721 0.621054 -0.145368
C84   C     C_R   0.469857 0.972084 0.379018 -0.151741
C85   C     C_R   0.028443 0.342731 0.401973 0.419897
C86   C     C_R   0.971797 0.657572 0.598168 0.422960
C87   C     C_R   0.472265 0.843275 0.598427 0.423114
C88   C     C_R   0.527989 0.156450 0.401696 0.420800
C89   C     C_R   0.004438 0.416978 0.371958 -0.146655
C90   C     C_R   0.995503 0.583213 0.628164 -0.152367
C91   C     C_R   0.496629 0.917406 0.628312 -0.152524
C92   C     C_R   0.503380 0.082416 0.371793 -0.148349
C93   C     C_R   0.959472 0.566719 0.415760 -0.212192
C94   C     C_R   0.040818 0.433630 0.584315 -0.210585
C95   C     C_R   0.544302 0.066046 0.584241 -0.209678
C96   C     C_R   0.455919 0.933648 0.415826 -0.210993
C97   C     C_R   0.984073 0.496015 0.446912 0.099729
C98   C     C_R   0.016530 0.504432 0.553186 0.098332
C99   C     C_R   0.518243 0.995541 0.553197 0.097717
C100  C     C_R   0.482259 0.004064 0.446889 0.098871
C101  C     C_R   0.029372 0.383590 0.439735 -0.004594
C102  C     C_R   0.971204 0.616837 0.560385 -0.005268
C103  C     C_R   0.471966 0.883812 0.560585 -0.007450
C104  C     C_R   0.528538 0.115807 0.439520 -0.006991
C105  C     C_R   0.974284 0.535619 0.484846 0.094364
C106  C     C_R   0.026559 0.464901 0.515250 0.094713
C107  C     C_R   0.527170 0.034840 0.515176 0.094170
C108  C     C_R   0.473529 0.964701 0.484909 0.093906
C109  C     C_R   0.089980 0.357298 0.506752 -0.235505
C110  C     C_R   0.911071 0.643263 0.493348 -0.235103
C111  C     C_R   0.410313 0.857841 0.493629 -0.235379
C112  C     C_R   0.590570 0.141661 0.506460 -0.235670
C113  C     C_R   0.087637 0.317198 0.470062 -0.118073
C114  C     C_R   0.913269 0.683312 0.530052 -0.118570
C115  C     C_R   0.413191 0.817929 0.530390 -0.115017
C116  C     C_R   0.587588 0.181615 0.469711 -0.114587
H29   H     H_    0.142197 0.234979 0.465735 0.182770
H30   H     H_    0.858813 0.765552 0.534381 0.182747
H31   H     H_    0.358538 0.736363 0.534884 0.183260
H32   H     H_    0.642344 0.263160 0.465218 0.183255
H33   H     H_    0.059968 0.346226 0.581150 0.109350
H34   H     H_    0.940252 0.654125 0.418898 0.109141
H35   H     H_    0.435598 0.846562 0.419081 0.108877
H36   H     H_    0.564525 0.153135 0.580963 0.109026
H37   H     H_    0.990645 0.611588 0.657215 0.152145
H38   H     H_    0.009057 0.388490 0.342920 0.158098
H39   H     H_    0.509051 0.110672 0.342716 0.156510
H40   H     H_    0.490798 0.889244 0.657401 0.151607
H41   H     H_    0.147403 0.301909 0.527805 0.141160
H42   H     H_    0.853921 0.698728 0.472292 0.141149
H43   H     H_    0.352610 0.802930 0.472712 0.141315
H44   H     H_    0.648511 0.196503 0.527374 0.141321
N5    N     N_R   0.049997 0.227516 0.393395 0.225868
O29   O     O_R   0.113341 0.197303 0.360442 -0.399199
O30   O     O_R   0.972960 0.153651 0.414886 -0.450113
N6    N     N_R   0.950235 0.772759 0.606790 0.225852
O31   O     O_R   0.886820 0.802862 0.639749 -0.404516
O32   O     O_R   0.027390 0.846690 0.585343 -0.449991
N7    N     N_R   0.449135 0.728487 0.607211 0.225954
O33   O     O_R   0.383310 0.699531 0.640056 -0.403618
O34   O     O_R   0.526840 0.653337 0.586069 -0.450481
N8    N     N_R   0.551142 0.271258 0.392947 0.226270
O35   O     O_R   0.616933 0.300299 0.360109 -0.399820
O36   O     O_R   0.473534 0.346359 0.414123 -0.450207
N9    N     N_R   0.819363 0.889388 0.073687 0.255758
O37   O     O_R   0.682808 0.858503 0.051289 -0.346678
O38   O     O_R   0.830888 0.848235 0.107691 -0.347295
N10   N     N_R   0.172028 0.194594 0.896412 0.187951
O39   O     O_R   0.066010 0.267941 0.879532 -0.386489
O40   O     O_R   0.345716 0.184243 0.884840 -0.407774
N11   N     N_R   0.662920 0.304148 0.901593 0.266337
O41   O     O_R   0.765601 0.243226 0.923853 -0.430499
O42   O     O_R   0.664476 0.281151 0.865590 -0.376632
N12   N     N_R   0.624350 0.631987 0.081311 0.247569
O43   O     O_R   0.791299 0.657064 0.068699 -0.317796
O44   O     O_R   0.556861 0.683388 0.110663 -0.371375

loop_
_geom_bond_atom_site_label_1
_geom_bond_atom_site_label_2
_geom_bond_distance
_ccdc_geom_bond_type
C26   C30   1.408332 A    
C103  C115  1.397893 A    
C107  C108  1.420337 A    
C94   H33   1.077931 S    
O1    C5    1.299183 A    
C50   C73   1.381115 A    
C96   C100  1.405673 A    
O13   V1    2.014783 S    
C105  C106  1.419695 A    
C69   C73   1.388363 A    
O3    C7    1.300536 A    
C10   N2    1.379591 A    
C17   H18   1.079796 S    
C83   C95   1.385198 A    
C11   N3    1.375128 A    
C16   O27   1.345980 S    
C28   C56   1.400901 A    
N12   O43   1.297857 A    
N7    O34   1.300932 A    
C62   C77   1.415166 A    
C11   C43   1.419340 A    
C18   C22   1.395637 A    
C64   C68   1.422869 A    
C17   C33   1.413997 A    
C61   C78   1.424604 A    
C32   C36   1.411071 A    
C47   H11   1.083495 S    
O20   V1    1.695685 S    
O9    C4    1.312415 A    
C63   C80   1.413165 A    
O10   C3    1.309509 A    
N11   O42   1.302315 A    
N4    C36   1.471798 S    
N2    C14   1.369894 A    
O4    C8    1.300527 A    
O11   C2    1.309940 A    
C87   C103  1.423921 A    
C24   C56   1.401841 A    
C57   C65   1.422113 A    
C113  H29   1.080562 S    
C86   C102  1.424151 A    
C31   H7    1.074103 S    
C101  C113  1.397756 A    
N10   O39   1.299628 A    
C106  C109  1.413823 A    
C58   C61   1.455269 A    
C59   C67   1.431744 A    
C84   C96   1.385374 A    
C70   N10   1.426005 S    
N5    O30   1.300897 A    
C85   C89   1.400605 A    
C61   C65   1.427743 A    
C12   C44   1.419154 A    
C98   C102  1.426455 A    
C88   C92   1.400388 A    
C77   H25   1.077508 S    
N6    O31   1.301422 A    
C98   C106  1.426186 A    
C46   H10   1.083591 S    
C105  C110  1.413878 A    
C14   O25   1.349817 S    
C45   H9    1.083433 S    
C59   C64   1.447658 A    
C102  C114  1.397852 A    
C15   C51   1.404600 A    
C83   C91   1.390243 A    
C72   C76   1.389519 A    
C110  C114  1.385537 A    
C86   C90   1.400731 A    
C115  H31   1.080612 S    
O4    V1    2.029401 S    
C20   C36   1.414453 A    
C108  C111  1.413707 A    
O9    V1    2.000734 S    
C97   C105  1.426326 A    
O17   V4    1.706601 S    
O7    C3    1.316899 A    
C40   C67   1.434022 A    
O15   V3    2.003073 S    
O18   V3    1.706601 S    
O8    C4    1.313050 A    
C60   C72   1.423768 A    
O12   V4    1.992203 S    
O19   V2    1.695685 S    
C21   C53   1.401568 A    
N5    O29   1.301403 A    
C26   C54   1.411548 A    
C111  H43   1.076941 S    
C88   C104  1.423775 A    
C95   H36   1.077808 S    
O16   V4    2.003078 S    
C39   C51   1.402178 A    
C89   H38   1.083582 S    
C28   H4    1.081489 S    
O17   V1    2.168678 S    
C48   H12   1.083299 S    
C31   C35   1.405233 A    
C27   C31   1.402835 A    
O7    V3    1.985756 S    
C30   C34   1.406685 A    
C107  C112  1.413654 A    
O19   V3    2.185467 S    
O8    V4    1.985756 S    
C14   C50   1.400958 A    
C12   O24   1.348197 S    
C85   C101  1.423983 A    
C93   H34   1.077914 S    
C32   H8    1.075687 S    
C87   N7    1.442729 S    
C60   C68   1.416661 A    
N8    O35   1.301412 A    
C79   H27   1.070605 S    
C99   C107  1.426796 A    
C48   C80   1.393458 A    
C19   C23   1.397265 A    
C104  C116  1.397812 A    
C73   H21   1.082685 S    
C49   C74   1.389437 A    
C78   H26   1.066527 S    
O1    V4    2.027263 S    
O13   C5    1.303361 A    
C16   C52   1.413454 A    
O2    V3    2.027263 S    
C51   C76   1.386284 A    
O3    V2    2.029401 S    
C11   O23   1.343185 S    
N11   O41   1.292332 A    
N3    C35   1.458202 S    
C38   C42   1.403011 A    
C59   C71   1.442787 A    
C58   C70   1.442145 A    
C38   C65   1.435948 A    
C29   C33   1.411594 A    
O6    C2    1.309162 A    
C7    C81   1.448844 S    
C19   H20   1.074179 S    
O10   V2    2.000739 S    
N12   O44   1.301954 A    
C82   C90   1.390184 A    
O20   V4    2.185467 S    
C99   C103  1.426450 A    
C39   C68   1.432801 A    
N9    O37   1.298505 A    
C71   N11   1.440438 S    
C40   C44   1.407539 A    
C40   C52   1.393905 A    
C112  H44   1.076960 S    
C37   C41   1.408345 A    
C80   H28   1.078039 S    
C70   C74   1.397044 A    
C25   H1    1.083256 S    
C26   H2    1.083179 S    
C3    C54   1.486651 S    
C76   H24   1.082571 S    
C100  C104  1.426509 A    
C9    C41   1.418074 A    
O6    V2    1.991943 S    
C37   C66   1.437261 A    
C6    C84   1.449742 S    
C110  H42   1.077038 S    
C71   C75   1.403945 A    
C30   H6    1.075859 S    
C109  H41   1.077058 S    
C4    C53   1.484464 S    
C95   C99   1.405561 A    
C27   H3    1.083370 S    
C12   N4    1.379711 A    
C72   N12   1.423150 S    
C46   C78   1.399868 A    
O5    V1    1.991944 S    
C93   C97   1.404819 A    
C45   C77   1.391413 A    
O15   C7    1.303532 A    
C22   C54   1.396275 A    
C62   C66   1.418047 A    
C88   N8    1.442719 S    
C57   C62   1.426878 A    
C100  C108  1.426924 A    
C47   C79   1.397858 A    
N1    C13   1.377649 A    
C10   O22   1.344180 S    
C63   C67   1.419308 A    
C22   H13   1.083228 S    
C13   C49   1.412983 A    
C44   C48   1.396221 A    
N10   O40   1.296053 A    
C18   H17   1.070341 S    
C2    C55   1.478518 S    
N1    C33   1.470891 S    
C18   C34   1.410279 A    
C25   C29   1.403937 A    
C82   C94   1.384557 A    
C13   O26   1.346742 S    
C114  H30   1.080544 S    
C81   C93   1.384754 A    
C111  C115  1.385475 A    
C86   N6    1.442953 S    
C87   C91   1.400500 A    
C96   H35   1.077791 S    
C28   C32   1.404589 A    
C9    N1    1.379721 A    
O14   C6    1.303369 A    
C75   H23   1.082311 S    
N4    C16   1.377624 A    
C8    C82   1.448664 S    
O2    C6    1.299184 A    
C58   C66   1.434865 A    
C39   C43   1.403947 A    
C15   O28   1.350345 S    
C19   C35   1.409343 A    
N3    C15   1.368627 A    
C52   C75   1.391147 A    
C17   C21   1.403740 A    
O5    C1    1.313355 A    
C1    C56   1.486191 S    
N9    O38   1.302245 A    
C81   C89   1.390172 A    
C25   C53   1.401435 A    
C9    O21   1.348493 S    
C29   H5    1.075509 S    
C64   C79   1.415443 A    
C23   C55   1.398615 A    
C57   C69   1.429302 A    
C38   C50   1.398592 A    
C27   C55   1.406523 A    
C24   H15   1.083295 S    
C37   C49   1.394669 A    
C91   H40   1.083681 S    
C94   C98   1.404690 A    
O14   V2    2.014778 S    
O11   V3    1.992209 S    
C92   H39   1.083618 S    
C20   C24   1.404403 A    
C112  C116  1.385294 A    
C90   H37   1.083662 S    
O12   C1    1.309786 A    
N6    O32   1.300892 A    
C23   H16   1.083291 S    
C42   C46   1.395461 A    
N2    C34   1.464951 S    
C20   H19   1.079570 S    
C41   C45   1.395808 A    
C5    C83   1.449599 S    
C10   C42   1.425364 A    
C21   H14   1.083320 S    
C84   C92   1.390223 A    
N7    O33   1.301427 A    
C109  C113  1.385336 A    
C74   H22   1.084691 S    
N8    O36   1.300933 A    
C43   C47   1.396617 A    
O16   C8    1.303532 A    
C60   C63   1.427052 A    
C97   C101  1.426518 A    
C116  H32   1.080627 S    
C85   N5    1.442942 S    
C69   N9    1.427631 S    
O18   V2    2.168678 S    
