data_mof_unit_28322.cif
_audit_creation_date              2012-12-10T17:33:05-0500
_audit_creation_method            fapswitch 2.2
_symmetry_space_group_name_H-M    P1
_symmetry_Int_Tables_number       1
_space_group_crystal_system       triclinic
_cell_length_a                    12.365011
_cell_length_b                    13.368219
_cell_length_c                    14.37256
_cell_angle_alpha                 93.852798
_cell_angle_beta                  107.947938
_cell_angle_gamma                 117.419785
_cell_volume                      1943.75707766

loop_
_atom_site_label
_atom_site_type_symbol
_atom_type_description
_atom_site_fract_x
_atom_site_fract_y
_atom_site_fract_z
_atom_type_partial_charge
C1    C     C_R   0.654885 0.715558 0.514356 0.786680
C2    C     C_R   0.834308 0.478941 0.914231 0.090964
C3    C     C_R   0.776763 0.484661 0.984380 0.162222
C4    C     C_R   0.941894 0.458548 0.942091 0.070032
C5    C     C_R   0.000518 0.458121 0.043989 0.064630
C6    C     C_R   0.938194 0.461130 0.111092 -0.217752
C7    C     C_R   0.827644 0.473038 0.081212 -0.226320
C8    C     C_R   0.991611 0.436992 0.871266 -0.235703
C9    C     C_R   0.101880 0.424886 0.901055 -0.257386
C10   C     C_R   0.167846 0.435557 0.002127 0.176817
C11   C     C_R   0.118790 0.453456 0.074920 0.091287
C12   C     C_R   0.617174 0.514941 0.686215 0.784011
C13   C     C_R   0.283424 0.429460 0.031294 -0.205443
C14   C     C_R   0.353010 0.443621 0.132587 -0.194597
C15   C     C_R   0.192879 0.470774 0.176823 -0.256921
C16   C     C_R   0.251458 0.995213 0.540284 0.461879
C17   C     C_R   0.263165 0.166001 0.487478 -0.128662
C18   C     C_R   0.678411 0.906760 0.496059 -0.214216
C19   C     C_R   0.752398 0.023744 0.499850 -0.197337
C20   C     C_R   0.887919 0.077057 0.519779 0.156140
C21   C     C_R   0.946721 0.005084 0.527075 0.091530
C22   C     C_R   0.875873 0.893379 0.543181 0.055228
C23   C     C_R   0.344856 0.285473 0.484919 0.822609
C24   C     C_R   0.071801 0.036803 0.521601 0.019349
C25   C     C_R   0.131157 0.968027 0.550026 0.048120
C26   C     C_R   0.069879 0.873986 0.588434 -0.200908
C27   C     C_R   0.945104 0.839233 0.586784 -0.193075
C28   C     C_R   0.135943 0.129590 0.482465 -0.242880
C29   C     C_R   0.316716 0.094793 0.509038 -0.266656
C30   C     C_R   0.738983 0.840594 0.520132 -0.106954
C31   C     C_R   0.247425 0.635114 0.692369 0.042304
C32   C     C_R   0.654644 0.353130 0.354570 0.067705
C33   C     C_R   0.732408 0.325072 0.318593 -0.269578
C34   C     C_R   0.380298 0.481626 0.313390 0.797597
C35   C     C_R   0.867985 0.379488 0.373283 -0.219284
C36   C     C_R   0.927462 0.461833 0.466048 0.012576
C37   C     C_R   0.843301 0.487071 0.499745 0.306977
C38   C     C_R   0.066611 0.519513 0.527259 -0.051382
C39   C     C_R   0.114615 0.588248 0.626253 0.143619
C40   C     C_R   0.030017 0.611719 0.656206 -0.326390
C41   C     C_R   0.900829 0.567792 0.591727 -0.216327
C42   C     C_R   0.160347 0.510736 0.495501 0.018210
C43   C     C_R   0.334439 0.627261 0.653684 0.022004
C44   C     C_R   0.674843 0.511581 0.790931 -0.047449
C45   C     C_R   0.308628 0.465545 0.205945 -0.049803
C46   C     C_R   0.668645 0.502067 0.956837 -0.199812
C47   C     C_R   0.617231 0.514531 0.860323 -0.194652
C48   C     C_R   0.784226 0.496827 0.819154 -0.261145
Cu1   Cu    Cu3+1 0.416420 0.526630 0.522910 0.931883
Cu2   Cu    Cu3+1 0.583580 0.473370 0.477090 0.926368
H1    H     H_    0.782904 0.474914 0.134929 0.152196
H2    H     H_    0.320583 0.414709 0.975755 0.129542
H3    H     H_    0.410058 0.117674 0.503251 0.162065
H4    H     H_    0.117941 0.826753 0.619112 0.180902
H5    H     H_    0.089503 0.175060 0.447028 0.159829
H6    H     H_    0.573479 0.868851 0.477309 0.175671
H7    H     H_    0.703048 0.073724 0.488852 0.137080
H8    H     H_    0.903774 0.772993 0.623658 0.134761
H9    H     H_    0.436515 0.663043 0.702741 0.135838
H10   H     H_    0.164438 0.491916 0.235504 0.151486
H11   H     H_    0.064821 0.670959 0.727611 0.168698
H12   H     H_    0.131504 0.458454 0.422420 0.115748
H13   H     H_    0.549916 0.311123 0.310718 0.128364
H14   H     H_    0.923283 0.353690 0.342615 0.128279
H15   H     H_    0.687410 0.261163 0.247770 0.148155
H16   H     H_    0.849332 0.600947 0.616182 0.194441
H17   H     H_    0.442193 0.438872 0.153488 0.150998
H18   H     H_    0.137873 0.410048 0.844840 0.144445
H19   H     H_    0.623327 0.505242 0.009784 0.130682
H20   H     H_    0.531906 0.525233 0.839809 0.146091
H21   H     H_    0.830209 0.501528 0.765890 0.153399
H22   H     H_    0.970150 0.451127 0.186784 0.142095
H23   H     H_    0.945734 0.426071 0.791386 0.156812
N1    N     N_R   0.290690 0.566960 0.557640 -0.188286
N2    N     N_R   0.709100 0.433710 0.442970 -0.205368
O1    O     O_R   0.545970 0.684450 0.528810 -0.571280
O2    O     O_R   0.687130 0.639470 0.490120 -0.578146
O3    O     O_R   0.519670 0.535100 0.660030 -0.592935
O4    O     O_R   0.660830 0.490120 0.621340 -0.607907
O5    O     O_R   0.312870 0.360530 0.509880 -0.576591
O6    O     O_R   0.454030 0.315550 0.471190 -0.587628
O7    O     O_R   0.339170 0.509880 0.378660 -0.588138
O8    O     O_R   0.480330 0.464900 0.339970 -0.590404
O9    O     O_3   0.297358 0.918068 0.549584 -0.611765
C49   C     C_3   0.396750 0.951770 0.646305 0.027351
H24   H     H_    0.394258 0.870974 0.662177 0.198997
H25   H     H_    0.378140 0.989350 0.707306 0.118323
C50   C     C_3   0.534224 0.035739 0.648338 -0.365893
H26   H     H_    0.541355 0.009231 0.576617 0.232573
H27   H     H_    0.550495 0.125312 0.656426 0.205215
C51   C     C_3   0.643040 0.037444 0.736324 -0.887425
H28   H     H_    0.740792 0.100977 0.736553 0.263400
H29   H     H_    0.637758 0.063585 0.809086 0.254406
H30   H     H_    0.633373 0.950141 0.728660 0.254331
C52   C     C_3   0.963490 0.210092 0.549155 -0.393185
C53   C     C_3   0.077718 0.261584 0.652046 -0.813087
H31   H     H_    0.041099 0.225859 0.710698 0.244945
H32   H     H_    0.156127 0.243040 0.651834 0.263281
H33   H     H_    0.122237 0.357520 0.671994 0.235469
H34   H     H_    0.995113 0.249025 0.490251 0.187207
H35   H     H_    0.897087 0.242271 0.556014 0.202139
C54   C     C_3   0.294675 0.677880 0.805862 -0.426067
C55   C     C_3   0.358695 0.809348 0.839857 -0.863020
H36   H     H_    0.290993 0.838480 0.798393 0.242595
H37   H     H_    0.381713 0.834676 0.921765 0.253926
H38   H     H_    0.452479 0.853259 0.827727 0.246016
H39   H     H_    0.212373 0.634949 0.831879 0.221843
H40   H     H_    0.367258 0.652374 0.845317 0.197418

loop_
_geom_bond_atom_site_label_1
_geom_bond_atom_site_label_2
_ccdc_geom_bond_type
C12   O4    A    
C17   C29   A    
C15   H10   S    
C19   C20   A    
C4    C8    A    
Cu2   O4    S    
C32   N2    A    
C33   H15   S    
C49   H24   S    
C19   H7    S    
C6    H22   S    
C26   C27   A    
C17   C23   S    
C31   C43   A    
C36   C37   A    
C38   C42   A    
C3    C7    A    
C38   C39   A    
C53   H33   S    
C16   O9    S    
C1    O2    A    
Cu1   O3    S    
C18   C19   A    
C1    C30   S    
C46   H19   S    
C11   C15   A    
C52   C53   S    
C8    C9    A    
C12   O3    A    
C14   H17   S    
C54   H40   S    
C35   H14   S    
C18   C30   A    
C23   O5    A    
C23   O6    A    
C9    C10   A    
C42   H12   S    
C44   C47   A    
C43   H9    S    
C43   N1    A    
C37   N2    A    
C21   C22   A    
C1    O1    A    
C26   H4    S    
C28   H5    S    
Cu2   O8    S    
C14   C45   A    
C49   H25   S    
C42   N1    A    
C31   C54   S    
C24   C25   A    
C51   H28   S    
C52   H34   S    
C2    C48   A    
C16   C29   A    
C27   H8    S    
C40   H11   S    
C53   H32   S    
C35   C36   A    
Cu1   O7    S    
C2    C4    A    
C47   H20   S    
C51   H29   S    
C13   H2    S    
C50   C51   S    
C53   H31   S    
C20   C21   A    
Cu1   O1    S    
C54   H39   S    
C55   H37   S    
C34   C45   S    
O9    C49   S    
C6    C7    A    
C40   C41   A    
C20   C52   S    
C50   H27   S    
C22   C27   A    
C34   O8    A    
C15   C45   A    
C48   H21   S    
Cu2   O2    S    
C39   C40   A    
C49   C50   S    
C16   C25   A    
C46   C47   A    
C22   C30   A    
C17   C28   A    
C24   C28   A    
C32   H13   S    
C4    C5    A    
C10   C13   A    
C5    C11   A    
C41   H16   S    
C18   H6    S    
C3    C46   A    
Cu1   O5    S    
C32   C33   A    
C36   C38   A    
C2    C3    A    
C25   C26   A    
C9    H18   S    
C7    H1    S    
C12   C44   S    
Cu2   N2    S    
C51   H30   S    
C5    C6    A    
C29   H3    S    
C8    H23   S    
C33   C35   A    
C31   C39   A    
C55   H38   S    
C37   C41   A    
C54   C55   S    
C10   C11   A    
C44   C48   A    
C50   H26   S    
Cu1   Cu2   S    
C21   C24   A    
C55   H36   S    
Cu1   N1    S    
C34   O7    A    
C13   C14   A    
C52   H35   S    
Cu2   O6    S    
