data_mof_unit_50424.cif
_audit_creation_date              2012-12-10T17:21:40-0500
_audit_creation_method            fapswitch 2.2
_symmetry_space_group_name_H-M    P1
_symmetry_Int_Tables_number       1
_space_group_crystal_system       triclinic
_cell_length_a                    10.748272
_cell_length_b                    10.852199
_cell_length_c                    9.578333
_cell_angle_alpha                 90.500987
_cell_angle_beta                  89.763304
_cell_angle_gamma                 92.795172
_cell_volume                      1115.86005068

loop_
_atom_site_label
_atom_site_type_symbol
_atom_type_description
_atom_site_fract_x
_atom_site_fract_y
_atom_site_fract_z
_atom_type_partial_charge
C1    C     C_R   0.508516 0.262677 0.499790 0.871584
C2    C     C_3   0.878173 0.496925 0.497911 -0.161068
C3    C     C_3   0.934542 0.619768 0.559807 -0.482380
C4    C     C_3   0.928898 0.480474 0.346096 1.048718
C5    C     C_R   0.582341 0.119933 0.749923 -0.233532
C6    C     C_R   0.568874 0.062381 0.878916 0.632343
C7    C     C_R   0.500113 0.950945 0.888790 -0.283125
C8    C     C_R   0.457829 0.889948 0.767841 0.572079
C9    C     C_R   0.488070 0.939328 0.634254 -0.032460
C10   C     C_R   0.530066 0.064072 0.628044 -0.133250
C11   C     C_R   0.516394 0.128087 0.500733 -0.173785
C12   C     C_R   0.259897 0.497417 0.499999 0.901172
C13   C     C_R   0.492402 0.060880 0.376793 0.687007
C14   C     C_R   0.480745 0.933673 0.379590 -0.246705
C15   C     C_R   0.479771 0.871103 0.506690 -0.149357
C16   C     C_R   0.662801 0.667474 0.144776 -0.171248
C17   C     C_R   0.741099 0.750539 0.072773 0.710128
C18   C     C_R   0.741740 0.749748 0.928901 -0.317250
C19   C     C_R   0.663487 0.666605 0.856339 -0.257010
C20   C     C_R   0.580186 0.582159 0.925463 0.259829
C21   C     C_R   0.580004 0.582323 0.075133 0.114882
C22   C     C_R   0.423919 0.421585 0.073548 0.072305
C23   C     C_R   0.490173 0.737024 0.501623 0.829503
C24   C     C_R   0.423906 0.421665 0.925496 -0.014334
C25   C     C_R   0.740075 0.498791 0.499484 0.826502
C26   C     C_3   0.065517 0.390396 0.592731 0.511206
C27   C     C_3   0.921657 0.388744 0.587992 -0.469129
C28   C     C_3   0.078136 0.620459 0.556403 -0.567506
C29   C     C_3   0.071650 0.477042 0.347603 0.435809
C30   C     C_3   0.121842 0.495549 0.499138 -0.217732
Cu1   Cu    Cu3+1 0.499990 0.499990 0.640660 0.992044
Cu2   Cu    Cu3+1 0.500010 0.500010 0.359340 1.049630
H1    H     H_    0.096269 0.406154 0.702563 0.114379
H2    H     H_    0.902285 0.699498 0.499805 0.241074
H3    H     H_    0.635864 0.206836 0.746499 0.198013
H4    H     H_    0.471191 0.884171 0.281171 0.185639
H5    H     H_    0.361604 0.357368 0.128590 0.198295
H6    H     H_    0.803558 0.813774 0.872644 0.197985
H7    H     H_    0.672384 0.673086 0.746338 0.217594
H8    H     H_    0.883786 0.299210 0.544570 0.245601
H9    H     H_    0.114836 0.637993 0.663639 0.254370
N1    N     N_R   0.501200 0.501210 0.147910 -0.198764
N2    N     N_R   0.501250 0.501290 0.852040 -0.186696
O1    O     O_R   0.499990 0.319640 0.618810 -0.605216
O2    O     O_R   0.500000 0.319660 0.381240 -0.494365
O3    O     O_R   0.317680 0.499970 0.618790 -0.573720
O4    O     O_R   0.317700 0.499990 0.381210 -0.571139
O5    O     O_R   0.500000 0.680340 0.618760 -0.549193
O6    O     O_R   0.500010 0.680360 0.381190 -0.636123
O7    O     O_R   0.682300 0.500010 0.618790 -0.626058
O8    O     O_R   0.682320 0.500030 0.381210 -0.531736
F1    F     F_    0.896591 0.578222 0.263740 -0.683972
H10   H     H_    0.115211 0.697271 0.489473 0.227303
F2    F     F_    0.481560 0.117185 0.251725 -0.593890
F3    F     F_    0.616977 0.118115 0.995268 -0.566858
H11   H     H_    0.480050 0.911197 0.990202 0.193407
F4    F     F_    0.376264 0.791506 0.783552 -0.639333
F5    F     F_    0.106686 0.276878 0.550059 -0.588633
H12   H     H_    0.672698 0.673052 0.254769 0.225012
F6    F     F_    0.818258 0.831275 0.143697 -0.593167
H13   H     H_    0.361591 0.357481 0.869704 0.153471
H14   H     H_    0.885016 0.396448 0.696434 0.185311
H15   H     H_    0.902604 0.631461 0.669594 0.219729
H16   H     H_    0.111409 0.552419 0.280219 0.104636
F7    F     F_    0.109061 0.366424 0.291176 -0.560178
F8    F     F_    0.877732 0.372341 0.286875 -0.567643

loop_
_geom_bond_atom_site_label_1
_geom_bond_atom_site_label_2
_ccdc_geom_bond_type
C2    C4    S    
C28   H10   S    
C25   O8    A    
Cu2   O8    S    
C29   C30   S    
C27   H14   S    
C3    H15   S    
C8    F4    S    
C2    C25   S    
C11   C13   A    
C9    C10   A    
C27   H8    S    
C1    O1    A    
C4    C29   S    
C1    C11   S    
C6    F3    S    
C9    C15   A    
C10   C11   A    
C19   C20   A    
C15   C23   S    
C2    C3    S    
C18   H6    S    
C29   H16   S    
C5    C10   A    
C22   N1    A    
C13   C14   A    
C4    F8    S    
C26   F5    S    
C1    O2    A    
C26   C27   S    
C2    C27   S    
C16   H12   S    
Cu1   N2    S    
C7    H11   S    
C4    F1    S    
C24   H13   S    
C29   F7    S    
C19   H7    S    
C28   C30   S    
C3    C28   S    
C26   C30   S    
C6    C7    A    
Cu1   O5    S    
C12   O4    A    
C14   H4    S    
C5    C6    A    
Cu2   O4    S    
C22   C24   A    
Cu2   O6    S    
C23   O6    A    
C16   C17   A    
Cu1   O1    S    
C17   F6    S    
C21   N1    A    
C5    H3    S    
C28   H9    S    
C7    C8    A    
C20   N2    A    
C20   C21   A    
C17   C18   A    
C13   F2    S    
Cu2   O2    S    
C24   N2    A    
Cu2   N1    S    
C25   O7    A    
C18   C19   A    
C23   O5    A    
Cu1   O7    S    
C3    H2    S    
C12   C30   S    
C14   C15   A    
C22   H5    S    
C16   C21   A    
Cu1   O3    S    
Cu1   Cu2   S    
C26   H1    S    
C8    C9    A    
C12   O3    A    
