data_mof_unit_43649.cif
_audit_creation_date              2012-10-26T19:57:53-0400
_audit_creation_method            fapswitch 2.2
_symmetry_space_group_name_H-M    P1
_symmetry_Int_Tables_number       1
_space_group_crystal_system       triclinic
_cell_length_a                    7.420085
_cell_length_b                    8.733115
_cell_length_c                    13.045164
_cell_angle_alpha                 88.421644
_cell_angle_beta                  79.832762
_cell_angle_gamma                 102.275576
_cell_volume                      811.171004621

loop_
_atom_site_label
_atom_site_type_symbol
_atom_type_description
_atom_site_fract_x
_atom_site_fract_y
_atom_site_fract_z
_atom_type_partial_charge
Br1   Br    Br    0.894393 0.759309 0.177898 -0.596448
Br2   Br    Br    0.092467 0.242951 0.819739 -0.589800
C1    C     C_R   0.455036 0.201187 0.499397 0.594834
C2    C     C_R   0.707208 0.612582 0.123553 0.103920
C3    C     C_R   0.607338 0.537949 0.859900 0.105987
C4    C     C_R   0.405088 0.424860 0.140374 0.093478
C5    C     C_R   0.588605 0.527007 0.968802 -0.000314
C6    C     C_R   0.424634 0.432637 0.030957 -0.002355
C7    C     C_2   0.436765 0.038351 0.484818 0.120388
C8    C     C_2   0.560648 0.961915 0.516026 0.116986
C9    C     C_3   0.079136 0.390506 0.226336 -0.221648
C10   C     C_3   0.810153 0.783836 0.776506 -0.275161
C11   C     C_3   0.358225 0.949646 0.319239 -0.283722
C12   C     C_R   0.544695 0.799190 0.499954 0.592654
C13   C     C_3   0.627294 0.066479 0.680623 -0.303418
C14   C     C_R   0.467571 0.488604 0.701098 0.576977
C15   C     C_R   0.532285 0.506432 0.299005 0.586561
C16   C     C_R   0.548169 0.514860 0.186218 0.037562
C17   C     C_R   0.454221 0.467056 0.813792 0.037783
C18   C     C_R   0.283285 0.349287 0.982444 -0.096892
C19   C     C_R   0.728472 0.614187 0.016378 -0.093767
C20   C     C_R   0.294637 0.368142 0.875613 0.109467
Cu1   Cu    Cu3+1 0.686350 0.517570 0.488220 0.973865
Cu2   Cu    Cu3+1 0.313650 0.482430 0.511780 0.994772
H1    H     H_    0.160791 0.269571 0.026520 0.165295
H2    H     H_    0.938644 0.845212 0.803676 0.163202
H3    H     H_    0.689397 0.828650 0.817577 0.148490
H4    H     H_    0.829236 0.811556 0.691288 0.208449
H5    H     H_    0.187198 0.881631 0.468023 0.278251
H6    H     H_    0.234846 0.913737 0.281111 0.187226
H7    H     H_    0.441667 0.857693 0.310072 0.160921
H8    H     H_    0.444992 0.062408 0.279619 0.162116
H9    H     H_    0.811973 0.112258 0.534713 0.281450
H10   H     H_    0.744750 0.093198 0.724002 0.184840
H11   H     H_    0.520003 0.964542 0.721603 0.151065
H12   H     H_    0.852913 0.690304 0.971192 0.169098
H13   H     H_    0.563771 0.170351 0.680914 0.171237
H14   H     H_    0.934387 0.381039 0.583919 0.257062
H15   H     H_    0.065709 0.620231 0.416946 0.239387
H16   H     H_    0.217700 0.210159 0.185704 0.257030
H17   H     H_    0.010594 0.388699 0.157269 0.147250
H18   H     H_    0.115734 0.513697 0.248065 0.192068
H19   H     H_    0.977332 0.319794 0.292154 0.174305
H20   H     H_    0.898169 0.578640 0.811258 0.277342
N1    N     N_2   0.033570 0.455950 0.529530 -0.253496
N2    N     N_2   0.966430 0.544050 0.470470 -0.270168
N3    N     N_2   0.245100 0.325446 0.204956 -0.513630
N4    N     N_2   0.781730 0.615776 0.796317 -0.499719
N5    N     N_2   0.294725 0.969140 0.428511 -0.525429
N6    N     N_2   0.698261 0.031060 0.575202 -0.542157
O1    O     O_R   0.621060 0.286250 0.492350 -0.543269
O2    O     O_R   0.378940 0.713750 0.507650 -0.534774
O3    O     O_R   0.306310 0.256580 0.512240 -0.465170
O4    O     O_R   0.693690 0.743420 0.487760 -0.473515
O5    O     O_R   0.631800 0.512400 0.642670 -0.488395
O6    O     O_R   0.368200 0.487600 0.357330 -0.497776
O7    O     O_R   0.317060 0.482730 0.662570 -0.466475
O8    O     O_R   0.682940 0.517270 0.337430 -0.483819

loop_
_geom_bond_atom_site_label_1
_geom_bond_atom_site_label_2
_ccdc_geom_bond_type
Br2   C20   S    
H16   N3    S    
Cu1   Cu2   S    
C9    H19   S    
C3    C17   A    
Cu2   O6    S    
Cu1   O4    S    
C7    C8    D    
C11   H6    S    
C11   H8    S    
Cu1   O1    S    
C15   O8    A    
C10   N4    S    
Br1   C2    S    
C2    C16   A    
C15   C16   S    
H9    N6    S    
C14   O5    A    
C5    C6    A    
C19   H12   S    
H5    N5    S    
N1    N2    D    
Cu1   O5    S    
C2    C19   A    
C1    O3    A    
C15   O6    A    
C6    C18   A    
C10   H4    S    
C14   C17   S    
C11   N5    S    
Cu2   N1    S    
C13   H11   S    
C12   O4    A    
C18   C20   A    
C9    H17   S    
Cu1   O8    S    
Cu2   O2    S    
H15   N2    S    
C8    C12   S    
C4    C16   A    
C3    N4    S    
C1    C7    S    
C18   H1    S    
C10   H3    S    
C8    N6    S    
C14   O7    A    
C17   C20   A    
C7    N5    S    
C9    H18   S    
C3    C5    A    
C4    N3    S    
C13   N6    S    
Cu1   N2    S    
C1    O1    A    
C13   H13   S    
H14   N1    S    
C4    C6    A    
C13   H10   S    
Cu2   O3    S    
C5    C19   A    
C9    N3    S    
C11   H7    S    
C12   O2    A    
H20   N4    S    
C10   H2    S    
Cu2   O7    S    
