data_mof_unit_14489.cif
_audit_creation_date              2012-10-26T18:33:39-0400
_audit_creation_method            fapswitch 2.2
_symmetry_space_group_name_H-M    P1
_symmetry_Int_Tables_number       1
_space_group_crystal_system       triclinic
_cell_length_a                    15.136718
_cell_length_b                    13.822924
_cell_length_c                    10.897314
_cell_angle_alpha                 89.634559
_cell_angle_beta                  85.621586
_cell_angle_gamma                 90.109554
_cell_volume                      2273.37829788

loop_
_atom_site_label
_atom_site_type_symbol
_atom_type_description
_atom_site_fract_x
_atom_site_fract_y
_atom_site_fract_z
_atom_type_partial_charge
C1    C     C_R   0.328603 0.499748 0.506591 0.556112
C2    C     C_R   0.030153 0.522285 0.723593 -0.044254
C3    C     C_R   0.085056 0.509142 0.614845 0.011095
C4    C     C_R   0.500569 0.500247 0.259248 0.587500
C5    C     C_R   0.046041 0.501642 0.501510 -0.010403
C6    C     C_R   0.099790 0.495633 0.389634 0.007257
C7    C     C_R   0.058889 0.499269 0.277302 0.182493
C8    C     C_R   0.967182 0.485222 0.276915 0.050447
C9    C     C_R   0.177843 0.506979 0.616760 0.087521
C10   C     C_R   0.231474 0.499078 0.505768 0.002787
C11   C     C_R   0.192547 0.485782 0.393693 -0.002293
C12   C     C_3   0.594600 0.500923 0.911599 -0.280645
C13   C     C_R   0.433759 0.795564 0.563035 0.239674
C14   C     C_R   0.434632 0.203765 0.565029 0.230640
C15   C     C_R   0.566672 0.792739 0.433131 0.065890
C16   C     C_R   0.565993 0.208436 0.432025 0.101209
C17   C     C_R   0.569686 0.896426 0.426841 -0.013840
C18   C     C_R   0.570888 0.104957 0.429956 -0.000356
C19   C     C_R   0.670980 0.500310 0.500707 0.529210
C20   C     C_R   0.500017 0.948544 0.488482 0.018651
C21   C     C_R   0.500537 0.051878 0.489834 0.019522
C22   C     C_R   0.429895 0.897374 0.552293 0.010353
C23   C     C_R   0.820923 0.515911 0.388183 -0.020683
C24   C     C_R   0.430524 0.102142 0.553975 0.009650
C25   C     C_R   0.640757 0.949552 0.364398 -0.020200
C26   C     C_R   0.642210 0.053168 0.367996 -0.010384
C27   C     C_R   0.357763 0.049425 0.606398 -0.105258
C28   C     C_R   0.357400 0.949525 0.605438 -0.105772
C29   C     C_R   0.496979 0.499502 0.739898 0.570700
C30   C     C_3   0.433624 0.576982 0.073293 -0.149306
C31   C     C_3   0.465656 0.399485 0.073203 -0.129964
C32   C     C_3   0.447615 0.587118 0.932497 -0.249210
C33   C     C_3   0.454019 0.404883 0.933346 -0.256098
C34   C     C_R   0.767772 0.501684 0.498505 -0.012219
C35   C     C_3   0.599048 0.519993 0.052798 0.007260
C36   C     C_3   0.502163 0.500174 0.119599 0.022543
C37   C     C_3   0.497741 0.498211 0.876727 -0.007836
C38   C     C_2   0.429644 0.676529 0.130809 0.293551
C39   C     C_2   0.518843 0.310108 0.100299 0.298730
C40   C     C_2   0.248650 0.446676 0.287895 0.282724
C41   C     C_2   0.930168 0.439800 0.168129 0.331950
C42   C     C_2   0.716837 0.898626 0.299469 0.210223
C43   C     C_2   0.719262 0.105561 0.305597 0.213449
C44   C     C_2   0.630739 0.623727 0.067134 0.218362
C45   C     C_R   0.806905 0.499458 0.609993 -0.108210
C46   C     C_2   0.671913 0.455776 0.097385 0.170480
C47   C     C_2   0.782652 0.569414 0.286690 0.248801
C48   C     C_R   0.898950 0.508155 0.611994 0.034771
C49   C     C_R   0.952817 0.502651 0.500140 0.014632
C50   C     C_R   0.913183 0.499579 0.387050 -0.016086
C51   C     C_R   0.938474 0.523025 0.722514 0.095342
Cu1   Cu    Cu3+1 0.499990 0.597420 0.500010 1.051543
Cu2   Cu    Cu3+1 0.499990 0.402580 0.500010 1.062164
H1    H     H_    0.057045 0.535399 0.810805 0.207330
H2    H     H_    0.485833 0.653920 0.905666 0.143533
H3    H     H_    0.482524 0.339718 0.885765 0.161684
H4    H     H_    0.632765 0.555550 0.853601 0.108964
H5    H     H_    0.625947 0.430478 0.884649 0.112619
H6    H     H_    0.764571 0.495114 0.694516 0.125579
H7    H     H_    0.478623 0.731351 0.103555 0.166345
H8    H     H_    0.582846 0.297362 0.051561 0.132717
H9    H     H_    0.316578 0.470220 0.271998 0.086487
H10   H     H_    0.860073 0.424071 0.168617 0.136647
H11   H     H_    0.784084 0.920489 0.314213 0.133874
H12   H     H_    0.618847 0.750154 0.387697 0.204466
H13   H     H_    0.746820 0.082177 0.215831 0.135661
H14   H     H_    0.667788 0.660981 0.991750 0.155078
H15   H     H_    0.733434 0.448545 0.040827 0.144220
H16   H     H_    0.711955 0.572523 0.284153 0.195507
H17   H     H_    0.614713 0.252028 0.379616 0.213042
H18   H     H_    0.299118 0.083919 0.648035 0.166557
H19   H     H_    0.298412 0.914673 0.646427 0.165977
H20   H     H_    0.365778 0.546728 0.093004 0.154011
H21   H     H_    0.398639 0.387238 0.119884 0.173512
H22   H     H_    0.382018 0.594066 0.895465 0.189828
H23   H     H_    0.382246 0.405016 0.918862 0.188220
I1    I     I_    0.235852 0.499401 0.788746 -0.287776
I2    I     I_    0.123185 0.568254 0.117388 -0.136474
I3    I     I_    0.343663 0.728953 0.697193 -0.303430
I4    I     I_    0.345258 0.269634 0.699772 -0.283128
I5    I     I_    0.865696 0.563387 0.888042 -0.329375
N1    N     N_R   0.499930 0.743810 0.499950 -0.245535
N2    N     N_R   0.499930 0.256190 0.499950 -0.248479
O1    O     O_R   0.370250 0.582280 0.500040 -0.459939
O2    O     O_2   0.488085 0.248503 0.172255 -0.472591
O3    O     O_2   0.220873 0.383808 0.222511 -0.446389
O4    O     O_2   0.978124 0.413000 0.079752 -0.430487
O5    O     O_2   0.705166 0.835968 0.224101 -0.434104
O6    O     O_2   0.755426 0.171629 0.356373 -0.490703
O7    O     O_2   0.619930 0.666113 0.164635 -0.484942
O8    O     O_2   0.664420 0.412110 0.195305 -0.534388
O9    O     O_2   0.828882 0.616140 0.210950 -0.448490
O10   O     O_R   0.370250 0.417720 0.500040 -0.481908
O11   O     O_R   0.499970 0.582270 0.317700 -0.453504
O12   O     O_R   0.499970 0.417730 0.317700 -0.458992
O13   O     O_R   0.629730 0.582260 0.499980 -0.530565
O14   O     O_R   0.629730 0.417740 0.499980 -0.482241
O15   O     O_R   0.500000 0.582270 0.682320 -0.492257
O16   O     O_R   0.500000 0.417730 0.682320 -0.496487
O17   O     O_2   0.368612 0.697785 0.205539 -0.463894

loop_
_geom_bond_atom_site_label_1
_geom_bond_atom_site_label_2
_ccdc_geom_bond_type
C4    C36   S    
C42   H11   S    
Cu2   O12   S    
C18   C21   A    
C47   O9    D    
C35   C36   S    
C18   C26   A    
C24   C27   A    
C32   H22   S    
C13   I3    S    
C19   O14   A    
C44   O7    D    
C7    C8    A    
Cu2   O16   S    
C1    O1    A    
C43   O6    D    
C29   O15   A    
C5    C6    A    
C40   O3    D    
C15   H12   S    
C17   C20   A    
C40   H9    S    
C30   C38   S    
C14   C24   A    
C12   C37   S    
Cu1   O1    S    
C47   H16   S    
C48   C51   A    
C31   C33   S    
Cu1   O11   S    
C14   I4    S    
C9    C10   A    
C51   I5    S    
C32   H2    S    
C12   H5    S    
C33   H3    S    
C22   C28   A    
C5    C49   A    
C28   H19   S    
C14   N2    A    
C41   O4    D    
C26   C43   S    
C15   N1    A    
C39   H8    S    
C23   C47   S    
C29   O16   A    
Cu2   O10   S    
C16   H17   S    
C8    C41   S    
C38   O17   D    
C2    H1    S    
C6    C11   A    
C30   H20   S    
C23   C50   A    
C46   O8    D    
Cu2   O14   S    
C25   C26   A    
C13   N1    A    
C16   N2    A    
C33   C37   S    
C46   H15   S    
C3    C9    A    
C4    O12   A    
C33   H23   S    
C23   C34   A    
C34   C45   A    
C9    I1    S    
C32   C37   S    
C12   C35   S    
Cu1   N1    S    
C35   C44   S    
C7    I2    S    
C4    O11   A    
C12   H4    S    
C1    O10   A    
C48   C49   A    
C20   C22   A    
C10   C11   A    
C38   H7    S    
C42   O5    D    
C39   O2    D    
C8    C50   A    
C27   H18   S    
Cu1   Cu2   S    
C45   C48   A    
C15   C17   A    
C45   H6    S    
C1    C10   S    
C3    C5    A    
C19   C34   S    
C25   C42   S    
C6    C7    A    
C30   C36   S    
Cu2   N2    S    
C17   C25   A    
C2    C3    A    
C30   C32   S    
C43   H13   S    
Cu1   O15   S    
C31   C39   S    
C13   C22   A    
Cu1   O13   S    
C11   C40   S    
C31   H21   S    
C2    C51   A    
C20   C21   A    
C16   C18   A    
C49   C50   A    
C21   C24   A    
C29   C37   S    
C27   C28   A    
C41   H10   S    
C31   C36   S    
C44   H14   S    
C35   C46   S    
C19   O13   A    
