data_mof_unit_52512.cif
_audit_creation_date              2012-12-10T18:43:41-0500
_audit_creation_method            fapswitch 2.2
_symmetry_space_group_name_H-M    P1
_symmetry_Int_Tables_number       1
_space_group_crystal_system       triclinic
_cell_length_a                    10.478707
_cell_length_b                    10.714408
_cell_length_c                    9.832755
_cell_angle_alpha                 89.988673
_cell_angle_beta                  103.868643
_cell_angle_gamma                 90.108146
_cell_volume                      1071.76966667

loop_
_atom_site_label
_atom_site_type_symbol
_atom_type_description
_atom_site_fract_x
_atom_site_fract_y
_atom_site_fract_z
_atom_type_partial_charge
C1    C     C_R   0.499909 0.259833 0.499942 0.854594
C2    C     C_R   0.500066 0.740152 0.500052 0.861338
C3    C     C_R   0.256087 0.498049 0.441445 0.917360
C4    C     C_R   0.743950 0.497873 0.558534 0.917336
C5    C     C_R   0.582223 0.577237 0.092920 -0.076555
C6    C     C_R   0.417631 0.422898 0.907047 -0.075134
C7    C     C_R   0.581991 0.577381 0.948929 -0.082084
C8    C     C_R   0.417606 0.422991 0.050992 -0.083300
C9    C     C_2   0.113543 0.480313 0.409002 0.002020
C10   C     C_2   0.886435 0.479608 0.590692 -0.003767
C11   C     C_2   0.068544 0.405801 0.497732 -0.248924
C12   C     C_2   0.930803 0.405896 0.500934 -0.245938
C13   C     C_R   0.469063 0.063872 0.372186 -0.196002
C14   C     C_R   0.530892 0.936084 0.627800 -0.198179
C15   C     C_R   0.469115 0.935984 0.372217 -0.200609
C16   C     C_R   0.530728 0.063971 0.627769 -0.197414
C17   C     C_R   0.500045 0.872552 0.500023 -0.014478
C18   C     C_R   0.499876 0.127414 0.499964 -0.011158
H1    H     H_    0.863231 0.358713 0.414971 0.173953
H2    H     H_    0.135765 0.357877 0.583196 0.163741
H3    H     H_    0.647974 0.638938 0.164251 0.126993
H4    H     H_    0.351782 0.361309 0.835671 0.119093
H5    H     H_    0.647137 0.639560 0.910968 0.122362
H6    H     H_    0.351755 0.361480 0.088846 0.123205
H7    H     H_    0.444063 0.112631 0.272778 0.152250
H8    H     H_    0.555981 0.887320 0.727207 0.152319
H9    H     H_    0.444118 0.887137 0.272830 0.156596
H10   H     H_    0.555635 0.112806 0.727161 0.156594
N1    N     N_R   0.499970 0.499970 0.857200 -0.071990
N2    N     N_R   0.500030 0.500030 0.142800 -0.074150
O1    O     O_R   0.499990 0.316750 0.614620 -0.626273
O2    O     O_R   0.500010 0.683250 0.385380 -0.622597
O3    O     O_R   0.499990 0.316780 0.385290 -0.625494
O4    O     O_R   0.500010 0.683220 0.614710 -0.621102
O5    O     O_R   0.317810 0.500000 0.571850 -0.626696
O6    O     O_R   0.682190 0.500000 0.428150 -0.628815
O7    O     O_R   0.317810 0.500030 0.342520 -0.600891
O8    O     O_R   0.682190 0.499970 0.657480 -0.598175
Zn1   Zn    Zn3+2 0.500000 0.499980 0.653120 0.930621
Zn2   Zn    Zn3+2 0.500000 0.500020 0.346880 0.927840
C19   C     C_3   0.981589 0.547436 0.709822 -0.387548
C20   C     C_3   0.917614 0.632444 0.799151 -0.889810
H11   H     H_    0.849873 0.699821 0.732399 0.254231
H12   H     H_    0.864011 0.576064 0.862306 0.272163
H13   H     H_    0.995270 0.686267 0.872526 0.246759
H14   H     H_    0.042443 0.477264 0.779728 0.213382
H15   H     H_    0.048645 0.606165 0.664534 0.226671
C21   C     C_3   0.019255 0.549094 0.290225 -0.405315
C22   C     C_3   0.084251 0.637540 0.204851 -0.873116
H16   H     H_    0.150355 0.704449 0.274577 0.256686
H17   H     H_    0.140022 0.584083 0.141537 0.277502
H18   H     H_    0.006984 0.691769 0.131746 0.239944
H19   H     H_    0.960018 0.479454 0.217808 0.216870
H20   H     H_    0.950571 0.605622 0.335341 0.223089

loop_
_geom_bond_atom_site_label_1
_geom_bond_atom_site_label_2
_ccdc_geom_bond_type
C16   H10   S    
O5    Zn1   S    
C11   C12   S    
C4    O6    A    
C15   C17   A    
C7    N1    A    
C19   C20   S    
C15   H9    S    
C3    O5    A    
C19   H14   S    
C22   H18   S    
C8    N2    A    
N1    Zn1   S    
C13   C15   A    
C19   H15   S    
C1    O3    A    
C14   H8    S    
C10   C19   S    
C21   H20   S    
C3    C9    S    
C9    C11   D    
C14   C17   A    
C13   H7    S    
C1    C18   S    
C21   H19   S    
C20   H12   S    
C13   C18   A    
C7    H5    S    
C10   C12   D    
C12   H1    S    
C16   C18   A    
C21   C22   S    
C8    H6    S    
O1    Zn1   S    
C22   H16   S    
O7    Zn2   S    
O2    Zn2   S    
O8    Zn1   S    
C14   C16   A    
C11   H2    S    
O3    Zn2   S    
C20   H11   S    
C4    C10   S    
O4    Zn1   S    
C6    H4    S    
C1    O1    A    
C6    N1    A    
C5    H3    S    
C3    O7    A    
C9    C21   S    
C2    O2    A    
C5    N2    A    
C5    C7    A    
N2    Zn2   S    
O6    Zn2   S    
C6    C8    A    
C22   H17   S    
C2    O4    A    
C4    O8    A    
C2    C17   S    
C20   H13   S    
