data_mof_unit_34426.cif
_audit_creation_date              2012-12-11T14:08:41-0500
_audit_creation_method            fapswitch 2.2
_symmetry_space_group_name_H-M    P1
_symmetry_Int_Tables_number       1
_space_group_crystal_system       triclinic
_cell_length_a                    28.076857
_cell_length_b                    7.201945
_cell_length_c                    17.206623
_cell_angle_alpha                 90.03619
_cell_angle_beta                  101.473868
_cell_angle_gamma                 90.168306
_cell_volume                      3409.76685382

loop_
_atom_site_label
_atom_site_type_symbol
_atom_type_description
_atom_site_fract_x
_atom_site_fract_y
_atom_site_fract_z
_atom_type_partial_charge
O1    O     O_R   0.000700 0.436510 0.857920 -0.533387
O2    O     O_R   0.999300 0.563490 0.142080 -0.533387
O3    O     O_R   0.999300 0.936510 0.642080 -0.533502
O4    O     O_R   0.000700 0.063490 0.357920 -0.533502
O5    O     O_R   0.930080 0.766380 0.721890 -0.543180
O6    O     O_R   0.069920 0.233620 0.278110 -0.543180
O7    O     O_R   0.069920 0.266380 0.778110 -0.542392
O8    O     O_R   0.930080 0.733620 0.221890 -0.542392
C1    C     C_R   0.910560 0.597380 0.709171 0.717581
C2    C     C_R   0.089440 0.402619 0.290829 0.717581
C3    C     C_R   0.089510 0.097947 0.790477 0.719356
C4    C     C_R   0.910490 0.902053 0.209523 0.719356
O9    O     O_R   0.996180 0.766230 0.862310 -0.543228
O10   O     O_R   0.003820 0.233770 0.137690 -0.543228
O11   O     O_R   0.003820 0.266230 0.637690 -0.542833
O12   O     O_R   0.996180 0.733770 0.362310 -0.542833
O13   O     O_R   0.065870 0.936460 0.783500 -0.538090
O14   O     O_R   0.934130 0.063540 0.216500 -0.538090
O15   O     O_R   0.934130 0.436460 0.716500 -0.538450
O16   O     O_R   0.065870 0.563540 0.283500 -0.538450
C5    C     C_R   0.998482 0.596473 0.894475 0.759218
C6    C     C_R   0.001518 0.403527 0.105525 0.759218
C7    C     C_R   0.001520 0.096424 0.605534 0.759982
C8    C     C_R   0.998480 0.903576 0.394466 0.759982
O17   O     O_3   0.022790 0.603020 0.723980 -0.378554
O18   O     O_3   0.977210 0.396980 0.276020 -0.378554
O19   O     O_3   0.977210 0.103020 0.776020 -0.379520
O20   O     O_3   0.022790 0.896980 0.223980 -0.379520
V1    V     V_3+5 0.995770 0.877900 0.754830 1.403349
V2    V     V_3+5 0.004230 0.122100 0.245170 1.403349
V3    V     V_3+5 0.004230 0.377900 0.745170 1.405928
V4    V     V_3+5 0.995770 0.622100 0.254830 1.405928
C9    C     C_2   0.001706 0.082573 0.519583 -0.332292
C10   C     C_2   0.998294 0.917427 0.480417 -0.332293
C11   C     C_2   0.998301 0.582570 0.980451 -0.332691
C12   C     C_2   0.001699 0.417429 0.019549 -0.332690
H1    H     H_    0.004497 0.211305 0.487916 0.153853
H2    H     H_    0.995503 0.788695 0.512084 0.153853
H3    H     H_    0.995525 0.711238 0.012189 0.153485
H4    H     H_    0.004475 0.288761 0.987811 0.153485
C13   C     C_R   0.684556 0.015552 0.036147 0.649689
C14   C     C_R   0.315444 0.984448 0.963853 0.649689
C15   C     C_R   0.316194 0.449865 0.472785 0.614275
C16   C     C_R   0.683806 0.550134 0.527215 0.614275
O21   O     O_2   0.715768 0.082055 0.992498 -0.517403
O22   O     O_2   0.284232 0.917945 0.007502 -0.517403
O23   O     O_2   0.286145 0.436356 0.524760 -0.519415
O24   O     O_2   0.713855 0.563644 0.475240 -0.519415
N1    N     N_R   0.702171 0.936816 0.108622 -0.538821
N2    N     N_R   0.297829 0.063184 0.891378 -0.538821
N3    N     N_R   0.297349 0.447605 0.392969 -0.536908
N4    N     N_R   0.702651 0.552395 0.607031 -0.536908
C17   C     C_R   0.671190 0.861817 0.152565 0.555133
C18   C     C_R   0.328809 0.138183 0.847435 0.555133
C19   C     C_R   0.326977 0.465402 0.339035 0.601727
C20   C     C_R   0.673023 0.534598 0.660965 0.601727
C21   C     C_R   0.781039 0.090095 0.161936 0.501051
C22   C     C_R   0.218961 0.909905 0.838063 0.501051
C23   C     C_R   0.218837 0.595473 0.336101 0.496949
C24   C     C_R   0.781163 0.404527 0.663899 0.496949
C25   C     C_R   0.831926 0.081315 0.184432 -0.271515
C26   C     C_R   0.168074 0.918685 0.815568 -0.271516
C27   C     C_R   0.167787 0.583739 0.313163 -0.291278
C28   C     C_R   0.832213 0.416261 0.686837 -0.291278
C29   C     C_R   0.828876 0.748529 0.163707 -0.189307
C30   C     C_R   0.171124 0.251470 0.836292 -0.189307
C31   C     C_R   0.170747 0.254760 0.342699 -0.200921
C32   C     C_R   0.829252 0.745240 0.657301 -0.200921
C33   C     C_R   0.778313 0.757582 0.139357 -0.161612
C34   C     C_R   0.221687 0.242418 0.860643 -0.161612
C35   C     C_R   0.221172 0.266890 0.368223 -0.177338
C36   C     C_R   0.778828 0.733110 0.631776 -0.177338
C37   C     C_R   0.754077 0.927902 0.137509 0.285574
C38   C     C_R   0.245923 0.072098 0.862491 0.285575
C39   C     C_R   0.245397 0.436446 0.365508 0.307722
C40   C     C_R   0.754603 0.563553 0.634492 0.307722
C41   C     C_R   0.601732 0.957087 0.052174 -0.047137
C42   C     C_R   0.398268 0.042912 0.947826 -0.047137
C43   C     C_R   0.397776 0.482581 0.446525 -0.049307
C44   C     C_R   0.602224 0.517420 0.553475 -0.049307
C45   C     C_R   0.634109 0.024675 0.006234 -0.087295
C46   C     C_R   0.365891 0.975325 0.993766 -0.087295
C47   C     C_R   0.366651 0.470403 0.500946 -0.080379
C48   C     C_R   0.633348 0.529597 0.499054 -0.080379
C49   C     C_R   0.615705 0.084973 0.928958 -0.130486
C50   C     C_R   0.384295 0.915027 0.071042 -0.130485
C51   C     C_R   0.385887 0.495886 0.581616 -0.131295
C52   C     C_R   0.614113 0.504114 0.418384 -0.131295
C53   C     C_R   0.620478 0.869404 0.124893 -0.009757
C54   C     C_R   0.379522 0.130596 0.875107 -0.009757
C55   C     C_R   0.377565 0.484869 0.364822 -0.013833
C56   C     C_R   0.622435 0.515131 0.635178 -0.013833
C57   C     C_R   0.856485 0.910607 0.185768 -0.116245
C58   C     C_R   0.143515 0.089392 0.814232 -0.116245
C59   C     C_R   0.143319 0.413351 0.315455 -0.101586
C60   C     C_R   0.856681 0.586649 0.684545 -0.101586
H5    H     H_    0.846351 0.614670 0.163784 0.157125
H6    H     H_    0.153649 0.385330 0.836215 0.157126
H7    H     H_    0.153187 0.121650 0.345809 0.152130
H8    H     H_    0.846813 0.878350 0.654191 0.152130
H9    H     H_    0.757918 0.632208 0.120531 0.188645
H10   H     H_    0.242082 0.367792 0.879469 0.188645
H11   H     H_    0.241554 0.144150 0.390491 0.180388
H12   H     H_    0.758446 0.855850 0.609509 0.180388
H13   H     H_    0.640606 0.123507 0.890987 0.173056
H14   H     H_    0.359394 0.876493 0.109013 0.173056
H15   H     H_    0.361630 0.499532 0.623283 0.176692
H16   H     H_    0.638370 0.500467 0.376717 0.176692
C61   C     C_R   0.481446 0.086360 0.926098 0.048194
C62   C     C_R   0.518554 0.913640 0.073902 0.048194
C63   C     C_R   0.520015 0.502321 0.582388 0.051338
C64   C     C_R   0.479984 0.497679 0.417612 0.051338
C65   C     C_R   0.467760 0.951415 0.051794 -0.011037
C66   C     C_R   0.532240 0.048585 0.948206 -0.011037
C67   C     C_R   0.531488 0.488773 0.443749 -0.015008
C68   C     C_R   0.468512 0.511227 0.556251 -0.015008
C69   C     C_R   0.449351 0.024612 0.975012 0.052318
C70   C     C_R   0.550649 0.975388 0.024988 0.052318
C71   C     C_R   0.550986 0.505217 0.526267 0.051805
C72   C     C_R   0.449014 0.494783 0.473733 0.051805
C73   C     C_R   0.461815 0.199008 0.860321 -0.214300
C74   C     C_R   0.538185 0.800992 0.139678 -0.214300
C75   C     C_R   0.541839 0.472968 0.662639 -0.214974
C76   C     C_R   0.458161 0.527032 0.337361 -0.214974
C77   C     C_R   0.411776 0.215172 0.833578 -0.155878
C78   C     C_R   0.588224 0.784828 0.166422 -0.155878
C79   C     C_R   0.591952 0.484652 0.688931 -0.158284
C80   C     C_R   0.408048 0.515348 0.311069 -0.158284
O25   O     O_2   0.310710 0.218017 0.776889 -0.538242
O26   O     O_2   0.689290 0.781983 0.223111 -0.538243
O27   O     O_2   0.692392 0.536347 0.739284 -0.535636
O28   O     O_2   0.307607 0.463653 0.260716 -0.535636
C81   C     C_R   0.565836 0.072431 0.896305 0.120492
C82   C     C_R   0.434164 0.927569 0.103695 0.120492
C83   C     C_R   0.435058 0.542420 0.608017 0.118126
C84   C     C_R   0.564942 0.457580 0.391983 0.118126
H17   H     H_    0.148033 0.791300 0.798872 0.149599
H18   H     H_    0.851967 0.208700 0.201128 0.149599
H19   H     H_    0.852735 0.291809 0.705819 0.143913
H20   H     H_    0.147265 0.708191 0.294181 0.143913
H21   H     H_    0.398486 0.295073 0.780417 0.160184
H22   H     H_    0.601514 0.704927 0.219583 0.160184
H23   H     H_    0.606728 0.468382 0.751667 0.160646
H24   H     H_    0.393272 0.531618 0.248333 0.160647
H25   H     H_    0.484888 0.277835 0.829132 0.120595
H26   H     H_    0.515112 0.722164 0.170868 0.120595
H27   H     H_    0.520503 0.437294 0.706101 0.116292
H28   H     H_    0.479497 0.562706 0.293899 0.116292
O29   O     O_3   0.242145 0.740608 0.840553 -0.556214
C85   C     C_3   0.251588 0.703478 0.764627 -0.237763
H29   H     H_    0.274981 0.812991 0.745793 0.158355
H30   H     H_    0.217224 0.687696 0.719949 0.144439
H31   H     H_    0.271578 0.570459 0.766925 0.208827
O30   O     O_3   0.757855 0.259392 0.159447 -0.556214
C86   C     C_3   0.748411 0.296521 0.235373 -0.237763
H32   H     H_    0.782776 0.312301 0.280051 0.144439
H33   H     H_    0.725017 0.187009 0.254206 0.158355
H34   H     H_    0.728422 0.429541 0.233075 0.208827
O31   O     O_3   0.756783 0.236460 0.662718 -0.558848
C87   C     C_3   0.765769 0.156458 0.739116 -0.214595
H35   H     H_    0.763054 0.259658 0.786313 0.176921
H36   H     H_    0.801711 0.086867 0.751842 0.126961
H37   H     H_    0.737815 0.048155 0.740853 0.180716
O32   O     O_3   0.243217 0.763540 0.337282 -0.558848
C88   C     C_3   0.234231 0.843542 0.260884 -0.214596
H38   H     H_    0.198289 0.913133 0.248159 0.126962
H39   H     H_    0.236946 0.740342 0.213687 0.176922
H40   H     H_    0.262185 0.951845 0.259147 0.180717
C89   C     C_3   0.551709 0.054766 0.806424 -0.398379
C90   C     C_3   0.580135 0.902669 0.773513 -0.710470
H41   H     H_    0.619162 0.939358 0.780539 0.236206
H42   H     H_    0.576499 0.769195 0.804137 0.229840
H43   H     H_    0.565353 0.884767 0.709104 0.222543
H44   H     H_    0.513170 0.014585 0.786652 0.197641
H45   H     H_    0.558321 0.188798 0.779126 0.182178
C91   C     C_3   0.448291 0.945234 0.193576 -0.398379
C92   C     C_3   0.419865 0.097331 0.226487 -0.710471
H46   H     H_    0.423501 0.230805 0.195863 0.229840
H47   H     H_    0.380838 0.060642 0.219461 0.236206
H48   H     H_    0.434647 0.115233 0.290895 0.222543
H49   H     H_    0.441679 0.811202 0.220874 0.182178
H50   H     H_    0.486830 0.985415 0.213348 0.197640
C93   C     C_3   0.447926 0.651406 0.685535 -0.395866
C94   C     C_3   0.413979 0.816193 0.688821 -0.710225
H51   H     H_    0.411989 0.905439 0.635629 0.237595
H52   H     H_    0.376930 0.769249 0.693149 0.228069
H53   H     H_    0.428262 0.900486 0.742352 0.221275
H54   H     H_    0.446784 0.557825 0.736389 0.175531
H55   H     H_    0.484507 0.714668 0.692969 0.202168
C95   C     C_3   0.552074 0.348594 0.314465 -0.395866
C96   C     C_3   0.586021 0.183807 0.311179 -0.710226
H56   H     H_    0.623070 0.230751 0.306851 0.228069
H57   H     H_    0.588011 0.094561 0.364371 0.237595
H58   H     H_    0.571738 0.099513 0.257648 0.221275
H59   H     H_    0.515493 0.285331 0.307031 0.202168
H60   H     H_    0.553216 0.442175 0.263611 0.175531

loop_
_geom_bond_atom_site_label_1
_geom_bond_atom_site_label_2
_ccdc_geom_bond_type
O17   V3    S    
C47   C51   A    
N1    C17   A    
C22   C26   A    
C88   H38   S    
C86   H33   S    
O13   V1    S    
C27   H20   S    
O1    C5    A    
O3    C7    A    
C11   C12   D    
C14   C46   A    
C24   O31   S    
C83   C93   S    
C44   C48   A    
O4    V2    S    
O15   V3    S    
C62   C70   A    
C32   H8    S    
C61   C69   A    
C68   C83   A    
C42   C54   A    
O7    C3    A    
C76   H28   S    
C41   C53   A    
C95   C96   S    
C82   C91   S    
C63   C71   A    
O32   C88   S    
N3    C39   S    
C18   C54   A    
N2    C38   S    
C52   H16   S    
C25   C57   A    
C25   H18   S    
C31   C35   A    
O19   V1    S    
C67   C84   A    
C27   C59   A    
O1    V3    S    
C15   C47   A    
C94   H51   S    
C78   H22   S    
O2    V4    S    
C14   O22   S    
C21   C37   A    
O3    V1    S    
C81   C89   S    
C34   C38   A    
C19   C55   A    
C23   O32   S    
C73   C77   A    
C1    O15   A    
C2    O16   A    
C92   H47   S    
C85   H31   S    
O2    C6    A    
C89   H44   S    
C33   C37   A    
C63   C68   A    
O14   V2    S    
C43   C55   A    
C22   O29   S    
C95   H60   S    
C30   C58   A    
C16   N4    A    
O11   C7    A    
C44   C71   A    
O12   C8    A    
C86   H34   S    
C31   C59   A    
C50   H14   S    
O10   V2    S    
C49   H13   S    
C93   H55   S    
C13   N1    A    
C50   C82   A    
O5    V1    S    
C53   C78   A    
C91   H49   S    
O7    V3    S    
C55   C80   A    
C63   C75   A    
C96   H56   S    
O8    V4    S    
C87   H37   S    
C51   C83   A    
C12   H4    S    
C42   C69   A    
C52   C84   A    
C41   C70   A    
C77   H21   S    
C64   C72   A    
O18   V4    S    
C36   H12   S    
C7    C9    S    
C46   C50   A    
O11   V3    S    
C24   C40   A    
C8    C10   S    
C68   C72   A    
C84   C95   S    
C32   C36   A    
C87   H36   S    
C74   C78   A    
C11   H3    S    
C93   C94   S    
C96   H57   S    
O5    C1    A    
C85   H30   S    
C54   C77   A    
C42   C46   A    
C75   C79   A    
O31   C87   S    
C1    C60   S    
C41   C45   A    
O8    C4    A    
C92   H48   S    
C13   C45   A    
C43   C72   A    
C9    C10   D    
C89   H45   S    
O9    C5    A    
C36   C40   A    
C89   C90   S    
C79   H23   S    
C21   C25   A    
C44   C56   A    
C80   H24   S    
C62   C65   A    
C28   C60   A    
O30   C86   S    
C66   C70   A    
C61   C66   A    
C14   N2    A    
C65   C69   A    
C95   H59   S    
C3    C58   S    
C91   C92   S    
O6    V2    S    
C75   H27   S    
C19   O28   S    
C88   H40   S    
C67   C71   A    
C65   C82   A    
C26   C58   A    
C17   C53   A    
C73   H25   S    
N1    C37   S    
C4    C57   S    
C56   C79   A    
C23   C39   A    
C22   C38   A    
O16   V4    S    
O9    V1    S    
C18   O25   S    
C35   H11   S    
C3    O13   A    
C10   H2    S    
C48   C52   A    
C17   O26   S    
C16   C48   A    
O6    C2    A    
C34   H10   S    
C64   C76   A    
C5    C11   S    
C31   H7    S    
O12   V4    S    
C6    C12   S    
C21   O30   S    
C32   C60   A    
C23   C27   A    
C94   H53   S    
C76   C80   A    
N4    C40   S    
C24   C28   A    
C87   H35   S    
O10   C6    A    
O20   V2    S    
C30   H6    S    
C96   H58   S    
C29   H5    S    
N2    C18   A    
O29   C85   S    
C62   C74   A    
C35   C39   A    
C15   N3    A    
C30   C34   A    
C90   H42   S    
C2    C59   S    
O4    C8    A    
C29   C33   A    
C29   C57   A    
C66   C81   A    
C94   H52   S    
N3    C19   A    
C74   H26   S    
C26   H17   S    
C9    H1    S    
C20   O27   S    
C91   H50   S    
C43   C47   A    
N4    C20   A    
C20   C56   A    
C51   H15   S    
C88   H39   S    
C92   H46   S    
C90   H41   S    
C4    O14   A    
C86   H32   S    
C13   O21   S    
C85   H29   S    
C61   C73   A    
C93   H54   S    
C15   O23   S    
C90   H43   S    
C64   C67   A    
C45   C49   A    
C16   O24   S    
C49   C81   A    
C33   H9    S    
C28   H19   S    
