data_mof_unit_25674.cif
_audit_creation_date              2012-12-11T17:02:15-0500
_audit_creation_method            fapswitch 2.2
_symmetry_space_group_name_H-M    P1
_symmetry_Int_Tables_number       1
_space_group_crystal_system       triclinic
_cell_length_a                    21.648816
_cell_length_b                    7.072137
_cell_length_c                    14.838636
_cell_angle_alpha                 89.701593
_cell_angle_beta                  105.943202
_cell_angle_gamma                 89.902889
_cell_volume                      2184.41659588

loop_
_atom_site_label
_atom_site_type_symbol
_atom_type_description
_atom_site_fract_x
_atom_site_fract_y
_atom_site_fract_z
_atom_type_partial_charge
O1    O     O_R   0.585850 0.505770 0.002130 -0.540960
O2    O     O_R   0.414150 0.005770 0.997870 -0.538489
O3    O     O_R   0.467530 0.173560 0.861970 -0.545350
O4    O     O_R   0.532470 0.673560 0.138030 -0.548062
C1    C     C_R   0.455518 0.344933 0.825397 0.768084
C2    C     C_R   0.544514 0.843625 0.174736 0.760416
O5    O     O_R   0.588690 0.175900 0.993250 -0.541456
O6    O     O_R   0.411310 0.675900 0.006750 -0.543022
O7    O     O_R   0.536170 0.007950 0.130090 -0.520046
O8    O     O_R   0.463830 0.507950 0.869910 -0.529743
C3    C     C_R   0.615062 0.344531 0.997716 0.702083
C4    C     C_R   0.384927 0.844728 0.002229 0.696266
O9    O     O_3   0.482630 0.339970 0.044740 -0.377663
O10   O     O_3   0.517370 0.839970 0.955260 -0.380481
V1    V     V_3+5 0.503220 0.064200 0.991700 1.466576
V2    V     V_3+5 0.496780 0.564200 0.008300 1.456745
C5    C     C_R   0.292180 0.009728 0.041112 0.092213
C6    C     C_R   0.707595 0.510296 0.958590 0.089756
C7    C     C_R   0.316999 0.852875 0.005262 -0.107042
C8    C     C_R   0.682976 0.352621 0.994571 -0.107246
C9    C     C_R   0.275028 0.700018 0.974095 -0.156281
C10   C     C_R   0.725197 0.199340 0.025997 -0.150366
H1    H     H_    0.291865 0.575761 0.945924 0.166976
H2    H     H_    0.708544 0.074439 0.054260 0.164625
C11   C     C_R   0.209680 0.711606 0.972470 -0.184072
C12   C     C_R   0.790562 0.211243 0.027776 -0.185982
H3    H     H_    0.178342 0.594776 0.944085 0.138004
H4    H     H_    0.822067 0.093873 0.056293 0.135518
C13   C     C_R   0.184178 0.877010 0.001345 -0.107628
C14   C     C_R   0.815842 0.377392 0.998802 -0.105088
C15   C     C_R   0.227558 0.021483 0.039253 0.110569
C16   C     C_R   0.772219 0.522331 0.960563 0.107999
C17   C     C_3   0.224502 0.227031 0.016001 -0.421266
C18   C     C_3   0.774859 0.727526 0.983362 -0.422138
C19   C     C_3   0.295000 0.214228 0.018236 -0.396575
C20   C     C_3   0.704351 0.714465 0.980989 -0.396830
H5    H     H_    0.215873 0.314699 0.073358 0.168265
H6    H     H_    0.783384 0.816137 0.925862 0.168480
H7    H     H_    0.192351 0.257395 0.944947 0.178374
H8    H     H_    0.806889 0.756893 0.054392 0.176174
H9    H     H_    0.327049 0.294378 0.076934 0.167534
H10   H     H_    0.672200 0.795413 0.922063 0.168473
H11   H     H_    0.303683 0.237536 0.948543 0.206241
H12   H     H_    0.695543 0.736691 0.050576 0.193384
C21   C     C_R   0.927410 0.887355 0.723557 -0.030683
C22   C     C_R   0.072360 0.379369 0.276265 -0.030747
C23   C     C_R   0.572771 0.845835 0.276298 -0.116950
C24   C     C_R   0.426707 0.353626 0.724193 -0.115043
C25   C     C_R   0.939116 0.912151 0.566923 -0.157097
C26   C     C_R   0.060694 0.312991 0.430308 -0.156413
C27   C     C_R   0.966340 0.911377 0.663486 -0.175761
C28   C     C_R   0.033333 0.338944 0.334606 -0.176916
C29   C     C_R   0.861015 0.866223 0.687248 -0.210316
C30   C     C_R   0.138900 0.393863 0.313429 -0.211260
C31   C     C_R   0.831898 0.867481 0.589299 0.082659
C32   C     C_R   0.168273 0.362595 0.410079 0.082493
C33   C     C_R   0.872499 0.890969 0.529476 0.143664
C34   C     C_R   0.127577 0.323362 0.468320 0.142344
C35   C     C_R   0.764133 0.847334 0.548955 0.052923
C36   C     C_R   0.236404 0.365854 0.450400 0.052248
C37   C     C_R   0.737787 0.861506 0.449420 0.074263
C38   C     C_R   0.262347 0.342581 0.549526 0.072786
C39   C     C_R   0.780898 0.873681 0.393328 -0.123698
C40   C     C_R   0.219769 0.295636 0.603235 -0.121479
C41   C     C_R   0.846615 0.890413 0.432666 -0.237525
C42   C     C_R   0.153877 0.288537 0.563552 -0.236297
C43   C     C_R   0.722167 0.807565 0.604568 -0.183172
C44   C     C_R   0.279485 0.383690 0.394533 -0.182442
C45   C     C_R   0.656997 0.781037 0.564719 -0.167913
C46   C     C_R   0.345435 0.378206 0.433767 -0.169103
C47   C     C_R   0.630308 0.800876 0.468496 0.077631
C48   C     C_R   0.371364 0.364215 0.530411 0.076825
C49   C     C_R   0.669547 0.850908 0.409422 -0.026714
C50   C     C_R   0.330367 0.355494 0.590496 -0.026153
C51   C     C_R   0.564328 0.768867 0.430929 -0.162236
C52   C     C_R   0.438397 0.359867 0.567356 -0.161611
C53   C     C_R   0.536295 0.784903 0.335062 -0.271857
C54   C     C_R   0.465815 0.349893 0.663650 -0.280193
C55   C     C_R   0.638188 0.886748 0.313127 0.527296
C56   C     C_R   0.359732 0.362647 0.688744 0.526311
H13   H     H_    0.877623 0.901162 0.386570 0.127747
H14   H     H_    0.123222 0.251862 0.607770 0.127500
H15   H     H_    0.485897 0.751202 0.306603 0.130204
H16   H     H_    0.517613 0.343552 0.691115 0.128411
H17   H     H_    0.627045 0.744789 0.610025 0.118682
H18   H     H_    0.376564 0.386910 0.387768 0.117987
H19   H     H_    0.970177 0.930210 0.521338 0.115804
H20   H     H_    0.029602 0.281218 0.474513 0.116637
H21   H     H_    0.017732 0.929634 0.691422 0.106158
H22   H     H_    0.981813 0.325773 0.305853 0.106804
H23   H     H_    0.833658 0.854265 0.737663 0.092183
H24   H     H_    0.166057 0.427825 0.264614 0.092989
H25   H     H_    0.765951 0.860980 0.318327 0.202807
H26   H     H_    0.235953 0.252568 0.675525 0.203730
H27   H     H_    0.738343 0.788461 0.679384 0.118520
H28   H     H_    0.263977 0.394745 0.319301 0.117843
H29   H     H_    0.534647 0.726421 0.475627 0.130435
H30   H     H_    0.469690 0.363113 0.521509 0.130577
O11   O     O_R   0.036080 0.231270 0.130120 -0.537828
O12   O     O_R   0.963920 0.731270 0.869880 -0.537826
O13   O     O_R   0.911300 0.558970 0.006750 -0.541018
O14   O     O_R   0.088700 0.058970 0.993250 -0.540656
C57   C     C_R   0.884880 0.390031 0.001989 0.689267
C58   C     C_R   0.115127 0.889827 0.998050 0.690344
O15   O     O_R   0.032450 0.561140 0.138040 -0.539639
O16   O     O_R   0.967550 0.061140 0.861960 -0.539481
O17   O     O_R   0.085870 0.728910 0.002130 -0.541218
O18   O     O_R   0.914130 0.228910 0.997870 -0.540884
C59   C     C_R   0.044612 0.391802 0.174981 0.692447
C60   C     C_R   0.955286 0.893159 0.824968 0.693038
O19   O     O_3   0.017320 0.394650 0.955270 -0.373704
O20   O     O_3   0.982680 0.894650 0.044730 -0.374169
V3    V     V_3+5 0.996780 0.670490 0.008300 1.412538
V4    V     V_3+5 0.003220 0.170490 0.991700 1.413959
F1    F     F_    0.668721 0.967259 0.254158 -0.730760
F2    F     F_    0.325375 0.392331 0.751374 -0.736255

loop_
_geom_bond_atom_site_label_1
_geom_bond_atom_site_label_2
_ccdc_geom_bond_type
C14   C16   A    
C39   C41   A    
O12   C60   A    
C55   F1    S    
O13   V3    S    
C25   H19   S    
C28   H22   S    
O1    C3    A    
C23   C55   A    
C48   C52   A    
O2    C4    A    
O11   V4    S    
O20   V4    S    
O3    V1    S    
O5    C3    A    
C44   H28   S    
O16   V4    S    
C18   H8    S    
O15   V3    S    
C7    C9    A    
C52   C54   A    
C31   C35   A    
C17   C19   S    
C53   H15   S    
O18   V4    S    
O11   C59   A    
C22   C28   A    
C51   H29   S    
C25   C33   A    
C36   C38   A    
C24   C54   A    
C45   C47   A    
O17   V3    S    
C38   C40   A    
C35   C43   A    
C20   H10   S    
C34   C42   A    
C56   F2    S    
C25   C27   A    
C14   C57   S    
C29   H23   S    
C26   C28   A    
C15   C17   S    
C57   O18   A    
C19   H11   S    
C18   C20   S    
C26   H20   S    
O5    V1    S    
C21   C29   A    
O6    V2    S    
C50   C56   A    
C43   H27   S    
C2    O7    A    
O20   V3    S    
C22   C59   S    
C29   C31   A    
C11   C13   A    
C1    C24   S    
C30   C32   A    
C3    C8    S    
C35   C37   A    
C2    C23   S    
C26   C34   A    
C48   C50   A    
C47   C49   A    
C21   C60   S    
C37   C49   A    
C17   H5    S    
C32   C36   A    
C13   C58   S    
C43   C45   A    
C40   C42   A    
O4    V2    S    
C30   H24   S    
O14   V4    S    
C42   H14   S    
C41   H13   S    
O6    C4    A    
C22   C30   A    
C37   C39   A    
C49   C55   A    
O19   V3    S    
O1    V2    S    
C17   H7    S    
O14   C58   A    
O2    V1    S    
C51   C53   A    
O4    C2    A    
C8    C10   A    
C12   C14   A    
C31   C33   A    
C5    C15   A    
C10   H2    S    
C20   H12   S    
C6    C16   A    
C23   C53   A    
C46   H18   S    
C45   H17   S    
O16   C60   A    
C9    C11   A    
C18   H6    S    
O12   V3    S    
C33   C41   A    
O3    C1    A    
C11   H3    S    
C39   H25   S    
C12   H4    S    
C24   C56   A    
C9    H1    S    
O7    V1    S    
C40   H26   S    
C1    O8    A    
C13   C15   A    
O8    V2    S    
C27   H21   S    
C47   C51   A    
C6    C20   S    
O15   C59   A    
C4    C7    S    
C5    C7    A    
C32   C34   A    
O19   V4    S    
C6    C8    A    
C19   H9    S    
C54   H16   S    
C36   C44   A    
O13   C57   A    
C10   C12   A    
O9    V2    S    
C44   C46   A    
C21   C27   A    
O10   V1    S    
C38   C50   A    
C46   C48   A    
C5    C19   S    
C52   H30   S    
C58   O17   A    
C16   C18   S    
