data_mof_unit_52941.cif
_audit_creation_date              2013-03-05T16:05:42-0500
_audit_creation_method            fapswitch 2.2
_symmetry_space_group_name_H-M    P1
_symmetry_Int_Tables_number       1
_space_group_crystal_system       triclinic
_cell_length_a                    26.219189
_cell_length_b                    7.294506
_cell_length_c                    23.788312
_cell_angle_alpha                 90.001425
_cell_angle_beta                  101.401079
_cell_angle_gamma                 89.996745
_cell_volume                      4459.88179385

loop_
_atom_site_label
_atom_site_type_symbol
_atom_site_description
_atom_site_fract_x
_atom_site_fract_y
_atom_site_fract_z
_atom_type_partial_charge
O1    O     O_R   0.547620 0.505720 0.453310 -0.587248
O2    O     O_R   0.452380 0.005720 0.546690 -0.587600
O3    O     O_R   0.442260 0.172470 0.436770 -0.569969
O4    O     O_R   0.557740 0.672470 0.563230 -0.570103
C1    C     C_R   0.075875 0.468399 0.078407 0.942122
C2    C     C_R   0.924127 0.968403 0.921591 0.942273
C3    C     C_R   0.424290 0.344131 0.421931 0.940447
C4    C     C_R   0.575713 0.844126 0.578066 0.937381
O5    O     O_R   0.546600 0.175780 0.446490 -0.584784
O6    O     O_R   0.453400 0.675780 0.553510 -0.586416
O7    O     O_R   0.557460 0.008970 0.556480 -0.575298
O8    O     O_R   0.442540 0.508970 0.443520 -0.583508
C5    C     C_R   0.562010 0.344573 0.434385 0.958816
C6    C     C_R   0.437990 0.844580 0.565614 0.953077
O9    O     O_R   0.047630 0.803580 0.953300 -0.589765
O10   O     O_R   0.952370 0.303580 0.046700 -0.589757
O11   O     O_3   0.503440 0.340340 0.536080 -0.280391
O12   O     O_3   0.496560 0.840340 0.463920 -0.282451
V1    V     V_3+5 0.499360 0.064140 0.493310 1.224816
V2    V     V_3+5 0.500640 0.564140 0.506690 1.221976
O13   O     O_R   0.057730 0.636870 0.063240 -0.565065
O14   O     O_R   0.942270 0.136870 0.936760 -0.564982
O15   O     O_3   0.996540 0.468950 0.963950 -0.281274
O16   O     O_3   0.003460 0.968950 0.036050 -0.281263
C7    C     C_R   0.116491 0.781787 0.878081 -0.105506
C8    C     C_R   0.883503 0.281843 0.121917 -0.105424
H1    H     H_    0.101816 0.655571 0.892835 0.142704
H2    H     H_    0.898160 0.155614 0.107146 0.142680
C9    C     C_R   0.152180 0.769716 0.841607 -0.093448
C10   C     C_R   0.847820 0.269806 0.158399 -0.093735
H3    H     H_    0.163870 0.635637 0.829165 0.129902
H4    H     H_    0.836115 0.135738 0.170829 0.129848
C11   C     C_R   0.172294 0.928714 0.820901 0.191184
C12   C     C_R   0.827727 0.428823 0.179126 0.191052
C13   C     C_R   0.156446 0.100555 0.838043 -0.037686
C14   C     C_R   0.843591 0.600649 0.161999 -0.037397
H5    H     H_    0.172027 0.225258 0.823331 0.123694
H6    H     H_    0.828026 0.725367 0.176727 0.123685
C15   C     C_R   0.120624 0.112977 0.874563 -0.126488
C16   C     C_R   0.879406 0.613036 0.125471 -0.126584
H7    H     H_    0.109332 0.247643 0.886861 0.138576
H8    H     H_    0.890711 0.747693 0.113184 0.138586
C17   C     C_R   0.100061 0.953583 0.895119 -0.134364
C18   C     C_R   0.899947 0.453624 0.104891 -0.134380
C19   C     C_R   0.204057 0.005636 0.729211 0.348078
C20   C     C_R   0.795962 0.505722 0.270823 0.350209
C21   C     C_R   0.243304 0.994021 0.696743 -0.168859
C22   C     C_R   0.756708 0.494134 0.303284 -0.175752
H9    H     H_    0.237902 0.061941 0.655468 0.198407
H10   H     H_    0.762113 0.561994 0.344570 0.195722
C23   C     C_R   0.289012 0.893301 0.715969 -0.063119
C24   C     C_R   0.710992 0.393496 0.284039 -0.061837
C25   C     C_R   0.295469 0.798472 0.768825 0.425235
C26   C     C_R   0.704527 0.298778 0.231164 0.426185
C27   C     C_R   0.256075 0.809634 0.801196 -0.277588
C28   C     C_R   0.743927 0.309888 0.198803 -0.278136
H11   H     H_    0.261419 0.740641 0.842280 0.192671
H12   H     H_    0.738573 0.240958 0.157707 0.192719
C29   C     C_R   0.210813 0.914099 0.782676 -0.119603
C30   C     C_R   0.789203 0.414244 0.217346 -0.119627
C31   C     C_R   0.329616 0.726869 0.644566 -0.048983
C32   C     C_R   0.670408 0.226986 0.355441 -0.063593
H13   H     H_    0.302302 0.616293 0.645516 0.190433
H14   H     H_    0.697745 0.116464 0.354501 0.189434
C33   C     C_R   0.365840 0.712047 0.608756 -0.058141
C34   C     C_R   0.634182 0.212103 0.391249 -0.067246
H15   H     H_    0.365860 0.589597 0.583007 0.157698
H16   H     H_    0.634183 0.089663 0.417005 0.157805
C35   C     C_R   0.400624 0.855863 0.605086 -0.203575
C36   C     C_R   0.599373 0.355861 0.394910 -0.201506
C37   C     C_R   0.398939 0.013402 0.638809 -0.258590
C38   C     C_R   0.601034 0.513390 0.361181 -0.260179
H17   H     H_    0.426014 0.124137 0.636901 0.200822
H18   H     H_    0.573941 0.624080 0.363085 0.201079
C39   C     C_R   0.363467 0.028040 0.675825 0.574731
C40   C     C_R   0.636507 0.528090 0.324170 0.574757
C41   C     C_R   0.328097 0.883441 0.678516 -0.055100
C42   C     C_R   0.671904 0.383560 0.321486 -0.051032
C43   C     C_3   0.757307 0.769643 0.804807 0.307131
C44   C     C_3   0.242733 0.269619 0.195136 0.301202
C45   C     C_3   0.762570 0.103926 0.777558 0.369793
C46   C     C_3   0.237463 0.603890 0.222347 0.385811
C47   C     C_3   0.717995 0.083169 0.724274 -0.437437
C48   C     C_3   0.282009 0.583187 0.275646 -0.467949
H19   H     H_    0.788996 0.212651 0.768646 0.204733
H20   H     H_    0.211023 0.712640 0.231236 0.202875
H21   H     H_    0.681723 0.148206 0.731319 0.262418
H22   H     H_    0.318276 0.648491 0.268695 0.266821
H23   H     H_    0.727058 0.168208 0.689758 0.267701
H24   H     H_    0.272761 0.668062 0.310081 0.245729
C49   C     C_1   0.621870 0.852821 0.623195 -0.181244
C50   C     C_1   0.378154 0.352830 0.376777 -0.199615
C51   C     C_3   0.794935 0.921600 0.788782 -0.495133
C52   C     C_3   0.205106 0.421582 0.211170 -0.494713
C53   C     C_3   0.703764 0.765069 0.759712 0.064673
C54   C     C_3   0.296300 0.265141 0.240203 0.082062
C55   C     C_3   0.709969 0.879382 0.704780 -0.288486
C56   C     C_3   0.290089 0.379387 0.295149 -0.274472
C57   C     C_3   0.760835 0.815547 0.680396 0.395169
C58   C     C_3   0.239254 0.315549 0.319566 0.364858
C59   C     C_3   0.813298 0.867844 0.729263 0.431019
C60   C     C_3   0.186782 0.367907 0.270723 0.434563
C61   C     C_1   0.661214 0.862755 0.660028 0.288586
C62   C     C_1   0.338835 0.362759 0.339912 0.244337
C63   C     C_1   0.841279 0.945492 0.836466 0.372298
C64   C     C_1   0.158745 0.445465 0.163506 0.369179
C65   C     C_1   0.879035 0.958693 0.875249 -0.132334
C66   C     C_1   0.120977 0.458678 0.124737 -0.130948
H25   H     H_    0.775267 0.640918 0.796737 0.173124
H26   H     H_    0.224790 0.140897 0.203234 0.174047
H27   H     H_    0.695533 0.623690 0.744531 0.161532
H28   H     H_    0.304594 0.123770 0.255354 0.159819
V3    V     V_3+5 0.000640 0.745210 0.006690 1.224912
V4    V     V_3+5 0.999360 0.245210 0.993310 1.224960
O17   O     O_R   0.057440 0.306950 0.056520 -0.578672
O18   O     O_R   0.942560 0.806950 0.943480 -0.578726
O19   O     O_R   0.953390 0.633680 0.053510 -0.592213
O20   O     O_R   0.046610 0.133680 0.946490 -0.592217
C67   C     C_R   0.937796 0.464801 0.065605 0.928574
C68   C     C_R   0.062206 0.964791 0.934397 0.928558
S1    S     S_3+6 0.365849 0.224392 0.719976 0.007540
O21   O     O_2   0.314149 0.320230 0.708040 -0.300967
O22   O     O_2   0.377728 0.165133 0.781724 -0.199506
O23   O     O_3   0.412124 0.370352 0.707583 -0.529392
H29   H     H_    0.427639 0.422940 0.745476 0.421589
S2    S     S_3+6 0.634098 0.724459 0.280028 0.007227
O24   O     O_2   0.685777 0.820411 0.291996 -0.302579
O25   O     O_2   0.622240 0.665246 0.218277 -0.198451
O26   O     O_3   0.587776 0.870236 0.292408 -0.528687
H30   H     H_    0.572945 0.925391 0.254689 0.422148
N1    N     N_R   0.657191 0.809763 0.783550 0.309641
O27   O     O_R   0.627645 0.949105 0.765130 -0.334835
O28   O     O_R   0.635890 0.678869 0.808060 -0.241146
N2    N     N_R   0.342839 0.310108 0.216342 0.309422
O29   O     O_R   0.372376 0.449409 0.234825 -0.332071
O30   O     O_R   0.364130 0.179445 0.191721 -0.241683
S3    S     S_3+6 0.759778 0.731157 0.881860 0.078727
O31   O     O_2   0.770742 0.900589 0.917827 -0.237767
O32   O     O_2   0.711445 0.643288 0.894157 -0.126567
O33   O     O_3   0.810119 0.589250 0.904655 -0.527624
H31   H     H_    0.812949 0.580487 0.946722 0.371567
S4    S     S_3+6 0.240214 0.231064 0.118079 0.078289
O34   O     O_2   0.229259 0.400493 0.082109 -0.237632
O35   O     O_2   0.288517 0.143047 0.105746 -0.126719
O36   O     O_3   0.189842 0.089267 0.095324 -0.527385
H32   H     H_    0.186973 0.080517 0.053251 0.371575
S5    S     S_3+6 0.738195 0.203985 0.836353 0.068697
O37   O     O_2   0.782679 0.241863 0.885224 -0.228893
O38   O     O_2   0.712941 0.381085 0.815126 -0.259617
O39   O     O_3   0.692808 0.078885 0.859582 -0.398527
H33   H     H_    0.681254 0.155916 0.889005 0.408997
S6    S     S_3+6 0.261845 0.703920 0.163554 0.068299
O40   O     O_2   0.217356 0.741891 0.114698 -0.229657
O41   O     O_2   0.287119 0.880976 0.184796 -0.260015
O42   O     O_3   0.307211 0.578798 0.140287 -0.399061
H34   H     H_    0.318757 0.655844 0.110865 0.409107
S7    S     S_3+6 0.862126 0.680415 0.740912 0.094714
O43   O     O_2   0.867650 0.603175 0.683850 -0.088880
O44   O     O_2   0.914473 0.755497 0.768944 -0.250230
O45   O     O_3   0.849489 0.505391 0.782142 -0.477345
H35   H     H_    0.868520 0.533841 0.821423 0.367505
S8    S     S_3+6 0.137938 0.180561 0.259095 0.094962
O46   O     O_2   0.132349 0.103545 0.316161 -0.086985
O47   O     O_2   0.085617 0.255692 0.230988 -0.251174
O48   O     O_3   0.150607 0.005354 0.217950 -0.477388
H36   H     H_    0.131566 0.033587 0.178656 0.367634
S9    S     S_3+6 0.852727 0.058254 0.708054 0.095634
O49   O     O_2   0.821043 0.216797 0.680712 -0.166143
O50   O     O_2   0.889711 0.130871 0.759694 -0.258129
O51   O     O_3   0.889482 0.982775 0.662278 -0.376222
H37   H     H_    0.910303 0.090307 0.654959 0.403060
S10   S     S_3+6 0.147406 0.558374 0.291978 0.099024
O52   O     O_2   0.179151 0.716697 0.319384 -0.156970
O53   O     O_2   0.110455 0.631252 0.240353 -0.260172
O54   O     O_3   0.110621 0.482913 0.337723 -0.375125
H38   H     H_    0.089759 0.590410 0.344988 0.404943
N3    N     N_R   0.758652 0.612906 0.669252 0.250787
O55   O     O_R   0.762653 0.545931 0.619536 -0.217333
O56   O     O_R   0.758810 0.493843 0.709604 -0.430673
N4    N     N_R   0.241389 0.112876 0.330680 0.250043
O57   O     O_R   0.236974 0.045823 0.380255 -0.201900
O58   O     O_R   0.241409 0.993865 0.290351 -0.434293
S11   S     S_3+6 0.757978 0.919632 0.607793 0.060291
O59   O     O_2   0.807835 0.881299 0.587955 -0.138313
O60   O     O_2   0.715185 0.827166 0.565907 -0.295303
O61   O     O_3   0.745131 0.145038 0.600753 -0.478245
H39   H     H_    0.745432 0.173472 0.560100 0.392995
S12   S     S_3+6 0.242215 0.419564 0.392225 0.080711
O62   O     O_2   0.192350 0.382084 0.412094 -0.097729
O63   O     O_2   0.284566 0.325372 0.434310 -0.302112
O64   O     O_3   0.254968 0.645273 0.399678 -0.435670
H40   H     H_    0.293046 0.655206 0.413752 0.342770
N5    N     N_R   0.157185 0.105209 0.706279 0.240120
O65   O     O_R   0.158691 0.245407 0.672810 -0.325034
O66   O     O_R   0.112137 0.043447 0.712742 -0.325995
N6    N     N_R   0.842844 0.605198 0.293775 0.239653
O67   O     O_R   0.841353 0.745335 0.327274 -0.328713
O68   O     O_R   0.887885 0.543395 0.287297 -0.326700
N7    N     N_R   0.341609 0.693035 0.790771 0.266065
O69   O     O_R   0.386409 0.739357 0.779418 -0.329178
O70   O     O_R   0.340024 0.560429 0.826991 -0.296495
N8    N     N_R   0.658365 0.193540 0.209189 0.265745
O71   O     O_R   0.613549 0.240372 0.220398 -0.329269
O72   O     O_R   0.659946 0.060728 0.173036 -0.296768

loop_
_geom_bond_atom_site_label_1
_geom_bond_atom_site_label_2
_geom_bond_distance
_ccdc_geom_bond_type
C34   H16   1.083096 S    
O48   H36   0.990392 S    
C46   C52   1.571576 S    
C54   N2    1.480718 S    
C27   C29   1.405820 A    
C38   H18   1.082244 S    
C40   S2    1.769827 S    
C47   H21   1.104788 S    
S5    O37   1.500701 D    
C43   C51   1.579915 S    
C38   C40   1.405491 A    
C7    C17   1.410394 A    
V4    O17   1.969149 S    
C8    C18   1.410388 A    
C15   H7    1.082775 S    
C5    C36   1.487246 S    
S10   O52   1.495691 D    
C63   C65   1.216294 T    
O7    V1    1.958462 S    
S7    O43   1.502887 D    
N8    O72   1.301531 A    
S12   O64   1.682435 S    
C13   H5    1.083246 S    
C40   C42   1.414289 A    
C57   N3    1.500836 S    
O3    C3    1.359689 A    
S11   O60   1.504902 D    
C11   C13   1.406086 A    
C56   C62   1.498007 S    
O51   H37   0.990579 S    
C2    O14   1.341203 A    
C9    C11   1.403109 A    
O11   V2    1.771730 S    
O9    C68   1.341319 A    
C7    C9    1.398982 A    
S12   O63   1.505921 D    
O12   V1    1.771706 S    
C31   H13   1.081880 S    
O5    C5    1.344712 A    
S1    O23   1.683488 S    
C32   H14   1.081880 S    
C51   C63   1.499529 S    
O5    V1    1.995828 S    
S4    O34   1.498320 D    
C19   C29   1.416249 A    
S10   O53   1.503000 D    
N3    O56   1.293917 A    
C54   C56   1.585420 S    
S2    O25   1.503492 D    
C2    C65   1.450096 S    
O9    V3    1.982669 S    
O3    V1    1.969427 S    
O6    V2    1.995748 S    
C44   C54   1.589865 S    
C16   C18   1.409262 A    
C57   S11   1.874525 S    
S10   O54   1.682972 S    
O4    C4    1.359702 A    
C17   C68   1.493812 S    
V3    O18   1.969125 S    
C19   C21   1.405982 A    
C59   S7    1.855964 S    
O16   V3    1.771007 S    
S7    O44   1.505514 D    
C37   C39   1.405515 A    
C1    O17   1.338735 A    
C12   C30   1.490386 S    
C58   S12   1.875106 S    
S4    O36   1.680661 S    
C48   H24   1.091620 S    
C24   C42   1.486643 S    
C58   C60   1.660314 S    
C45   C47   1.552356 S    
C24   C26   1.415564 A    
C45   H19   1.100993 S    
O36   H32   0.990782 S    
S9    O51   1.682963 S    
S8    O47   1.505513 D    
C25   C27   1.407439 A    
C60   S10   1.859572 S    
C3    O8    1.356990 A    
C47   H23   1.092063 S    
S3    O33   1.680651 S    
C20   C22   1.406023 A    
S5    O38   1.493343 D    
C35   C37   1.407151 A    
N8    O71   1.300884 A    
C10   C12   1.403119 A    
O64   H40   0.990944 S    
C25   N7    1.441439 S    
C14   C16   1.402735 A    
S5    O39   1.677604 S    
O33   H31   0.990783 S    
C21   H9    1.083809 S    
O6    C6    1.344702 A    
O10   C67   1.341330 A    
C51   C59   1.630840 S    
S9    O49   1.495653 D    
C37   H17   1.082248 S    
C43   H25   1.084421 S    
N2    O30   1.300887 A    
S2    O26   1.683375 S    
C33   H15   1.083099 S    
C26   N8    1.441339 S    
C53   N1    1.480764 S    
C28   C30   1.405807 A    
S9    O50   1.502997 D    
S12   O62   1.500623 D    
C23   C25   1.415626 A    
C19   N5    1.438868 S    
C13   C15   1.402730 A    
S11   O59   1.501181 D    
C23   C41   1.486623 S    
C43   C53   1.589759 S    
C36   C38   1.407120 A    
S8    O48   1.682306 S    
C45   C51   1.571805 S    
C4    O7    1.356991 A    
O54   H38   0.990583 S    
S6    O42   1.677592 S    
O14   V4    1.969456 S    
C60   S8    1.855880 S    
O8    V2    1.958487 S    
N5    O66   1.301338 A    
C4    C49   1.451700 S    
V4    O20   1.995612 S    
C22   H10   1.083808 S    
S3    O32   1.499666 D    
C2    O18   1.338737 A    
S1    O21   1.501514 D    
C55   C61   1.498045 S    
N3    O55   1.302821 A    
V3    O19   1.995690 S    
O13   V3    1.969417 S    
C43   S3    1.842774 S    
S6    O41   1.493384 D    
C8    C10   1.398991 A    
S7    O45   1.682346 S    
C46   C48   1.552109 S    
C27   H11   1.083498 S    
C6    C35   1.487238 S    
S4    O35   1.499662 D    
S11   O61   1.680068 S    
O1    C5    1.339356 A    
C44   C52   1.579913 S    
N1    O27   1.300384 A    
C58   N4    1.500951 S    
C14   H6    1.083248 S    
N4    O57   1.302834 A    
S8    O46   1.502871 D    
C31   C41   1.403900 A    
C52   C64   1.499540 S    
O1    V2    1.982327 S    
C55   C57   1.624115 S    
N4    O58   1.293899 A    
C20   C30   1.416283 A    
O2    V1    1.982367 S    
C39   S1    1.769875 S    
C8    H2    1.082728 S    
C32   C42   1.403925 A    
C48   H22   1.104833 S    
C49   C61   1.216459 T    
N6    O67   1.301452 A    
N1    O28   1.300899 A    
O10   V4    1.982625 S    
C21   C23   1.402991 A    
C53   C55   1.585392 S    
C26   C28   1.407388 A    
C20   N6    1.438870 S    
N2    O29   1.300399 A    
C7    H1    1.082729 S    
C59   S9    1.859805 S    
S3    O31   1.498315 D    
C44   S4    1.842754 S    
C18   C67   1.493824 S    
C48   C56   1.559271 S    
O45   H35   0.990393 S    
O19   C67   1.346883 A    
O26   H30   0.990086 S    
C9    H3    1.083480 S    
C46   H20   1.101125 S    
O15   V4    1.771032 S    
C10   H4    1.083481 S    
C45   S5    1.802948 S    
C34   C36   1.404118 A    
C64   C66   1.216294 T    
S2    O24   1.501518 D    
C33   C35   1.404113 A    
C3    C50   1.451659 S    
C16   H8    1.082773 S    
C54   H28   1.099839 S    
C12   C14   1.406080 A    
C28   H12   1.083503 S    
N7    O69   1.300893 A    
O2    C6    1.339364 A    
C56   C58   1.623838 S    
O20   C68   1.346888 A    
S1    O22   1.503528 D    
N6    O68   1.301337 A    
C32   C34   1.399780 A    
C50   C62   1.216412 T    
O4    V2    1.969465 S    
C31   C33   1.399741 A    
C22   C24   1.402990 A    
C1    O13   1.341203 A    
S6    O40   1.500701 D    
C52   C60   1.631025 S    
C11   C29   1.490380 S    
N5    O65   1.301453 A    
C47   C55   1.559007 S    
C39   C41   1.414311 A    
C44   H26   1.084422 S    
O42   H34   0.990541 S    
N7    O70   1.301534 A    
O39   H33   0.990541 S    
C53   H27   1.099879 S    
O61   H39   0.990626 S    
C15   C17   1.409255 A    
C57   C59   1.660368 S    
C46   S6    1.802959 S    
O23   H29   0.990062 S    
C1    C66   1.450101 S    
