data_mof_unit_37431.cif
_audit_creation_date              2013-03-05T16:10:21-0500
_audit_creation_method            fapswitch 2.2
_symmetry_space_group_name_H-M    P1
_symmetry_Int_Tables_number       1
_space_group_crystal_system       triclinic
_cell_length_a                    8.177499
_cell_length_b                    15.210121
_cell_length_c                    18.752768
_cell_angle_alpha                 101.982518
_cell_angle_beta                  91.135758
_cell_angle_gamma                 99.25405
_cell_volume                      2248.5426135

loop_
_atom_site_label
_atom_site_type_symbol
_atom_site_description
_atom_site_fract_x
_atom_site_fract_y
_atom_site_fract_z
_atom_type_partial_charge
P1    P     P_3+3 0.039430 0.410940 0.333230 0.456497
O1    O     O_2   0.871960 0.437280 0.322960 -0.369880
O2    O     O_3   0.121410 0.444460 0.412450 -0.406853
O3    O     O_3   0.661450 0.607570 0.372550 -0.352390
O4    O     O_2   0.750874 0.523367 0.245960 -0.384279
O5    O     O_3   0.998958 0.292017 0.307141 -0.573142
O6    O     O_3   0.750861 0.694190 0.255871 -0.488496
H1    H     H_    0.619614 0.781002 0.322648 0.093846
C1    C     C_3   0.740127 0.843170 0.238711 -0.604740
H2    H     H_    0.856358 0.871749 0.273113 0.224458
H3    H     H_    0.773967 0.821121 0.181398 0.213372
P2    P     P_3+3 0.676770 0.715000 0.563590 0.480994
P3    P     P_3+3 0.128695 0.771633 0.410831 0.482555
O7    O     O_2   0.852310 0.726980 0.542430 -0.386994
O8    O     O_3   0.084010 0.657370 0.410280 -0.378271
O9    O     O_2   0.000026 0.818563 0.456943 -0.355490
O10   O     O_3   0.690775 0.755334 0.658055 -0.575997
O11   O     O_3   0.087078 0.784083 0.321943 -0.509738
C2    C     C_3   0.162762 0.721483 0.273355 0.497611
H4    H     H_    0.089985 0.651766 0.267164 0.130131
H5    H     H_    0.292540 0.721949 0.292369 -0.032291
C3    C     C_3   0.166186 0.747113 0.199135 -0.932406
H6    H     H_    0.226224 0.698533 0.160042 0.220116
H7    H     H_    0.037796 0.744923 0.177573 0.286819
C4    C     C_3   0.229617 0.752639 0.640888 0.279405
H8    H     H_    0.362073 0.751026 0.630464 0.108698
H9    H     H_    0.152259 0.722412 0.589629 0.117144
C5    C     C_3   0.200298 0.850355 0.668828 -0.638259
H10   H     H_    0.229265 0.871553 0.728787 0.216919
H11   H     H_    0.067506 0.853488 0.659464 0.176443
Ba1   Ba    Ba6+2 0.853520 0.540910 0.466490 1.572271
C6    C     C_3   0.934651 0.254247 0.364409 0.404370
H12   H     H_    0.839128 0.291395 0.390879 0.080587
H13   H     H_    0.035572 0.256986 0.405557 0.146905
C7    C     C_3   0.857098 0.155275 0.332910 -0.787674
H14   H     H_    0.738545 0.152044 0.301947 0.264606
H15   H     H_    0.833865 0.117290 0.377089 0.233060
H16   H     H_    0.941449 0.121223 0.294904 0.284175
C8    C     C_3   0.741915 0.693188 0.695237 0.170223
H17   H     H_    0.854643 0.669150 0.672408 0.092694
H18   H     H_    0.640185 0.634366 0.692288 0.139930
C9    C     C_3   0.781214 0.744904 0.774389 -0.092357
H19   H     H_    0.897755 0.794993 0.777441 0.152672
H20   H     H_    0.679755 0.783593 0.792801 0.168661
P4    P     P_3+3 0.150290 0.589140 0.666780 0.472543
O12   O     O_2   0.317750 0.562750 0.677090 -0.363750
O13   O     O_3   0.068300 0.555620 0.587560 -0.403842
O14   O     O_3   0.528270 0.392500 0.627460 -0.388965
O15   O     O_3   0.187771 0.707210 0.696948 -0.580805
P5    P     P_3+3 0.062904 0.225374 0.587754 0.487008
O16   O     O_3   0.609290 0.386840 0.459690 -0.409370
O17   O     O_3   0.105700 0.342700 0.589730 -0.348609
O18   O     O_2   0.192647 0.183107 0.539287 -0.353623
O19   O     O_3   0.125816 0.210013 0.673609 -0.479426
Ba2   Ba    Ba6+2 0.336320 0.459170 0.533520 1.606315
P6    P     P_3+3 0.644545 0.595235 0.278261 0.460775
C10   C     C_3   0.648244 0.760624 0.264301 0.280156
H21   H     H_    0.531920 0.734923 0.229511 0.038167
O20   O     O_3   0.580430 0.613240 0.540320 -0.384645
C11   C     C_3   0.458390 0.320029 0.310501 0.455751
H22   H     H_    0.338657 0.335446 0.331956 0.093452
H23   H     H_    0.555840 0.381416 0.326540 0.114892
C12   C     C_3   0.439960 0.294545 0.227544 -0.929403
H24   H     H_    0.338863 0.235208 0.209726 0.285416
H25   H     H_    0.409797 0.352554 0.205502 0.209977
H26   H     H_    0.557912 0.276714 0.205086 0.254664
P7    P     P_3+3 0.518622 0.272143 0.431489 0.471948
O21   O     O_2   0.337390 0.273050 0.457610 -0.331016
O22   O     O_3   0.502715 0.246284 0.335959 -0.531271
H27   H     H_    0.237640 0.816928 0.204088 0.269697
C13   C     C_3   0.990559 0.201691 0.718110 0.164190
H28   H     H_    0.960459 0.270252 0.741360 0.107474
H29   H     H_    0.879276 0.158243 0.687311 -0.021587
C14   C     C_3   0.037802 0.155381 0.779202 -0.027428
H30   H     H_    0.085304 0.092379 0.752917 0.097310
P8    P     P_3+3 0.544694 0.398567 0.720431 0.542405
C15   C     C_3   0.542767 0.227716 0.682295 0.444742
H31   H     H_    0.678329 0.251548 0.680929 -0.041850
O23   O     O_2   0.421119 0.459235 0.756117 -0.303509
O24   O     O_3   0.467182 0.289094 0.732050 -0.461691
H32   H     H_    0.483650 0.217515 0.626655 0.129844
H33   H     H_    0.586277 0.090138 0.667626 0.225233
C16   C     C_3   0.519774 0.136986 0.704930 -0.845886
H34   H     H_    0.385829 0.108115 0.702467 0.281278
H35   H     H_    0.571641 0.145764 0.761429 0.277540
C17   C     C_R   0.999061 0.442145 0.042445 0.066100
C18   C     C_R   0.902472 0.397137 0.090274 -0.187589
C19   C     C_R   0.788604 0.387087 0.938519 -0.081584
C20   C     C_R   0.942700 0.438186 0.968939 0.053653
C21   C     C_R   0.731440 0.387375 0.868371 -0.010869
C22   C     C_R   0.824285 0.438591 0.824613 -0.016343
C23   C     C_R   0.982840 0.487622 0.851653 0.061832
C24   C     C_R   0.041594 0.488181 0.924362 0.071876
C25   C     C_R   0.762616 0.442826 0.754757 0.183580
C26   C     C_R   0.866904 0.484780 0.708761 -0.474635
C27   C     C_R   0.025612 0.532144 0.732909 0.264452
C28   C     C_R   0.080470 0.538274 0.806896 0.002181
C29   C     C_R   0.158862 0.490986 0.068974 0.064239
C30   C     C_R   0.214634 0.496147 0.142894 0.011349
C31   C     C_R   0.110668 0.454113 0.190756 -0.045867
C32   C     C_R   0.958274 0.401720 0.161793 -0.041459
H36   H     H_    0.820895 0.484320 0.654184 0.168746
H37   H     H_    0.610982 0.347901 0.850018 0.196726
H38   H     H_    0.878238 0.363864 0.194050 0.167336
C33   C     C_R   0.224320 0.597320 0.839190 0.022577
C34   C     C_R   0.277324 0.600697 0.911047 -0.078445
C35   C     C_R   0.197815 0.539767 0.952160 0.045369
C36   C     C_R   0.264700 0.533178 0.021754 -0.006677
C37   C     C_R   0.434984 0.564193 0.045736 -0.126793
C38   C     C_R   0.376532 0.541100 0.168331 -0.036705
C39   C     C_R   0.485236 0.571522 0.118611 -0.237250
C40   C     C_R   0.428597 0.550278 0.242144 0.144468
C41   C     C_R   0.319482 0.515827 0.290085 -0.517335
C42   C     C_R   0.163539 0.465134 0.265672 0.247614
H39   H     H_    0.295143 0.643667 0.810237 0.162856
H40   H     H_    0.614302 0.596854 0.135081 0.208943
H41   H     H_    0.361057 0.523127 0.346456 0.181063
H42   H     H_    0.706757 0.345840 0.967449 0.131983
H43   H     H_    0.781099 0.357542 0.074626 0.128206
H44   H     H_    0.381558 0.652710 0.934165 0.139305
C43   C     C_R   0.852586 0.170376 0.545102 0.164030
C44   C     C_R   0.788967 0.076226 0.535927 -0.000333
C45   C     C_R   0.655591 0.887352 0.521680 0.017362
C46   C     C_R   0.804181 0.927398 0.562638 0.012266
C47   C     C_R   0.871198 0.018929 0.568131 -0.178435
C48   C     C_R   0.584706 0.793565 0.515708 0.291241
H45   H     H_    0.870014 0.889107 0.591875 0.160252
H46   H     H_    0.985960 0.045072 0.600285 0.192357
C49   C     C_R   0.430139 0.760355 0.478477 -0.534623
C50   C     C_R   0.613423 0.190119 0.472970 0.208763
C51   C     C_R   0.549052 0.095012 0.461187 -0.195253
C52   C     C_R   0.636359 0.038722 0.495118 0.019361
C53   C     C_R   0.400893 0.052434 0.418167 0.438706
C54   C     C_R   0.335178 0.962556 0.416384 -0.188779
C55   C     C_R   0.416057 0.907643 0.450521 -0.058325
C56   C     C_R   0.571026 0.944140 0.488011 0.040477
C57   C     C_R   0.343168 0.817171 0.448384 0.190753
C58   C     C_R   0.760204 0.225765 0.516198 -0.513654
H47   H     H_    0.219720 0.936223 0.384820 0.198810
H48   H     H_    0.372981 0.690489 0.476217 0.178544
H49   H     H_    0.808248 0.297917 0.524327 0.169937
C59   C     C_2   0.306545 0.916691 0.634143 1.005519
O25   O     O_2   0.456694 0.929384 0.645879 -0.650379
O26   O     O_R   0.233827 0.966771 0.591710 -0.808737
H50   H     H_    0.317172 0.015267 0.576389 0.321316
N1    N     N_R   0.797274 0.683817 0.823267 0.223421
O27   O     O_R   0.668970 0.625434 0.832261 -0.399777
O28   O     O_R   0.925058 0.701356 0.869400 -0.418028
C60   C     C_2   0.635246 0.915800 0.242330 1.045874
O29   O     O_2   0.599908 0.956752 0.301561 -0.650503
O30   O     O_R   0.580566 0.937297 0.177988 -0.761536
H51   H     H_    0.511785 0.987925 0.187489 0.356068
N2    N     N_R   0.168250 0.215038 0.829447 0.285138
O31   O     O_R   0.302023 0.185010 0.844844 -0.376376
O32   O     O_R   0.148469 0.296600 0.862096 -0.365972
C61   C     C_2   0.889603 0.127534 0.820712 0.940134
O33   O     O_2   0.836424 0.046645 0.816571 -0.615198
O34   O     O_R   0.813794 0.193882 0.864216 -0.793187
H52   H     H_    0.716174 0.166667 0.889691 0.342345
C62   C     C_2   0.570862 0.573953 0.995304 1.020828
O35   O     O_2   0.556737 0.525767 0.934061 -0.598909
O36   O     O_R   0.718596 0.634544 0.019023 -0.789406
H53   H     H_    0.804710 0.631217 0.980886 0.366038
N3    N     N_R   0.315095 0.094339 0.371196 0.253168
O37   O     O_R   0.167445 0.109422 0.388103 -0.421238
O38   O     O_R   0.346216 0.078003 0.302370 -0.376968

loop_
_geom_bond_atom_site_label_1
_geom_bond_atom_site_label_2
_geom_bond_distance
_ccdc_geom_bond_type
O14   Ba2   2.782019 S    
O5    C6    1.393312 S    
C12   H25   1.107949 S    
Ba2   O20   2.802503 S    
O14   P8    1.728056 S    
O4    P6    1.539314 D    
C26   C27   1.396052 A    
P8    O23   1.546223 D    
O7    Ba1   2.893770 S    
C5    H10   1.112963 S    
Ba2   O21   2.894076 S    
C21   C22   1.398758 A    
C55   C56   1.408811 A    
C8    H18   1.110783 S    
C15   H31   1.112066 S    
C4    C5    1.528815 S    
C1    C60   1.495491 S    
N3    O38   1.300979 A    
P5    O19   1.753133 S    
P3    O11   1.749146 S    
C11   C12   1.521403 S    
N3    O37   1.298093 A    
C7    H15   1.107230 S    
O11   C2    1.404112 S    
C60   O30   1.397203 S    
P2    C48   1.873270 S    
C34   C35   1.413776 A    
C15   C16   1.510925 S    
P1    Ba1   3.395602 S    
C29   C36   1.425726 A    
C36   C37   1.428162 A    
C11   H23   1.109899 S    
P1    O1    1.507028 D    
O10   C8    1.394208 S    
Ba1   O20   2.897355 S    
C38   C39   1.397622 A    
C31   C32   1.398968 A    
C37   C39   1.395953 A    
P8    C25   1.852573 S    
C18   C32   1.392309 A    
P2    O20   1.587594 S    
O2    Ba2   2.792443 S    
O19   C13   1.404006 S    
C2    H4    1.111428 S    
O12   Ba2   2.843540 S    
C47   H46   1.077222 S    
P5    O17   1.754881 S    
O30   H51   1.013608 S    
C39   H40   1.079193 S    
C15   H32   1.111360 S    
N2    O32   1.301191 A    
C1    H2    1.111274 S    
O16   Ba2   2.896526 S    
C26   H36   1.081668 S    
C28   C33   1.401152 A    
C12   H26   1.110890 S    
Ba1   O13   2.791807 S    
O3    P6    1.739251 S    
P5    C43   1.871468 S    
C9    H20   1.112613 S    
O6    P6    1.747445 S    
C44   C52   1.421398 A    
C40   C41   1.398574 A    
C23   C28   1.425709 A    
C8    C9    1.529766 S    
N1    O28   1.300078 A    
P4    O13   1.566055 S    
C38   C40   1.412113 A    
P3    C57   1.846479 S    
P5    O18   1.542733 D    
C14   H30   1.115041 S    
N1    O27   1.298999 A    
P7    O21   1.571334 D    
C6    C7    1.525166 S    
C45   C46   1.402893 A    
C2    C3    1.520934 S    
C31   C42   1.429527 A    
Ba1   O16   2.803069 S    
C54   H47   1.077024 S    
C13   H29   1.107104 S    
C17   C18   1.416378 A    
C45   C48   1.431296 A    
C48   C49   1.397659 A    
C4    H8    1.107696 S    
P4    O12   1.507408 D    
C30   C38   1.412876 A    
C17   C20   1.430932 A    
P1    O5    1.747673 S    
C14   N2    1.463875 S    
C11   H22   1.107172 S    
P1    O2    1.566029 S    
C7    H14   1.109024 S    
C6    H13   1.108424 S    
C43   C58   1.397267 A    
P2    O10   1.745197 S    
C18   H43   1.075522 S    
H1    C10   1.113890 S    
C30   C31   1.425081 A    
P4    O15   1.741643 S    
C52   C56   1.429379 A    
C27   C28   1.429385 A    
C7    H16   1.110459 S    
C14   C61   1.504407 S    
O16   P7    1.748783 S    
O2    Ba1   2.912467 S    
C1    H3    1.111822 S    
C43   C44   1.416151 A    
C46   H45   1.073004 S    
C41   H41   1.081796 S    
C16   H35   1.107048 S    
P2    O7    1.489877 D    
H33   C16   1.107073 S    
C32   H38   1.079325 S    
P3    O8    1.715304 S    
P2    Ba1   3.427757 S    
O34   H52   1.013799 S    
C3    H7    1.110514 S    
C16   H34   1.108875 S    
P7    C50   1.858158 S    
C5    C59   1.486253 S    
P1    C42   1.878842 S    
C35   C36   1.433906 A    
C19   H42   1.075443 S    
C51   C52   1.432639 A    
C9    N1    1.452169 S    
C53   N3    1.423667 S    
C22   C23   1.414337 A    
C59   O26   1.394859 S    
C3    H27   1.111304 S    
O13   Ba2   2.913363 S    
C41   C42   1.394394 A    
C15   O24   1.403897 S    
C55   C57   1.401020 A    
C61   O33   1.223009 D    
C34   H44   1.080010 S    
C3    H6    1.109280 S    
C33   H39   1.080381 S    
P8    O24   1.743113 S    
C19   C21   1.388405 A    
O26   H50   1.012539 S    
C51   C53   1.424827 A    
C58   H49   1.082341 S    
C13   C14   1.537194 S    
O17   Ba2   2.754209 S    
O8    Ba1   2.753490 S    
C54   C55   1.388434 A    
O36   H53   1.013071 S    
C33   C34   1.395452 A    
C45   C56   1.422748 A    
Ba1   Ba2   4.554573 S    
C62   O35   1.219632 D    
C44   C47   1.402612 A    
C5    H11   1.106727 S    
C50   C51   1.426973 A    
C13   H28   1.111829 S    
C60   O29   1.220069 D    
C6    H12   1.103036 S    
C22   C25   1.412038 A    
C37   C62   1.482561 S    
C10   H21   1.110495 S    
C53   C54   1.379405 A    
C49   H48   1.081801 S    
C11   O22   1.401309 S    
C61   O34   1.395591 S    
C23   C24   1.434543 A    
P6    C40   1.848415 S    
C1    C10   1.527174 S    
C20   C24   1.422681 A    
C25   C26   1.400424 A    
C17   C29   1.419714 A    
C4    O15   1.392698 S    
C21   H37   1.076937 S    
O3    Ba1   2.782527 S    
C12   H24   1.110647 S    
C8    H17   1.107152 S    
C49   C57   1.398337 A    
C19   C20   1.410605 A    
P4    Ba2   3.396149 S    
C29   C30   1.433175 A    
C9    H19   1.112733 S    
P3    O9    1.544578 D    
C59   O25   1.220126 D    
O1    Ba1   2.843020 S    
P7    O22   1.750040 S    
N2    O31   1.300611 A    
P4    C27   1.881787 S    
O6    C10   1.400665 S    
C24   C35   1.414489 A    
C62   O36   1.398960 S    
C46   C47   1.393555 A    
C2    H5    1.111296 S    
C4    H9    1.111028 S    
C50   C58   1.400516 A    
