data_mof_unit_11651.cif
_audit_creation_date              2012-12-10T18:11:41-0500
_audit_creation_method            fapswitch 2.2
_symmetry_space_group_name_H-M    P1
_symmetry_Int_Tables_number       1
_space_group_crystal_system       triclinic
_cell_length_a                    10.503052
_cell_length_b                    12.693428
_cell_length_c                    13.01008
_cell_angle_alpha                 81.364873
_cell_angle_beta                  92.463762
_cell_angle_gamma                 103.044248
_cell_volume                      1670.51482481

loop_
_atom_site_label
_atom_site_type_symbol
_atom_type_description
_atom_site_fract_x
_atom_site_fract_y
_atom_site_fract_z
_atom_type_partial_charge
C1    C     C_R   0.488491 0.438640 0.691516 0.858510
C2    C     C_3   0.057443 0.540217 0.585506 0.276822
C3    C     C_3   0.942850 0.440148 0.589380 0.167772
C4    C     C_3   0.877430 0.503117 0.501137 -0.221898
C5    C     C_R   0.711891 0.697132 0.072460 0.325372
C6    C     C_R   0.551618 0.597488 0.200359 -0.078038
C7    C     C_R   0.386329 0.304115 0.837688 -0.139725
C8    C     C_R   0.358175 0.277367 0.942867 -0.076770
C9    C     C_R   0.415911 0.348914 0.011470 -0.130923
C10   C     C_R   0.507904 0.446860 0.975805 0.107978
C11   C     C_R   0.551056 0.463492 0.873185 0.048113
C12   C     C_R   0.742074 0.501631 0.499789 0.944922
C13   C     C_R   0.557369 0.529202 0.038219 0.013157
C14   C     C_R   0.667978 0.615539 0.006411 -0.010044
C15   C     C_R   0.727833 0.614155 0.911186 0.298714
C16   C     C_R   0.665372 0.542644 0.844106 -0.209903
C17   C     C_R   0.495954 0.527991 0.130973 -0.172857
C18   C     C_R   0.656263 0.684428 0.170449 -0.200593
C19   C     C_R   0.479975 0.398811 0.802217 -0.070185
C20   C     C_R   0.265773 0.075956 0.400727 -0.233534
C21   C     C_R   0.677590 0.804979 0.611227 -0.046969
C22   C     C_R   0.719789 0.910793 0.634654 0.274647
C23   C     C_R   0.517859 0.561202 0.308659 0.925521
C24   C     C_R   0.646787 0.988392 0.600885 -0.178858
C25   C     C_R   0.530885 0.960858 0.542779 -0.055905
C26   C     C_R   0.491416 0.851839 0.519206 0.162470
C27   C     C_R   0.456737 0.038915 0.501200 0.011222
C28   C     C_R   0.333423 0.002076 0.454993 0.068171
C29   C     C_R   0.285786 0.892094 0.450905 -0.209084
C30   C     C_R   0.373163 0.824442 0.461442 0.297418
C31   C     C_R   0.501057 0.152608 0.498980 -0.041927
C32   C     C_R   0.320646 0.186400 0.391885 0.431518
C33   C     C_R   0.257620 0.497586 0.502061 0.986914
C34   C     C_3   0.941309 0.457176 0.419717 0.270236
C35   C     C_3   0.008188 0.394032 0.507903 0.254021
C36   C     C_3   0.121536 0.494351 0.503845 -0.227852
C37   C     C_3   0.055957 0.557793 0.415166 -0.245616
C38   C     C_3   0.990184 0.604060 0.497372 -0.231523
H1    H     H_    0.287340 0.203405 0.970738 0.185694
N1    N     N_R   0.432930 0.222190 0.444670 -0.135727
N2    N     N_R   0.566370 0.776980 0.554790 -0.137577
O1    O     O_R   0.467970 0.366730 0.627150 -0.611608
O2    O     O_R   0.510820 0.544830 0.662520 -0.605449
O3    O     O_R   0.664630 0.410960 0.482340 -0.589723
O4    O     O_R   0.707470 0.589060 0.517710 -0.641300
O5    O     O_R   0.489180 0.455170 0.337480 -0.586102
O6    O     O_R   0.532030 0.633270 0.372850 -0.580628
O7    O     O_R   0.292530 0.410940 0.482290 -0.566860
O8    O     O_R   0.335370 0.589040 0.517660 -0.580901
Zn1   Zn    Zn3+2 0.471390 0.381080 0.476380 1.033958
Zn2   Zn    Zn3+2 0.528610 0.618920 0.523620 1.000005
Br1   Br    Br    0.015629 0.241286 0.520551 -0.349753
H2    H     H_    0.406666 0.469478 0.153985 0.183158
H3    H     H_    0.332309 0.252754 0.783827 0.185040
H4    H     H_    0.389760 0.324220 0.092177 0.169203
H5    H     H_    0.710904 0.545499 0.770283 0.189906
Br2   Br    Br    0.235895 0.284435 0.303038 -0.428731
H6    H     H_    0.192601 0.866421 0.412150 0.180020
H7    H     H_    0.174690 0.048028 0.360368 0.192012
H8    H     H_    0.588660 0.187899 0.538977 0.165046
H9    H     H_    0.734458 0.744633 0.637244 0.174259
Br3   Br    Br    0.857063 0.400850 0.297317 -0.379375
H10   H     H_    0.682172 0.069013 0.621835 0.192932
Br4   Br    Br    0.878986 0.951066 0.710209 -0.321596
Br5   Br    Br    0.357503 0.762173 0.335588 -0.489517
H11   H     H_    0.103552 0.604077 0.342530 0.228642
H12   H     H_    0.979613 0.689660 0.493375 0.199967
Br6   Br    Br    0.144836 0.599394 0.705480 -0.360182
Br7   Br    Br    0.855700 0.357620 0.714492 -0.406229
H13   H     H_    0.697089 0.740805 0.224355 0.191930
Br8   Br    Br    0.900940 0.692090 0.869651 -0.306619
Br9   Br    Br    0.836998 0.832658 0.036951 -0.335190

loop_
_geom_bond_atom_site_label_1
_geom_bond_atom_site_label_2
_ccdc_geom_bond_type
C18   H13   S    
C34   C37   S    
C35   C36   S    
C7    C8    A    
C11   C19   A    
C29   C30   A    
C36   C37   S    
C3    Br7   S    
C5    Br9   S    
C2    Br6   S    
O4    Zn2   S    
C33   O8    A    
C15   C16   A    
C34   Br3   S    
C33   C36   S    
C31   N1    A    
C34   C35   S    
O3    Zn1   S    
C1    O2    A    
C8    C9    A    
O8    Zn2   S    
C9    H4    S    
C8    H1    S    
C4    C12   S    
C9    C10   A    
C21   H9    S    
O7    Zn1   S    
C23   O5    A    
C21   C22   A    
C32   Br2   S    
C6    C18   A    
C4    C34   S    
C1    C19   S    
C23   O6    A    
C27   C31   A    
C24   C25   A    
O6    Zn2   S    
C5    C18   A    
C20   C28   A    
C25   C26   A    
C31   H8    S    
C16   H5    S    
C37   C38   S    
C11   C16   A    
C2    C38   S    
C3    C35   S    
C37   H11   S    
C38   H12   S    
C20   H7    S    
C5    C14   A    
O1    Zn1   S    
C21   N2    A    
C4    C38   S    
C26   C30   A    
C24   H10   S    
C7    C19   A    
C22   C24   A    
C3    C4    S    
C17   H2    S    
C27   C28   A    
C20   C32   A    
C2    C36   S    
C6    C17   A    
C28   C29   A    
C12   O4    A    
C10   C13   A    
C25   C27   A    
C15   Br8   S    
O5    Zn1   S    
C13   C17   A    
C2    C3    S    
C12   O3    A    
O2    Zn2   S    
N1    Zn1   S    
C6    C23   S    
C32   N1    A    
C30   Br5   S    
C10   C11   A    
C22   Br4   S    
C1    O1    A    
C29   H6    S    
C35   Br1   S    
C33   O7    A    
C14   C15   A    
C7    H3    S    
C13   C14   A    
N2    Zn2   S    
C26   N2    A    
