data_mof_unit_11501.cif
_audit_creation_date              2012-10-26T19:35:38-0400
_audit_creation_method            fapswitch 2.2
_symmetry_space_group_name_H-M    P1
_symmetry_Int_Tables_number       1
_space_group_crystal_system       triclinic
_cell_length_a                    15.837041
_cell_length_b                    10.918786
_cell_length_c                    9.553495
_cell_angle_alpha                 91.15748
_cell_angle_beta                  90.250962
_cell_angle_gamma                 90.996742
_cell_volume                      1651.39689764

loop_
_atom_site_label
_atom_site_type_symbol
_atom_type_description
_atom_site_fract_x
_atom_site_fract_y
_atom_site_fract_z
_atom_type_partial_charge
C1    C     C_R   0.498710 0.262677 0.498124 0.576027
C2    C     C_R   0.498002 0.129964 0.493412 0.008502
C3    C     C_R   0.495443 0.059163 0.366492 0.204480
C4    C     C_R   0.339784 0.499747 0.499710 0.565047
C5    C     C_R   0.497173 0.930938 0.371286 -0.121279
C6    C     C_R   0.501839 0.870045 0.499868 -0.040036
C7    C     C_R   0.505083 0.942567 0.620814 -0.047196
C8    C     C_3   0.509694 0.941079 0.776844 -0.193957
C9    C     C_3   0.504208 0.081671 0.773195 0.244487
C10   C     C_R   0.567782 0.546123 0.075552 0.154981
C11   C     C_R   0.435908 0.446513 0.072560 0.043994
C12   C     C_3   0.082373 0.497425 0.498491 0.055378
C13   C     C_R   0.435272 0.448189 0.923977 0.024863
C14   C     C_R   0.570455 0.538797 0.927929 0.124361
C15   C     C_3   0.612729 0.661742 0.918265 -0.126527
C16   C     C_R   0.501116 0.737377 0.501006 0.540959
C17   C     C_3   0.598441 0.677016 0.076805 -0.135605
C18   C     C_R   0.660110 0.499088 0.500131 0.527959
C19   C     C_3   0.971584 0.464400 0.625082 -0.106428
C20   C     C_3   0.027067 0.384143 0.528166 -0.094787
C21   C     C_1   0.249904 0.499150 0.499121 -0.014990
C22   C     C_1   0.749758 0.496816 0.499718 -0.049308
C23   C     C_3   0.972247 0.608670 0.468342 -0.105781
C24   C     C_3   0.028401 0.577669 0.595423 -0.100842
C25   C     C_3   0.581628 0.152137 0.836913 -0.196031
C26   C     C_3   0.662990 0.145042 0.749630 -0.332258
C27   C     C_3   0.736255 0.211923 0.824135 -0.451787
C28   C     C_3   0.705172 0.653722 0.864830 -0.246925
C29   C     C_3   0.727844 0.762828 0.772478 -0.306130
C30   C     C_3   0.822138 0.768834 0.740766 -0.461280
C31   C     C_3   0.672750 0.704585 0.178340 -0.245599
C32   C     C_3   0.708882 0.835002 0.163340 -0.317668
C33   C     C_3   0.769400 0.868322 0.283606 -0.457058
C34   C     C_3   0.917001 0.495374 0.497978 0.045555
C35   C     C_3   0.027721 0.528464 0.371394 -0.096984
C36   C     C_3   0.970878 0.415159 0.401048 -0.098024
C37   C     C_1   0.174202 0.498451 0.498783 -0.050006
C38   C     C_1   0.825319 0.495308 0.498498 -0.078936
C39   C     C_R   0.501793 0.066093 0.617347 0.022312
Cl1   Cl    Cl    0.405913 0.134888 0.840260 -0.582315
Cl2   Cl    Cl    0.488405 0.121974 0.198274 -0.599414
Cu1   Cu    Cu3+1 0.500000 0.499980 0.640670 0.947079
Cu2   Cu    Cu3+1 0.500000 0.500020 0.359330 0.980435
H1    H     H_    0.050943 0.292006 0.552778 0.115415
H2    H     H_    0.948180 0.700766 0.443970 0.099832
H3    H     H_    0.053237 0.644439 0.675222 0.111273
H4    H     H_    0.493987 0.879473 0.273389 0.162798
H5    H     H_    0.454155 0.894052 0.823820 0.182897
H6    H     H_    0.721127 0.310013 0.841909 0.157497
H7    H     H_    0.749397 0.169103 0.926277 0.153484
H8    H     H_    0.793806 0.206498 0.758459 0.145204
H9    H     H_    0.680270 0.048112 0.730561 0.146300
H10   H     H_    0.653322 0.188411 0.646794 0.171376
H11   H     H_    0.565443 0.250071 0.851730 0.206697
H12   H     H_    0.571817 0.911451 0.814817 0.075906
H13   H     H_    0.594041 0.115828 0.942724 0.185660
H14   H     H_    0.858636 0.788908 0.838350 0.149013
H15   H     H_    0.843342 0.680775 0.694833 0.165970
H16   H     H_    0.835172 0.842759 0.665286 0.140183
H17   H     H_    0.691703 0.755136 0.672528 0.168933
H18   H     H_    0.710745 0.849719 0.826336 0.148387
H19   H     H_    0.751767 0.648738 0.950607 0.141509
H20   H     H_    0.714310 0.568051 0.803223 0.171149
H21   H     H_    0.735611 0.866513 0.385296 0.147899
H22   H     H_    0.822280 0.802844 0.286101 0.149897
H23   H     H_    0.383490 0.404262 0.126634 0.156852
H24   H     H_    0.795798 0.962038 0.268961 0.148207
H25   H     H_    0.743710 0.843177 0.063713 0.170193
H26   H     H_    0.656709 0.901883 0.163504 0.182335
H27   H     H_    0.647555 0.699583 0.285799 0.194819
H28   H     H_    0.722919 0.635044 0.170229 0.143668
H29   H     H_    0.381971 0.408355 0.867383 0.171421
H30   H     H_    0.572404 0.720903 0.855590 0.154878
H31   H     H_    0.545103 0.739606 0.098305 0.133032
H32   H     H_    0.946950 0.438153 0.729090 0.100962
H33   H     H_    0.945802 0.348495 0.321333 0.105437
H34   H     H_    0.052113 0.554857 0.267298 0.108572
N1    N     N_R   0.500530 0.500930 0.147930 -0.239774
N2    N     N_R   0.500530 0.500890 0.852020 -0.257655
O1    O     O_R   0.500000 0.319640 0.618810 -0.491572
O2    O     O_R   0.500010 0.319680 0.381230 -0.433855
O3    O     O_R   0.379070 0.499970 0.618770 -0.496062
O4    O     O_R   0.379080 0.500010 0.381190 -0.502431
O5    O     O_R   0.499990 0.680320 0.618770 -0.505877
O6    O     O_R   0.500000 0.680360 0.381190 -0.525884
O7    O     O_R   0.620920 0.499990 0.618810 -0.514435
O8    O     O_R   0.620930 0.500030 0.381230 -0.509379

loop_
_geom_bond_atom_site_label_1
_geom_bond_atom_site_label_2
_ccdc_geom_bond_type
C13   N2    A    
Cu1   O1    S    
C23   H2    S    
Cu2   O4    S    
C35   C36   S    
Cu1   O3    S    
C25   H13   S    
C9    C39   S    
C10   N1    A    
C33   H22   S    
C7    C8    S    
Cu2   N1    S    
C5    H4    S    
C26   C27   S    
C18   O7    A    
C28   C29   S    
C5    C6    A    
C10   C17   S    
C1    O2    A    
C22   C38   T    
C30   H14   S    
C16   O5    A    
C1    C2    S    
C12   C37   S    
C36   H33   S    
C2    C39   A    
C31   H27   S    
C19   C20   S    
C8    C9    S    
C23   C24   S    
Cu1   O7    S    
C11   H23   S    
C32   H25   S    
C31   H28   S    
Cu1   N2    S    
C18   C22   S    
C8    H12   S    
C20   H1    S    
C27   H8    S    
C29   H18   S    
C9    C25   S    
Cu2   O6    S    
Cu1   O5    S    
C25   H11   S    
C10   C14   A    
C25   C26   S    
C35   H34   S    
C9    Cl1   S    
C8    H5    S    
C29   C30   S    
C11   N1    A    
C26   H9    S    
C31   C32   S    
C29   H17   S    
C23   C34   S    
C30   H16   S    
C12   C20   S    
C4    O3    A    
C14   N2    A    
C12   C35   S    
C6    C7    A    
C15   H30   S    
C23   C35   S    
C16   O6    A    
C17   C31   S    
Cu1   Cu2   S    
C26   H10   S    
C33   H24   S    
C15   C17   S    
C3    Cl2   S    
C34   C38   S    
C3    C5    A    
C19   C34   S    
C27   H7    S    
C32   H26   S    
C13   H29   S    
C12   C24   S    
C18   O8    A    
Cu2   O8    S    
C32   C33   S    
C19   H32   S    
C2    C3    A    
C24   H3    S    
C4    C21   S    
C11   C13   A    
C15   C28   S    
C17   H31   S    
C4    O4    A    
C33   H21   S    
Cu2   O2    S    
C30   H15   S    
C19   C24   S    
C34   C36   S    
C6    C16   S    
C20   C36   S    
C28   H20   S    
C21   C37   T    
C1    O1    A    
C7    C39   A    
C14   C15   S    
C27   H6    S    
C28   H19   S    
