data_mof_unit_35857.cif
_audit_creation_date              2012-12-11T15:11:50-0500
_audit_creation_method            fapswitch 2.2
_symmetry_space_group_name_H-M    P1
_symmetry_Int_Tables_number       1
_space_group_crystal_system       monoclinic
_cell_length_a                    20.211739
_cell_length_b                    7.189277
_cell_length_c                    13.82935
_cell_angle_alpha                 90.0
_cell_angle_beta                  103.480065
_cell_angle_gamma                 90.0
_cell_volume                      1954.15240584

loop_
_atom_site_label
_atom_site_type_symbol
_atom_type_description
_atom_site_fract_x
_atom_site_fract_y
_atom_site_fract_z
_atom_type_partial_charge
O1    O     O_R   0.449830 0.506740 0.599960 -0.543177
O2    O     O_R   0.550170 0.006740 0.400040 -0.543177
O3    O     O_R   0.588980 0.179860 0.596720 -0.546555
O4    O     O_R   0.411020 0.679860 0.403280 -0.546555
C1    C     C_R   0.615988 0.345703 0.620140 0.676528
C2    C     C_R   0.384012 0.845703 0.379860 0.676528
O5    O     O_R   0.452740 0.177340 0.612040 -0.539109
O6    O     O_R   0.547260 0.677340 0.387960 -0.539109
O7    O     O_R   0.412960 0.002070 0.415460 -0.557155
O8    O     O_R   0.587040 0.502070 0.584540 -0.557156
C3    C     C_R   0.432349 0.344753 0.632024 0.685213
C4    C     C_R   0.567651 0.844753 0.367976 0.685214
O9    O     O_3   0.487110 0.337570 0.435490 -0.389840
O10   O     O_3   0.512890 0.837570 0.564510 -0.389840
V1    V     V_3+5 0.502390 0.064650 0.511970 1.358054
V2    V     V_3+5 0.497610 0.564650 0.488030 1.358054
C5    C     C_R   0.614137 0.931863 0.127052 0.224450
C6    C     C_R   0.385863 0.431863 0.872948 0.224450
H1    H     H_    0.522537 0.888401 0.172401 0.127426
H2    H     H_    0.477463 0.388402 0.827599 0.127427
H3    H     H_    0.694790 0.889444 0.999193 0.155236
H4    H     H_    0.305210 0.389443 0.000807 0.155236
C7    C     C_R   0.609055 0.854015 0.294438 -0.068422
C8    C     C_R   0.390945 0.354015 0.705562 -0.068422
C9    C     C_R   0.937202 0.844020 0.318055 -0.163167
C10   C     C_R   0.062797 0.344020 0.681945 -0.163167
C11   C     C_R   0.903967 0.837386 0.396003 0.263316
C12   C     C_R   0.096033 0.337386 0.603997 0.263316
C13   C     C_R   0.832494 0.844800 0.375416 -0.200922
C14   C     C_R   0.167506 0.344799 0.624584 -0.200922
C15   C     C_R   0.793150 0.858777 0.276612 0.053038
C16   C     C_R   0.206850 0.358777 0.723388 0.053038
C17   C     C_R   0.828281 0.864167 0.198532 0.063527
C18   C     C_R   0.171719 0.364167 0.801468 0.063527
C19   C     C_R   0.720185 0.868972 0.252190 0.052991
C20   C     C_R   0.279815 0.368972 0.747810 0.052991
C21   C     C_R   0.685198 0.901147 0.151362 0.087665
C22   C     C_R   0.314802 0.401147 0.848637 0.087665
C23   C     C_R   0.721008 0.891757 0.076692 -0.213915
C24   C     C_R   0.278992 0.391756 0.923308 -0.213915
C25   C     C_R   0.790980 0.871854 0.100155 -0.205204
C26   C     C_R   0.209019 0.371854 0.899845 -0.205204
C27   C     C_R   0.680337 0.848894 0.323568 -0.224305
C28   C     C_R   0.319663 0.348893 0.676432 -0.224305
C29   C     C_R   0.577013 0.888166 0.196081 -0.175788
C30   C     C_R   0.422987 0.388166 0.803918 -0.175788
C31   C     C_R   0.900248 0.857801 0.219507 -0.131826
C32   C     C_R   0.099752 0.357801 0.780493 -0.131826
H5    H     H_    0.702752 0.824959 0.401272 0.098609
H6    H     H_    0.297248 0.324958 0.598728 0.098609
H7    H     H_    0.992313 0.838814 0.334577 0.114298
H8    H     H_    0.007687 0.338814 0.665423 0.114298
H9    H     H_    0.809189 0.842469 0.437962 0.103853
H10   H     H_    0.190811 0.342470 0.562038 0.103853
H11   H     H_    0.816338 0.857778 0.040447 0.131459
H12   H     H_    0.183662 0.357777 0.959553 0.131459
C33   C     C_3   0.216659 0.652639 0.204423 0.127705
C34   C     C_3   0.783341 0.152639 0.795577 0.127704
H13   H     H_    0.189242 0.583374 0.256041 0.104410
H14   H     H_    0.810758 0.083374 0.743960 0.104411
C35   C     C_3   0.294238 0.659496 0.258512 0.012198
C36   C     C_3   0.705762 0.159496 0.741488 0.012198
H15   H     H_    0.300149 0.555946 0.319748 0.132066
H16   H     H_    0.699851 0.055946 0.680252 0.132066
H17   H     H_    0.146549 0.860883 0.321914 0.155397
H18   H     H_    0.853451 0.360883 0.678086 0.155397
H19   H     H_    0.253446 0.779397 0.416108 0.151641
H20   H     H_    0.746554 0.279396 0.583891 0.151641
C37   C     C_3   0.186889 0.930630 0.292369 -0.470219
C38   C     C_3   0.813111 0.430630 0.707631 -0.470218
C39   C     C_3   0.236928 0.974151 0.141057 0.342501
C40   C     C_3   0.763072 0.474151 0.858943 0.342501
C41   C     C_3   0.187124 0.853951 0.186578 -0.065734
C42   C     C_3   0.812876 0.353951 0.813422 -0.065735
H21   H     H_    0.212571 0.110020 0.118613 0.032598
H22   H     H_    0.787429 0.610021 0.881387 0.032599
C43   C     C_3   0.313246 0.855793 0.307116 -0.054599
C44   C     C_3   0.686754 0.355793 0.692884 -0.054599
C45   C     C_3   0.257458 0.898072 0.366078 -0.432062
C46   C     C_3   0.742542 0.398072 0.633922 -0.432061
C47   C     C_3   0.304722 0.012339 0.222414 0.559666
C48   C     C_3   0.695278 0.512339 0.777586 0.559665
H23   H     H_    0.174635 0.081706 0.287843 0.193929
H24   H     H_    0.825365 0.581706 0.712157 0.193930
H25   H     H_    0.270968 0.021014 0.415448 0.179666
H26   H     H_    0.729032 0.521014 0.584552 0.179665
O11   O     O_R   0.912980 0.203550 0.915410 -0.512798
O12   O     O_R   0.087020 0.703550 0.084590 -0.512798
O13   O     O_R   0.047270 0.535570 0.887960 -0.537790
O14   O     O_R   0.952730 0.035570 0.112040 -0.537790
C49   C     C_R   0.062179 0.367687 0.860397 0.692673
C50   C     C_R   0.937820 0.867687 0.139603 0.692673
O15   O     O_R   0.911030 0.532970 0.903270 -0.560840
O16   O     O_R   0.088970 0.032970 0.096730 -0.560841
O17   O     O_R   0.949820 0.708150 0.099970 -0.547911
O18   O     O_R   0.050180 0.208150 0.900030 -0.547911
C51   C     C_R   0.884820 0.363647 0.880464 0.666547
C52   C     C_R   0.115180 0.863647 0.119535 0.666547
O19   O     O_3   0.012900 0.375230 0.064480 -0.377089
O20   O     O_3   0.987100 0.875230 0.935520 -0.377089
V3    V     V_3+5 0.997610 0.648190 0.988040 1.408705
V4    V     V_3+5 0.002390 0.148190 0.011960 1.408705
N1    N     N_3   0.202257 0.541872 0.113749 -0.647808
H27   H     H_    0.237885 0.564496 0.072112 0.284938
H28   H     H_    0.202198 0.402359 0.132807 0.219034
N2    N     N_3   0.797743 0.041873 0.886251 -0.647809
H29   H     H_    0.762115 0.064497 0.927888 0.284939
H30   H     H_    0.797801 0.902360 0.867193 0.219034
N3    N     N_3   0.340038 0.600695 0.195188 -0.721082
H31   H     H_    0.389300 0.576828 0.236977 0.242468
H32   H     H_    0.343099 0.695726 0.140076 0.308362
N4    N     N_3   0.659962 0.100695 0.804812 -0.721082
H33   H     H_    0.610700 0.076828 0.763023 0.242468
H34   H     H_    0.656901 0.195727 0.859923 0.308362
O21   O     O_3   0.253021 0.888871 0.056154 -0.549948
C53   C     C_3   0.201698 0.908372 0.967519 0.099372
H35   H     H_    0.172428 0.039286 0.963927 0.113228
H36   H     H_    0.165569 0.790261 0.959862 0.152216
C54   C     C_3   0.234312 0.902067 0.878909 -0.661614
H37   H     H_    0.258246 0.764687 0.874778 0.227074
H38   H     H_    0.195110 0.925760 0.809046 0.179821
H39   H     H_    0.274247 0.010232 0.886337 0.240398
O22   O     O_3   0.746979 0.388872 0.943846 -0.549948
C55   C     C_3   0.798302 0.408373 0.032481 0.099371
H40   H     H_    0.827571 0.539287 0.036072 0.113228
H41   H     H_    0.834431 0.290261 0.040137 0.152216
C56   C     C_3   0.765688 0.402068 0.121091 -0.661615
H42   H     H_    0.741754 0.264688 0.125222 0.227074
H43   H     H_    0.804890 0.425761 0.190954 0.179821
H44   H     H_    0.725753 0.510233 0.113663 0.240398
O23   O     O_3   0.358224 0.012946 0.170802 -0.555537
C57   C     C_3   0.419058 0.102712 0.218493 0.107050
H45   H     H_    0.454981 0.995578 0.254083 0.130079
H46   H     H_    0.415297 0.206595 0.275333 0.157268
C58   C     C_3   0.446518 0.206150 0.141364 -0.736155
H47   H     H_    0.412290 0.325237 0.116440 0.215520
H48   H     H_    0.498577 0.258654 0.174321 0.206416
H49   H     H_    0.447291 0.115333 0.076689 0.252197
O24   O     O_3   0.641776 0.512947 0.829197 -0.555537
C59   C     C_3   0.580942 0.602712 0.781506 0.107050
H50   H     H_    0.545019 0.495577 0.745917 0.130079
H51   H     H_    0.584702 0.706595 0.724666 0.157268
C60   C     C_3   0.553482 0.706151 0.858636 -0.736155
H52   H     H_    0.587710 0.825238 0.883559 0.215520
H53   H     H_    0.501423 0.758654 0.825678 0.206415
H54   H     H_    0.552709 0.615334 0.923310 0.252197
N5    N     N_3   0.295339 0.197159 0.263104 -0.763618
H55   H     H_    0.304144 0.294491 0.212365 0.265243
H56   H     H_    0.327469 0.222517 0.332578 0.221401
N6    N     N_3   0.704661 0.697159 0.736896 -0.763618
H57   H     H_    0.695856 0.794491 0.787634 0.265243
H58   H     H_    0.672531 0.722517 0.667421 0.221400
N7    N     N_3   0.578958 0.030654 0.039823 -0.692353
H59   H     H_    0.610885 0.077316 0.995709 0.240280
H60   H     H_    0.540337 0.946593 0.999052 0.240189
N8    N     N_3   0.421041 0.530655 0.960176 -0.692353
H61   H     H_    0.389115 0.577317 0.004291 0.240280
H62   H     H_    0.459662 0.446594 0.000948 0.240189
N9    N     N_3   0.943846 0.822708 0.496247 -0.677090
H63   H     H_    0.971414 0.946309 0.512962 0.248134
H64   H     H_    0.912321 0.812874 0.546201 0.217581
N10   N     N_3   0.056154 0.322708 0.503753 -0.677090
H65   H     H_    0.028586 0.446310 0.487038 0.248134
H66   H     H_    0.087679 0.312873 0.453799 0.217581

loop_
_geom_bond_atom_site_label_1
_geom_bond_atom_site_label_2
_ccdc_geom_bond_type
C34   C36   S    
C60   H54   S    
C14   C16   A    
H20   C46   S    
C7    C29   A    
O18   V4    S    
C11   C13   A    
C31   C50   S    
N5    H55   S    
O1    C3    A    
C59   C60   S    
C40   H22   S    
C35   N3    S    
C2    O7    A    
N4    H34   S    
O12   V3    S    
C12   N10   S    
C58   H47   S    
C23   C25   A    
H17   C37   S    
O5    C3    A    
C14   H10   S    
C4    C7    S    
C13   H9    S    
C16   C20   A    
N8    H61   S    
N5    H56   S    
C5    C29   A    
N3    H32   S    
C44   C46   S    
C33   H13   S    
N2    H29   S    
O16   C52   A    
O2    C4    A    
C11   N9    S    
O21   C53   S    
C3    C8    S    
C7    C27   A    
C53   H35   S    
C60   H53   S    
C33   C41   S    
C35   H15   S    
O14   V4    S    
C36   H16   S    
C26   H12   S    
C49   O18   A    
C25   H11   S    
N7    H59   S    
C35   C43   S    
C57   H45   S    
C47   N5    S    
C32   C49   S    
C18   C26   A    
C38   C42   S    
C46   H26   S    
N9    H64   S    
C37   C41   S    
O13   C49   A    
C19   C27   A    
C9    C31   A    
O13   V3    S    
C20   C28   A    
C10   C32   A    
C54   H38   S    
C24   C26   A    
C5    N7    S    
O6    V2    S    
C57   H46   S    
C6    C30   A    
O20   V4    S    
N4    H33   S    
C42   C51   S    
N10   H66   S    
C43   C45   S    
C41   C52   S    
C33   N1    S    
O24   C59   S    
C39   H21   S    
C38   C46   S    
O22   C55   S    
H19   C45   S    
C59   H50   S    
C40   C42   S    
O15   V3    S    
C39   C41   S    
C27   H5    S    
C2    C43   S    
O5    V1    S    
C50   O17   A    
C34   N2    S    
C16   C18   A    
O4    V2    S    
C56   H43   S    
C48   O24   S    
C37   H23   S    
C10   H8    S    
O11   V4    S    
C44   C48   S    
O14   C50   A    
N9    H63   S    
H3    C23   S    
C43   C47   S    
O6    C4    A    
H4    C24   S    
C15   C17   A    
C39   O21   S    
N1    H28   S    
O1    V2    S    
C5    C21   A    
O2    V1    S    
C48   N6    S    
C58   H49   S    
C55   C56   S    
O4    C2    A    
O19   V3    S    
C40   O22   S    
C8    C28   A    
N6    H58   S    
C37   C45   S    
N7    H60   S    
C56   H42   S    
O15   C51   A    
C45   H25   S    
C38   H24   S    
C34   C42   S    
C55   H41   S    
N10   H65   S    
C54   H39   S    
C28   H6    S    
C58   H48   S    
C19   C21   A    
O10   V1    S    
C36   C44   S    
C6    N8    S    
C59   H51   S    
O3    C1    A    
C54   H37   S    
H1    C29   S    
C33   C35   S    
C9    C11   A    
C18   C32   A    
C10   C12   A    
C9    H7    S    
C53   C54   S    
C8    C30   A    
N8    H62   S    
C6    C22   A    
C56   H44   S    
C17   C25   A    
C1    O8    A    
C13   C15   A    
O8    V2    S    
N3    H31   S    
C20   C22   A    
C22   C24   A    
H18   C38   S    
N2    H30   S    
C57   C58   S    
C17   C31   A    
C12   C14   A    
O20   V3    S    
C53   H36   S    
C15   C19   A    
O7    V1    S    
O23   C57   S    
H2    C30   S    
C47   O23   S    
O12   C52   A    
O17   V3    S    
O19   V4    S    
C36   N4    S    
O16   V4    S    
C21   C23   A    
O9    V2    S    
N1    H27   S    
N6    H57   S    
O3    V1    S    
O11   C51   A    
C1    C44   S    
C34   H14   S    
C40   C48   S    
C60   H52   S    
C55   H40   S    
C39   C47   S    
