data_mof_unit_32886.cif
_audit_creation_date              2013-03-05T15:50:08-0500
_audit_creation_method            fapswitch 2.2
_symmetry_space_group_name_H-M    P1
_symmetry_Int_Tables_number       1
_space_group_crystal_system       triclinic
_cell_length_a                    12.231672
_cell_length_b                    12.815436
_cell_length_c                    15.707506
_cell_angle_alpha                 84.664317
_cell_angle_beta                  113.322762
_cell_angle_gamma                 94.197587
_cell_volume                      2249.44794253

loop_
_atom_site_label
_atom_site_type_symbol
_atom_site_description
_atom_site_fract_x
_atom_site_fract_y
_atom_site_fract_z
_atom_type_partial_charge
O1    O     O_R   0.580150 0.341050 0.504560 -0.620779
O2    O     O_R   0.419850 0.658950 0.495440 -0.638757
O3    O     O_R   0.388090 0.353760 0.493600 -0.586475
O4    O     O_R   0.611910 0.646240 0.506400 -0.650353
C1    C     C_R   0.477803 0.300771 0.500960 0.887019
C2    C     C_R   0.522705 0.700042 0.502085 0.853306
O5    O     O_R   0.650890 0.490020 0.640860 -0.645738
O6    O     O_R   0.349110 0.509980 0.359140 -0.629960
O7    O     O_R   0.458830 0.502730 0.629890 -0.518255
O8    O     O_R   0.541170 0.497270 0.370110 -0.530246
C3    C     C_R   0.573872 0.496352 0.678795 0.897767
C4    C     C_R   0.426286 0.503157 0.321033 0.902541
Zn1   Zn    Zn3+2 0.628240 0.491510 0.507320 0.953490
Zn2   Zn    Zn3+2 0.371760 0.508490 0.492680 0.972984
C5    C     C_R   0.618529 0.495331 0.780842 -0.351399
C6    C     C_R   0.385621 0.513381 0.218612 -0.293836
C7    C     C_R   0.782005 0.485920 0.932711 0.230935
C8    C     C_R   0.245635 0.584187 0.068422 0.178571
C9    C     C_R   0.740974 0.509804 0.836062 0.115723
C10   C     C_R   0.269966 0.543943 0.160799 0.101882
C11   C     C_R   0.538247 0.481886 0.824796 0.549742
C12   C     C_R   0.465999 0.496208 0.178790 0.538712
C13   C     C_R   0.578132 0.501860 0.918616 -0.087866
C14   C     C_R   0.445390 0.536844 0.087549 -0.095107
C15   C     C_R   0.699596 0.486500 0.976635 -0.200034
C16   C     C_R   0.334250 0.580992 0.030746 -0.128383
C17   C     C_R   0.498554 0.534497 0.955042 -0.125223
C18   C     C_R   0.532381 0.528489 0.050726 -0.157564
C19   C     C_R   0.654706 0.525537 0.107057 0.635895
C20   C     C_R   0.399270 0.595612 0.901047 0.557024
C21   C     C_R   0.733909 0.485443 0.074339 0.065204
C22   C     C_R   0.317665 0.619960 0.938765 0.103790
C23   C     C_R   0.533009 0.812748 0.500166 -0.173451
C24   C     C_R   0.465894 0.189911 0.510148 -0.191446
C25   C     C_R   0.478606 0.035168 0.613263 0.581898
C26   C     C_R   0.528810 0.971472 0.403269 0.595216
C27   C     C_R   0.472582 0.143812 0.595363 -0.387327
C28   C     C_R   0.552559 0.866039 0.426012 -0.384646
C29   C     C_R   0.468095 0.131733 0.440688 0.191495
C30   C     C_R   0.498511 0.865892 0.559440 0.182123
C31   C     C_R   0.495678 0.026274 0.462544 -0.097555
C32   C     C_R   0.491439 0.975461 0.546188 -0.091338
H1    H     H_    0.577015 0.824493 0.380670 0.135603
H2    H     H_    0.476391 0.193733 0.648475 0.165384
N1    N     N_R   0.799120 0.480200 0.517090 -0.184010
N2    N     N_R   0.200880 0.519800 0.482910 -0.201423
C33   C     C_R   0.020354 0.617882 0.431487 0.198473
C34   C     C_R   0.989960 0.393363 0.586106 0.153005
C35   C     C_R   0.132968 0.601809 0.428922 0.174790
C36   C     C_R   0.868782 0.400887 0.574295 0.194527
C37   C     C_R   0.153239 0.447319 0.530207 0.656000
C38   C     C_R   0.845092 0.544948 0.462873 0.586894
C39   C     C_R   0.037850 0.460209 0.531667 -0.228459
C40   C     C_R   0.967609 0.541477 0.475492 -0.219358
N3    N     N_2   0.839806 0.435812 0.137608 -0.334168
H3    H     H_    0.850143 0.365531 0.115484 0.226216
C41   C     C_3   0.868385 0.428783 0.236812 -0.687182
H4    H     H_    0.945875 0.378706 0.273495 0.186938
H5    H     H_    0.792519 0.392435 0.252297 0.277307
H6    H     H_    0.893470 0.507427 0.264248 0.285177
N4    N     N_2   0.225791 0.690092 0.886134 -0.289730
H7    H     H_    0.188517 0.679612 0.815858 0.247725
C42   C     C_3   0.256339 0.799156 0.905277 -0.777964
H8    H     H_    0.176128 0.846316 0.869174 0.225994
H9    H     H_    0.325433 0.829967 0.879524 0.233852
H10   H     H_    0.289660 0.808700 0.981081 0.248558
N5    N     N_2   0.819980 0.322238 0.620981 -0.300096
H11   H     H_    0.754909 0.342369 0.641219 0.272786
C43   C     C_3   0.808572 0.215718 0.593179 -0.759058
H12   H     H_    0.714564 0.186472 0.568892 0.258188
H13   H     H_    0.861220 0.163665 0.654064 0.224385
H14   H     H_    0.839617 0.210081 0.536148 0.230822
N6    N     N_2   0.178489 0.673249 0.373597 -0.276695
H15   H     H_    0.253216 0.649813 0.368943 0.305949
C44   C     C_3   0.099373 0.715745 0.282876 -0.869722
H16   H     H_    0.147356 0.727754 0.235521 0.232578
H17   H     H_    0.072733 0.794900 0.288157 0.252686
H18   H     H_    0.020812 0.662112 0.251015 0.245143
N7    N     N_2   0.967480 0.716973 0.402641 -0.275023
H19   H     H_    0.927789 0.736127 0.332562 0.241776
C45   C     C_3   0.024812 0.802433 0.460672 -0.839157
H20   H     H_    0.959247 0.863540 0.447854 0.235932
H21   H     H_    0.099511 0.838085 0.443434 0.252640
H22   H     H_    0.057996 0.774752 0.535441 0.248457
N8    N     N_2   0.065645 0.322110 0.656366 -0.249264
H23   H     H_    0.041301 0.244002 0.647838 0.229171
C46   C     C_3   0.100322 0.350077 0.750908 -0.752099
H24   H     H_    0.170821 0.298034 0.798627 0.217115
H25   H     H_    0.023826 0.338554 0.772058 0.228374
H26   H     H_    0.135607 0.432665 0.758175 0.259281
O9    O     O_3   0.561564 0.433253 0.228523 -0.542241
C47   C     C_3   0.533860 0.331240 0.196611 -0.353882
H27   H     H_    0.546948 0.327554 0.130949 0.154807
H28   H     H_    0.441340 0.303408 0.186056 0.149053
H29   H     H_    0.595674 0.276158 0.249410 0.220346
O10   O     O_3   0.420941 0.449619 0.776840 -0.536407
C48   C     C_3   0.413394 0.339535 0.792055 -0.280663
H30   H     H_    0.422743 0.316895 0.864658 0.131779
H31   H     H_    0.480767 0.300247 0.776173 0.122672
H32   H     H_    0.325071 0.309861 0.744794 0.242789
N9    N     N_2   0.176114 0.525901 0.193501 -0.262437
H33   H     H_    0.101831 0.569524 0.162221 0.250174
C49   C     C_3   0.151289 0.417837 0.219612 -0.739806
H34   H     H_    0.064236 0.389343 0.169965 0.232879
H35   H     H_    0.148071 0.413134 0.289418 0.248893
H36   H     H_    0.219701 0.364538 0.221157 0.225568
N10   N     N_2   0.817807 0.570570 0.800058 -0.272587
H37   H     H_    0.778568 0.634247 0.755942 0.218517
C50   C     C_3   0.891931 0.514531 0.768961 -0.683572
H38   H     H_    0.884022 0.547151 0.698884 0.223199
H39   H     H_    0.865866 0.430229 0.766020 0.226988
H40   H     H_    0.986315 0.523604 0.816443 0.219707
N11   N     N_2   0.907136 0.482450 0.983192 -0.271674
H41   H     H_    0.941221 0.517247 0.045025 0.251921
C51   C     C_3   0.959943 0.385112 0.982078 -0.808521
H42   H     H_    0.935184 0.321229 0.024393 0.217971
H43   H     H_    0.058412 0.396194 0.010068 0.249537
H44   H     H_    0.929797 0.359444 0.910818 0.245576
N12   N     N_2   0.128720 0.618302 0.013063 -0.281681
H45   H     H_    0.089320 0.596347 0.946141 0.266096
C52   C     C_3   0.096315 0.718584 0.030084 -0.789721
H46   H     H_    0.070211 0.771549 0.965892 0.255022
H47   H     H_    0.170919 0.757008 0.086539 0.228341
H48   H     H_    0.018136 0.707024 0.049474 0.224929
O11   O     O_3   0.698905 0.586565 0.182437 -0.532284
C53   C     C_3   0.727832 0.687416 0.150151 -0.350808
H49   H     H_    0.806295 0.685360 0.131352 0.155823
H50   H     H_    0.751153 0.742078 0.205316 0.176214
H51   H     H_    0.651013 0.721284 0.090125 0.143125
O12   O     O_3   0.394248 0.650119 0.819236 -0.598092
C54   C     C_3   0.487553 0.728542 0.840179 -0.330404
H52   H     H_    0.562960 0.701750 0.826616 0.174714
H53   H     H_    0.521421 0.753561 0.912703 0.130335
H54   H     H_    0.454233 0.799643 0.794303 0.232657
N13   N     N_2   0.461455 0.808631 0.626561 -0.253917
H55   H     H_    0.502430 0.738717 0.654035 0.219868
C55   C     C_3   0.333306 0.800977 0.599717 -0.674854
H56   H     H_    0.310218 0.749732 0.651467 0.261700
H57   H     H_    0.288830 0.766924 0.531710 0.254634
H58   H     H_    0.297467 0.879377 0.594500 0.226890
N14   N     N_2   0.435487 0.177417 0.347994 -0.244359
H59   H     H_    0.459187 0.255712 0.342317 0.228589
C56   C     C_3   0.312532 0.154428 0.288553 -0.810768
H60   H     H_    0.252022 0.191696 0.313099 0.223854
H61   H     H_    0.292851 0.068412 0.288381 0.249573
H62   H     H_    0.295290 0.185191 0.216194 0.224421
O13   O     O_3   0.490921 0.988030 0.700114 -0.590847
C57   C     C_3   0.415413 0.030958 0.735521 -0.367458
H63   H     H_    0.326295 0.049161 0.680593 0.154059
H64   H     H_    0.459150 0.101509 0.773171 0.165699
H65   H     H_    0.400253 0.972863 0.786891 0.179766
O14   O     O_3   0.552063 0.025002 0.330607 -0.585641
C58   C     C_3   0.492678 0.975353 0.246717 -0.332710
H66   H     H_    0.402694 0.941843 0.238788 0.149079
H67   H     H_    0.548226 0.913735 0.240925 0.154836
H68   H     H_    0.479856 0.034808 0.187899 0.189759
O15   O     O_3   0.767881 0.588381 0.378375 -0.542984
C59   C     C_3   0.726705 0.684183 0.387984 -0.106446
H69   H     H_    0.767363 0.712665 0.459327 0.138089
H70   H     H_    0.628626 0.676383 0.360488 0.179479
H71   H     H_    0.745509 0.746734 0.342015 0.122049
O16   O     O_3   0.215449 0.358143 0.571193 -0.562158
C60   C     C_3   0.167012 0.276869 0.510120 -0.317136
H72   H     H_    0.221490 0.206884 0.539859 0.189401
H73   H     H_    0.168593 0.299108 0.440370 0.159616
H74   H     H_    0.074205 0.253649 0.501776 0.135169

loop_
_geom_bond_atom_site_label_1
_geom_bond_atom_site_label_2
_geom_bond_distance
_ccdc_geom_bond_type
C15   C21   1.420753 A    
C56   H62   1.109402 S    
Zn1   N1    2.049269 S    
N3    H3    1.028419 S    
C42   H9    1.107217 S    
C44   H16   1.110219 S    
C16   C22   1.423574 A    
N9    H33   1.024354 S    
C19   O11   1.381797 S    
C24   C27   1.385868 A    
N6    C44   1.450727 S    
C31   C32   1.429264 A    
C60   H72   1.108939 S    
C8    C16   1.430270 A    
C57   H65   1.107389 S    
C33   N7    1.420338 S    
C46   H24   1.108914 S    
C54   H54   1.102416 S    
C48   H32   1.104608 S    
C45   H20   1.109824 S    
C7    N11   1.419775 S    
N13   H55   1.030898 S    
C29   C31   1.395351 A    
N8    H23   1.028737 S    
O5    C3    1.309114 A    
C55   H57   1.104218 S    
N2    C35   1.384913 A    
C53   H49   1.112874 S    
O1    C1    1.300627 A    
C12   C14   1.408215 A    
C18   C19   1.405998 A    
C60   H73   1.113481 S    
C57   H64   1.109741 S    
C22   N4    1.424128 S    
O16   C60   1.414766 S    
C43   H12   1.106509 S    
C50   H39   1.103701 S    
C41   H5    1.109801 S    
C56   H60   1.111990 S    
C37   O16   1.379165 S    
N4    C42   1.447874 S    
N6    H15   1.013998 S    
O4    Zn1   2.005617 S    
C43   H13   1.109450 S    
C25   C32   1.420766 A    
C52   H48   1.109333 S    
C59   H71   1.101683 S    
C45   H21   1.108463 S    
C3    C5    1.473676 S    
O15   C59   1.403212 S    
C30   N13   1.428729 S    
O13   C57   1.415270 S    
C51   H43   1.109689 S    
C6    C12   1.396612 A    
C12   O9    1.387569 S    
C13   C17   1.412380 A    
C58   H67   1.111014 S    
C36   N5    1.425148 S    
O6    C4    1.313880 A    
C34   C36   1.428467 A    
C42   H10   1.111009 S    
N9    C49   1.452495 S    
N13   C55   1.451289 S    
O10   C48   1.411248 S    
C17   C20   1.416935 A    
C59   H70   1.102689 S    
N10   C50   1.444847 S    
C26   C31   1.409402 A    
O2    C2    1.296244 A    
C4    C6    1.479679 S    
C48   H31   1.114325 S    
C38   C40   1.435257 A    
C48   H30   1.112597 S    
N12   C52   1.450034 S    
C11   C13   1.399230 A    
C34   C39   1.412478 A    
C55   H58   1.108640 S    
C23   C30   1.407077 A    
N8    C46   1.446248 S    
N5    H11   1.023118 S    
C29   N14   1.427441 S    
C60   H74   1.111018 S    
C57   H63   1.114522 S    
C33   C35   1.424241 A    
C50   H40   1.103304 S    
O9    C47   1.413426 S    
N7    C45   1.445415 S    
C26   O14   1.391778 S    
C41   H6    1.107462 S    
C10   N9    1.428668 S    
O6    Zn2   2.002533 S    
C53   H51   1.114618 S    
O3    C1    1.293326 A    
C20   O12   1.385591 S    
N2    C37   1.374602 A    
C47   H29   1.109289 S    
C24   C29   1.387250 A    
Zn2   N2    2.049271 S    
C43   H14   1.112343 S    
C5    C9    1.410851 A    
O7    Zn2   1.987239 S    
O7    C3    1.313812 A    
C5    C11   1.400213 A    
C6    C10   1.406075 A    
C51   H44   1.104962 S    
C1    C24   1.417282 S    
C47   H28   1.112983 S    
C49   H35   1.108592 S    
C25   O13   1.395009 S    
C58   H68   1.109312 S    
C44   H17   1.107933 S    
C52   H46   1.108548 S    
O3    Zn2   2.005616 S    
O8    C4    1.312079 A    
C33   C40   1.409796 A    
C21   N3    1.433094 S    
O4    C2    1.308991 A    
N3    C41   1.451074 S    
O11   C53   1.416344 S    
C35   N6    1.436640 S    
N7    H19   1.025516 S    
O1    Zn1   1.973624 S    
N10   H37   1.032137 S    
C54   H52   1.108854 S    
C17   C18   1.388076 A    
C45   H22   1.111763 S    
N11   H41   1.024067 S    
N5    C43   1.452035 S    
C38   O15   1.382165 S    
C56   H61   1.110989 S    
C53   H50   1.100388 S    
C25   C27   1.396017 A    
C14   C18   1.411977 A    
C14   C16   1.422151 A    
C30   C32   1.404177 A    
C54   H53   1.116663 S    
O8    Zn1   1.987240 S    
N12   H45   1.024892 S    
C39   C40   1.400438 A    
C11   O10   1.382915 S    
C55   H56   1.107757 S    
C23   C28   1.388874 A    
N1    C38   1.381816 A    
C2    C23   1.439192 S    
C7    C15   1.429994 A    
C27   H2    1.082391 S    
N14   C56   1.447344 S    
O12   C54   1.420251 S    
C28   H1    1.069010 S    
C19   C21   1.408148 A    
C50   H38   1.109856 S    
C20   C22   1.411714 A    
C41   H4    1.109083 S    
C59   H69   1.115599 S    
N1    C36   1.384648 A    
C26   C28   1.386780 A    
C47   H27   1.110180 S    
C7    C9    1.408187 A    
C49   H36   1.109906 S    
C8    C10   1.414691 A    
C13   C15   1.419136 A    
N4    H7    1.031753 S    
O2    Zn2   1.973624 S    
C44   H18   1.110299 S    
C52   H47   1.111848 S    
C42   H8    1.109936 S    
O5    Zn1   2.002533 S    
O14   C58   1.413919 S    
C46   H26   1.111803 S    
C49   H34   1.101734 S    
C46   H25   1.106551 S    
C34   N8    1.426938 S    
C37   C39   1.442342 A    
C58   H66   1.115164 S    
N14   H59   1.029567 S    
C8    N12   1.424269 S    
C51   H42   1.107083 S    
N11   C51   1.450710 S    
C9    N10   1.428735 S    
