data_mof_unit_54814.cif
_audit_creation_date              2012-10-26T20:48:02-0400
_audit_creation_method            fapswitch 2.2
_symmetry_space_group_name_H-M    P1
_symmetry_Int_Tables_number       1
_space_group_crystal_system       triclinic
_cell_length_a                    15.241725
_cell_length_b                    13.90515
_cell_length_c                    10.996434
_cell_angle_alpha                 89.561843
_cell_angle_beta                  93.717992
_cell_angle_gamma                 91.647858
_cell_volume                      2324.66143536

loop_
_atom_site_label
_atom_site_type_symbol
_atom_type_description
_atom_site_fract_x
_atom_site_fract_y
_atom_site_fract_z
_atom_type_partial_charge
C1    C     C_R   0.329547 0.497887 0.501015 0.592839
C2    C     C_R   0.916870 0.531729 0.570883 0.007228
C3    C     C_R   0.803411 0.440894 0.390681 0.039553
C4    C     C_R   0.827631 0.554527 0.559144 -0.032149
C5    C     C_R   0.768028 0.500858 0.479454 0.049484
C6    C     C_R   0.951157 0.474758 0.481861 0.038189
C7    C     C_R   0.559047 0.097511 0.509647 -0.089190
C8    C     C_R   0.514661 0.901597 0.587644 -0.090448
C9    C     C_R   0.496487 0.500484 0.260136 0.591630
C10   C     C_R   0.569962 0.197290 0.527364 0.404733
C11   C     C_R   0.534575 0.803640 0.590187 0.384977
C12   C     C_3   0.566707 0.427515 0.940640 0.360189
C13   C     C_R   0.421658 0.215923 0.455785 0.093302
C14   C     C_R   0.450665 0.781748 0.404531 0.097196
C15   C     C_R   0.408599 0.114450 0.446460 -0.123646
C16   C     C_R   0.437835 0.882542 0.394026 -0.135074
C17   C     C_R   0.478154 0.053333 0.476651 -0.032522
C18   C     C_R   0.471334 0.944544 0.486775 -0.022030
C19   C     C_R   0.670523 0.501129 0.493819 0.592776
C20   C     C_R   0.495870 0.499424 0.740422 0.599621
C21   C     C_3   0.515135 0.605800 0.074245 0.048443
C22   C     C_3   0.400105 0.470770 0.064265 0.103493
C23   C     C_R   0.089369 0.549444 0.419676 -0.105248
C24   C     C_3   0.509773 0.605251 0.932244 -0.132369
C25   C     C_3   0.401188 0.461658 0.922094 -0.155379
C26   C     C_3   0.564880 0.434836 0.081257 -0.193833
C27   C     C_3   0.494390 0.501871 0.123141 -0.074226
C28   C     C_3   0.492789 0.498600 0.879520 -0.056431
C29   C     C_3   0.745379 0.396408 0.288351 -0.316675
C30   C     C_3   0.802004 0.645678 0.616858 -0.274747
C31   C     C_3   0.444196 0.684288 0.887474 -0.383844
C32   C     C_3   0.318220 0.504955 0.855864 -0.375510
C33   C     C_3   0.938038 0.373430 0.292943 -0.347896
C34   C     C_R   0.095030 0.404685 0.540411 -0.097577
C35   C     C_3   0.977445 0.571561 0.675134 -0.376053
C36   C     C_R   0.180828 0.557985 0.425507 0.250730
C37   C     C_R   0.186742 0.411410 0.552922 0.186130
C38   C     C_R   0.232008 0.490368 0.495847 -0.018694
C39   C     C_R   0.047033 0.473808 0.476794 -0.090685
C40   C     C_R   0.895813 0.430624 0.389891 0.028129
Cu1   Cu    Cu3+1 0.499990 0.596430 0.500000 1.146398
Cu2   Cu    Cu3+1 0.499990 0.403570 0.500000 1.180263
H1    H     H_    0.615045 0.051716 0.525006 0.179110
H2    H     H_    0.394696 0.385708 0.896515 0.279738
H3    H     H_    0.628759 0.461275 0.119529 0.166309
H4    H     H_    0.556491 0.363389 0.125234 0.202376
H5    H     H_    0.049794 0.602770 0.371403 0.186027
H6    H     H_    0.059791 0.346411 0.583839 0.192165
H7    H     H_    0.549476 0.805404 0.168557 0.334106
H8    H     H_    0.255192 0.349551 0.274662 0.363397
H9    H     H_    0.674874 0.406081 0.298020 0.142282
H10   H     H_    0.763151 0.429985 0.201116 0.174670
H11   H     H_    0.754863 0.318003 0.282330 0.194056
H12   H     H_    0.541890 0.947623 0.660696 0.173160
H13   H     H_    0.749324 0.679584 0.560059 0.236695
H14   H     H_    0.786363 0.631368 0.712287 0.231963
H15   H     H_    0.856506 0.700513 0.617667 0.148372
H16   H     H_    0.756334 0.339206 0.678683 0.367431
H17   H     H_    0.664318 0.853779 0.864302 0.409777
H18   H     H_    0.475139 0.756063 0.905791 0.209190
H19   H     H_    0.421762 0.682158 0.790262 0.185672
H20   H     H_    0.384558 0.683920 0.939454 0.112923
H21   H     H_    0.328470 0.523505 0.759668 0.139598
H22   H     H_    0.262686 0.451638 0.856099 0.232175
H23   H     H_    0.367353 0.259850 0.425809 0.204753
H24   H     H_    0.294139 0.568661 0.901164 0.134197
H25   H     H_    0.806012 0.399494 0.901939 0.354578
H26   H     H_    0.463280 0.177582 0.949603 0.383820
H27   H     H_    0.252725 0.802341 0.391225 0.360065
H28   H     H_    0.250402 0.164191 0.605767 0.377037
H29   H     H_    0.983611 0.421280 0.243868 0.160237
H30   H     H_    0.976027 0.314244 0.337085 0.167785
H31   H     H_    0.891545 0.340447 0.222985 0.152678
H32   H     H_    0.017636 0.513180 0.716957 0.156051
H33   H     H_    0.021751 0.628955 0.640852 0.155364
H34   H     H_    0.422640 0.736421 0.332343 0.196427
H35   H     H_    0.941115 0.600907 0.750055 0.155518
H36   H     H_    0.344447 0.084525 0.417010 0.146199
H37   H     H_    0.403883 0.911393 0.312874 0.126001
H38   H     H_    0.461496 0.649826 0.106422 0.128742
H39   H     H_    0.356577 0.530633 0.083747 0.166882
H40   H     H_    0.573759 0.629144 0.900879 0.288270
N1    N     N_R   0.500020 0.258690 0.500000 -0.241037
N2    N     N_R   0.500020 0.741310 0.500000 -0.233380
O1    O     O_R   0.371450 0.581430 0.500010 -0.469593
O2    O     O_2   0.666615 0.717175 0.043772 -0.201093
O3    O     O_3   0.580408 0.760889 0.226379 -0.493606
O4    O     O_2   0.279488 0.322670 0.039153 -0.221278
O5    O     O_2   0.407936 0.292966 0.177741 -0.251562
O6    O     O_3   0.289801 0.406452 0.248211 -0.514390
O7    O     O_2   0.715993 0.145380 0.657946 -0.235729
O8    O     O_2   0.735202 0.241879 0.476912 -0.332851
O9    O     O_3   0.692204 0.324414 0.673356 -0.380350
O10   O     O_2   0.637998 0.676157 0.716483 -0.257218
O11   O     O_2   0.703690 0.827981 0.648589 -0.306362
O12   O     O_R   0.371450 0.418570 0.500010 -0.478174
O13   O     O_3   0.605433 0.832328 0.829767 -0.551840
O14   O     O_2   0.677431 0.491731 0.766970 -0.276314
O15   O     O_2   0.715097 0.546604 0.972280 -0.258583
O16   O     O_3   0.747997 0.372619 0.923005 -0.451840
O17   O     O_2   0.551223 0.269763 0.778964 -0.187579
O18   O     O_2   0.626770 0.245269 0.976290 -0.207852
O19   O     O_3   0.459814 0.247654 0.963345 -0.490863
O20   O     O_2   0.300787 0.619809 0.271285 -0.294086
O21   O     O_2   0.156958 0.692928 0.250159 -0.281857
O22   O     O_3   0.260828 0.741508 0.437499 -0.537264
O23   O     O_R   0.499980 0.581440 0.317690 -0.473061
O24   O     O_2   0.327537 0.334834 0.688961 -0.280366
O25   O     O_2   0.179524 0.293742 0.745993 -0.256078
O26   O     O_3   0.231288 0.217506 0.550897 -0.542690
O27   O     O_R   0.499980 0.418560 0.317690 -0.495946
O28   O     O_R   0.628540 0.581440 0.499990 -0.453613
O29   O     O_R   0.628540 0.418560 0.499990 -0.455969
O30   O     O_R   0.500010 0.581440 0.682310 -0.494977
O31   O     O_R   0.500010 0.418560 0.682310 -0.402195
O32   O     O_2   0.671352 0.608436 0.219038 -0.257145
S1    S     S_3+6 0.612950 0.671472 0.139702 0.053143
S2    S     S_3+6 0.344866 0.367867 0.131458 0.038960
S3    S     S_3+6 0.679821 0.228276 0.583651 0.089102
S4    S     S_3+6 0.622913 0.780345 0.696244 0.002633
S5    S     S_3+6 0.678026 0.463109 0.898417 0.044258
S6    S     S_3+6 0.551942 0.296228 0.910272 0.088894
S7    S     S_3+6 0.225767 0.653832 0.340098 0.011947
S8    S     S_3+6 0.234748 0.315296 0.640085 -0.009072

loop_
_geom_bond_atom_site_label_1
_geom_bond_atom_site_label_2
_ccdc_geom_bond_type
C2    C35   S    
C9    O27   A    
O14   S5    D    
C35   H32   S    
C7    C10   A    
C34   C37   A    
Cu1   Cu2   S    
C31   H19   S    
H26   O19   S    
C14   N2    A    
Cu1   O30   S    
O20   S7    D    
C13   H23   S    
C19   O28   A    
C25   C28   S    
C35   H33   S    
C26   C27   S    
C12   C28   S    
Cu2   O12   S    
O6    S2    S    
C11   N2    A    
H16   O9    S    
O3    S1    S    
C6    C40   A    
C8    C11   A    
C15   H36   S    
C19   O29   A    
C30   H15   S    
C10   N1    A    
O32   S1    D    
O21   S7    D    
C22   S2    S    
O16   S5    S    
C3    C29   S    
H7    O3    S    
C24   H40   S    
C10   S3    S    
H28   O26   S    
C26   H3    S    
O26   S8    S    
O10   S4    D    
H8    O6    S    
C12   S5    S    
C7    C17   A    
Cu1   O28   S    
O22   S7    S    
C21   S1    S    
C7    H1    S    
C33   H30   S    
O15   S5    D    
C25   C32   S    
C21   C27   S    
C31   H20   S    
C2    C6    A    
O24   S8    D    
C11   S4    S    
C25   H2    S    
C1    O1    A    
C33   C40   S    
C23   H5    S    
C34   C39   A    
C22   H39   S    
C36   S7    S    
C32   H22   S    
C8    H12   S    
C33   H29   S    
C20   C28   S    
Cu1   N2    S    
C30   H14   S    
C35   H35   S    
C8    C18   A    
C12   C26   S    
C14   H34   S    
C31   H18   S    
C2    C4    A    
Cu2   O27   S    
C37   C38   A    
C37   S8    S    
Cu2   O29   S    
C17   C18   S    
C1    C38   S    
H25   O16   S    
C33   H31   S    
C22   C25   S    
C3    C40   A    
C22   C27   S    
C13   C15   A    
H17   O13   S    
C14   C16   A    
C34   H6    S    
O4    S2    D    
C9    C27   S    
C32   H24   S    
C29   H9    S    
C15   C17   A    
Cu1   O23   S    
O8    S3    D    
Cu2   N1    S    
C24   C28   S    
C32   H21   S    
C4    C5    A    
C3    C5    A    
C20   O31   A    
H27   O22   S    
O25   S8    D    
C5    C19   S    
O11   S4    D    
C9    O23   A    
Cu1   O1    S    
C30   H13   S    
C13   N1    A    
O17   S6    D    
C16   H37   S    
O13   S4    S    
C36   C38   A    
C24   C31   S    
C20   O30   A    
C29   H11   S    
C1    O12   A    
C23   C39   A    
C21   H38   S    
O2    S1    D    
O7    S3    D    
C26   H4    S    
Cu2   O31   S    
C12   S6    S    
O5    S2    D    
C16   C18   A    
C23   C36   A    
C21   C24   S    
C6    C39   S    
O9    S3    S    
O18   S6    D    
O19   S6    S    
C4    C30   S    
C29   H10   S    
