data_mof_unit_37834.cif
_audit_creation_date              2012-12-11T15:54:44-0500
_audit_creation_method            fapswitch 2.2
_symmetry_space_group_name_H-M    P1
_symmetry_Int_Tables_number       1
_space_group_crystal_system       triclinic
_cell_length_a                    6.926197
_cell_length_b                    14.555103
_cell_length_c                    16.075821
_cell_angle_alpha                 90.031382
_cell_angle_beta                  89.776326
_cell_angle_gamma                 90.179462
_cell_volume                      1620.60727006

loop_
_atom_site_label
_atom_site_type_symbol
_atom_type_description
_atom_site_fract_x
_atom_site_fract_y
_atom_site_fract_z
_atom_type_partial_charge
O1    O     O_R   0.638180 0.333920 0.163320 -0.536763
O2    O     O_R   0.361820 0.666080 0.836680 -0.536763
O3    O     O_R   0.308470 0.344960 0.336080 -0.546391
O4    O     O_R   0.691530 0.655040 0.663920 -0.546391
O5    O     O_R   0.138140 0.166110 0.336680 -0.538074
O6    O     O_R   0.861860 0.833890 0.663320 -0.538074
C1    C     C_R   0.477468 0.367115 0.365120 0.680978
C2    C     C_R   0.522532 0.632885 0.634880 0.680979
O7    O     O_R   0.308460 0.344950 0.163930 -0.532394
O8    O     O_R   0.691540 0.655050 0.836070 -0.532394
O9    O     O_R   0.138140 0.166100 0.163310 -0.540129
O10   O     O_R   0.861860 0.833900 0.836690 -0.540130
C3    C     C_R   0.478267 0.365665 0.133916 0.706830
C4    C     C_R   0.521733 0.634335 0.866083 0.706829
O11   O     O_R   0.638180 0.333930 0.336700 -0.545785
O12   O     O_R   0.361820 0.666070 0.663300 -0.545785
O13   O     O_3   0.471670 0.191340 0.250000 -0.370763
O14   O     O_3   0.528330 0.808660 0.750000 -0.370763
V1    V     V_3+5 0.196830 0.260900 0.250000 1.441495
V2    V     V_3+5 0.803170 0.739100 0.750000 1.441494
O15   O     O_R   0.808420 0.155070 0.163920 -0.542952
O16   O     O_R   0.191580 0.844930 0.836080 -0.542952
C5    C     C_R   0.977570 0.132569 0.135149 0.719658
C6    C     C_R   0.022430 0.867431 0.864850 0.719659
O17   O     O_R   0.808420 0.155080 0.336070 -0.540463
O18   O     O_R   0.191580 0.844920 0.663930 -0.540463
C7    C     C_R   0.976863 0.133338 0.364925 0.688321
C8    C     C_R   0.023137 0.866662 0.635075 0.688321
V3    V     V_3+5 0.696830 0.239130 0.250000 1.439795
V4    V     V_3+5 0.303170 0.760870 0.750000 1.439795
O19   O     O_3   0.971850 0.308690 0.250010 -0.368505
O20   O     O_3   0.028150 0.691310 0.749990 -0.368505
C9    C     C_R   0.842776 0.176174 0.531478 -0.157240
C10   C     C_R   0.157223 0.823826 0.468521 -0.157240
C11   C     C_R   0.779967 0.199783 0.611102 -0.158971
C12   C     C_R   0.220031 0.800217 0.388898 -0.158972
C13   C     C_R   0.793804 0.136837 0.676005 0.012976
C14   C     C_R   0.206193 0.863163 0.323995 0.012976
C15   C     C_R   0.870433 0.049686 0.661257 -0.171131
C16   C     C_R   0.129565 0.950313 0.338743 -0.171131
C17   C     C_R   0.933769 0.023511 0.580839 0.060129
C18   C     C_R   0.066231 0.976489 0.419161 0.060129
C19   C     C_R   0.919955 0.088166 0.514568 0.068206
C20   C     C_R   0.080045 0.911834 0.485432 0.068207
C21   C     C_R   0.013581 0.935207 0.566340 -0.171125
C22   C     C_R   0.986418 0.064793 0.433660 -0.171125
H1    H     H_    0.831182 0.228089 0.483660 0.110764
H2    H     H_    0.168817 0.771911 0.516340 0.110764
H3    H     H_    0.721602 0.267737 0.622116 0.124334
H4    H     H_    0.278395 0.732263 0.377884 0.124335
H5    H     H_    0.881571 0.003226 0.713578 0.102133
H6    H     H_    0.118427 0.996774 0.286422 0.102132
C23   C     C_R   0.179923 0.971443 0.970069 -0.117136
C24   C     C_R   0.820077 0.028557 0.029931 -0.117136
H7    H     H_    0.321028 0.950264 0.948244 0.118505
H8    H     H_    0.678972 0.049736 0.051756 0.118505
C25   C     C_R   0.168816 0.034799 0.035480 -0.121313
C26   C     C_R   0.831184 0.965201 0.964520 -0.121313
H9    H     H_    0.301908 0.060672 0.061877 0.120087
H10   H     H_    0.698092 0.939328 0.938123 0.120088
C27   C     C_R   0.988738 0.064246 0.066325 -0.053693
C28   C     C_R   0.011262 0.935754 0.933674 -0.053692
C29   C     C_R   0.321339 0.478416 0.464620 -0.155392
C30   C     C_R   0.678661 0.521584 0.535380 -0.155392
H11   H     H_    0.181261 0.463007 0.438288 0.116873
H12   H     H_    0.818739 0.536993 0.561712 0.116873
C31   C     C_R   0.332538 0.542206 0.529669 -0.156363
C32   C     C_R   0.667462 0.457794 0.470331 -0.156363
H13   H     H_    0.200552 0.574167 0.551273 0.115394
H14   H     H_    0.799448 0.425833 0.448727 0.115394
C33   C     C_R   0.511336 0.564610 0.566021 -0.043065
C34   C     C_R   0.488663 0.435389 0.433979 -0.043065
C35   C     C_R   0.339050 0.495051 0.052469 -0.166762
C36   C     C_R   0.660950 0.504949 0.947531 -0.166762
H15   H     H_    0.214296 0.492722 0.093457 0.133381
H16   H     H_    0.785704 0.507278 0.906543 0.133381
C37   C     C_R   0.345786 0.561290 0.989357 -0.034320
C38   C     C_R   0.654213 0.438710 0.010643 -0.034320
C39   C     C_R   0.508294 0.566620 0.935403 -0.097034
C40   C     C_R   0.491706 0.433380 0.064597 -0.097034
C41   C     C_1   0.269052 0.838105 0.241506 0.287377
N1    N     N_1   0.319362 0.818121 0.175181 -0.347576
C42   C     C_1   0.730942 0.161894 0.758494 0.287377
N2    N     N_1   0.680630 0.181878 0.824818 -0.347576
C43   C     C_1   0.185691 0.624415 0.984174 0.315104
N3    N     N_1   0.057133 0.674794 0.980435 -0.349000
C44   C     C_1   0.814309 0.375584 0.015826 0.315104
N4    N     N_1   0.942867 0.325205 0.019565 -0.349000

loop_
_geom_bond_atom_site_label_1
_geom_bond_atom_site_label_2
_ccdc_geom_bond_type
C38   C44   S    
C26   C28   A    
C15   H5    S    
C44   N4    T    
C29   H11   S    
O13   V3    S    
O4    C2    A    
V1    O19   S    
C41   N1    T    
C15   C17   A    
C43   N3    T    
O9    V1    S    
C36   H16   S    
C30   C32   A    
C11   C13   A    
O3    C1    A    
C24   C26   A    
C38   C40   A    
C25   H9    S    
C31   C33   A    
C26   H10   S    
C18   C22   A    
C30   C33   A    
O7    C3    A    
C9    C11   A    
O5    C7    A    
O7    V1    S    
O6    C8    A    
O8    V2    S    
C11   H3    S    
O3    V1    S    
O14   V4    S    
C10   C12   A    
C16   C18   A    
C3    C40   S    
C37   C43   S    
C2    O12   A    
C14   C16   A    
V3    O19   S    
C17   C19   A    
C18   C20   A    
O11   V3    S    
C29   C31   A    
C23   H7    S    
O17   V3    S    
C24   H8    S    
C8    C21   S    
C9    C19   A    
C10   C20   A    
O8    C4    A    
C1    C34   S    
C23   C25   A    
C1    O11   A    
C16   H6    S    
O15   V3    S    
C31   H13   S    
C30   H12   S    
C23   C28   A    
C42   N2    T    
C32   C34   A    
O10   V2    S    
O1    V3    S    
C37   C39   A    
C4    C39   S    
C7    C22   S    
O18   V4    S    
C36   C39   A    
O15   C5    A    
C14   C41   S    
C9    H1    S    
O16   C6    A    
O1    C3    A    
C35   H15   S    
C12   H4    S    
C20   C21   A    
V2    O20   S    
C2    C33   S    
C6    C28   S    
O16   V4    S    
C25   C27   A    
O5    V1    S    
C24   C27   A    
O17   C7    A    
O6    V2    S    
O10   C6    A    
O18   C8    A    
O2    V4    S    
C12   C14   A    
C13   C15   A    
C17   C21   A    
V4    O20   S    
O9    C5    A    
O13   V1    S    
C35   C40   A    
O14   V2    S    
O2    C4    A    
C19   C22   A    
O4    V2    S    
C5    C27   S    
C10   H2    S    
C29   C34   A    
C32   H14   S    
C36   C38   A    
C35   C37   A    
C13   C42   S    
O12   V4    S    
