data_mof_unit_28531.cif
_audit_creation_date              2012-12-10T17:24:41-0500
_audit_creation_method            fapswitch 2.2
_symmetry_space_group_name_H-M    P1
_symmetry_Int_Tables_number       1
_space_group_crystal_system       triclinic
_cell_length_a                    23.507558
_cell_length_b                    10.859492
_cell_length_c                    9.607976
_cell_angle_alpha                 88.236817
_cell_angle_beta                  89.464283
_cell_angle_gamma                 93.380348
_cell_volume                      2447.14552234

loop_
_atom_site_label
_atom_site_type_symbol
_atom_type_description
_atom_site_fract_x
_atom_site_fract_y
_atom_site_fract_z
_atom_type_partial_charge
C1    C     C_R   0.500319 0.261719 0.503222 0.809661
C2    C     C_R   0.963682 0.281739 0.527890 -0.136685
C3    C     C_R   0.023007 0.281219 0.529754 -0.133408
C4    C     C_R   0.056627 0.392336 0.516200 -0.022255
C5    C     C_R   0.030073 0.504857 0.500575 -0.009342
C6    C     C_R   0.063388 0.616835 0.486723 -0.022156
C7    C     C_R   0.036457 0.728479 0.471252 -0.130318
C8    C     C_R   0.977119 0.729015 0.469572 -0.138648
C9    C     C_R   0.116331 0.394107 0.517533 0.624008
C10   C     C_R   0.122964 0.613930 0.488468 0.622332
C11   C     C_R   0.239009 0.513735 0.628208 0.288379
C12   C     C_R   0.391000 0.499763 0.500597 0.835890
C13   C     C_R   0.298340 0.512310 0.627256 -0.225980
C14   C     C_R   0.328353 0.500555 0.501710 -0.144899
C15   C     C_R   0.298046 0.490002 0.376915 -0.226359
C16   C     C_R   0.238744 0.490928 0.377307 0.285696
C17   C     C_R   0.208978 0.502918 0.503072 0.216491
C18   C     C_R   0.761679 0.503696 0.372377 -0.138340
C19   C     C_R   0.702324 0.502071 0.372359 -0.206074
C20   C     C_R   0.671741 0.503518 0.498618 -0.093136
C21   C     C_R   0.701637 0.507795 0.624621 -0.242300
C22   C     C_R   0.761028 0.509599 0.624768 0.315027
C23   C     C_R   0.495858 0.736376 0.498383 0.776614
C24   C     C_R   0.791185 0.507043 0.498181 0.296539
C25   C     C_R   0.471512 0.099911 0.764908 -0.163872
C26   C     C_R   0.442304 0.029375 0.869432 -0.109415
C27   C     C_R   0.421162 0.910515 0.843393 -0.120197
C28   C     C_R   0.433587 0.858428 0.717106 -0.138078
C29   C     C_R   0.467057 0.925829 0.614035 0.096580
C30   C     C_R   0.479555 0.053305 0.630103 0.090574
C31   C     C_R   0.499710 0.126170 0.510873 -0.108704
C32   C     C_R   0.514943 0.067576 0.389090 -0.191918
C33   C     C_R   0.511842 0.940411 0.383920 -0.205343
C34   C     C_R   0.609018 0.501097 0.499424 0.805981
C35   C     C_R   0.489242 0.868880 0.496582 -0.099868
C36   C     C_R   0.576572 0.663422 0.137408 -0.141569
C37   C     C_R   0.614649 0.742863 0.062250 -0.201281
C38   C     C_R   0.615218 0.742492 0.918738 -0.178466
C39   C     C_R   0.577614 0.662929 0.849414 -0.115841
C40   C     C_R   0.538298 0.579523 0.921732 0.147558
C41   C     C_R   0.538013 0.579734 0.071289 0.182110
C42   C     C_R   0.462865 0.426844 0.079055 -0.034815
C43   C     C_R   0.462063 0.426642 0.932296 0.437088
C44   C     C_R   0.883755 0.616122 0.482469 0.584929
C45   C     C_R   0.877189 0.396272 0.510967 0.589542
C46   C     C_R   0.936757 0.393395 0.512533 -0.019250
C47   C     C_R   0.970060 0.505391 0.498776 -0.007932
C48   C     C_R   0.943486 0.617909 0.483290 -0.017818
Cu1   Cu    Cu3+1 0.500000 0.499990 0.640660 0.928746
Cu2   Cu    Cu3+1 0.500000 0.500010 0.359340 0.938908
H1    H     H_    0.939031 0.194447 0.538658 0.194714
H2    H     H_    0.680467 0.499297 0.273670 0.179606
H3    H     H_    0.679046 0.509703 0.723220 0.186550
H4    H     H_    0.531196 0.120299 0.298156 0.167305
H5    H     H_    0.490210 0.186639 0.796949 0.181745
H6    H     H_    0.435918 0.067477 0.970857 0.159661
H7    H     H_    0.396797 0.857084 0.922782 0.156476
H8    H     H_    0.416414 0.765447 0.700759 0.161204
H9    H     H_    0.528070 0.897975 0.292175 0.162702
H10   H     H_    0.432507 0.366972 0.138381 0.168196
H11   H     H_    0.042395 0.193535 0.541793 0.193041
H12   H     H_    0.578775 0.672209 0.246992 0.196509
H13   H     H_    0.643694 0.805753 0.116022 0.165606
H14   H     H_    0.644758 0.805077 0.860299 0.167715
H15   H     H_    0.581060 0.672015 0.739302 0.197026
H16   H     H_    0.061112 0.815762 0.460420 0.196661
H17   H     H_    0.957727 0.816700 0.457600 0.191397
H18   H     H_    0.320827 0.520929 0.724679 0.207203
H19   H     H_    0.320255 0.480605 0.278888 0.197069
H20   H     H_    0.784855 0.501864 0.274596 0.173607
N1    N     N_R   0.852103 0.506494 0.496749 -0.460506
N2    N     N_R   0.148019 0.503731 0.503563 -0.449588
N3    N     N_R   0.500540 0.501210 0.147910 -0.240182
N4    N     N_R   0.500560 0.501290 0.852040 -0.256298
O1    O     O_R   0.500000 0.319640 0.618810 -0.617844
O2    O     O_2   0.844515 0.290048 0.523957 -0.507416
O3    O     O_2   0.142612 0.287390 0.532367 -0.493225
O4    O     O_2   0.155672 0.720063 0.474972 -0.495204
O5    O     O_R   0.500000 0.319660 0.381240 -0.575293
O6    O     O_R   0.417880 0.499950 0.618810 -0.596517
O7    O     O_R   0.417880 0.499980 0.381240 -0.577141
O8    O     O_R   0.500000 0.680340 0.618760 -0.605677
O9    O     O_R   0.500000 0.680360 0.381190 -0.594957
O10   O     O_R   0.582120 0.500020 0.618760 -0.597011
O11   O     O_R   0.582120 0.500050 0.381190 -0.595317
O12   O     O_2   0.857443 0.722839 0.468186 -0.511738
Br1   Br    Br    0.799890 0.515677 0.799074 -0.466219
O13   O     O_3   0.420046 0.350757 0.875921 -0.748332
H21   H     H_    0.427527 0.344187 0.776398 0.376464
Br2   Br    Br    0.199907 0.530724 0.801699 -0.368585
Br3   Br    Br    0.199296 0.475487 0.204597 -0.371794

loop_
_geom_bond_atom_site_label_1
_geom_bond_atom_site_label_2
_ccdc_geom_bond_type
C18   H20   S    
C23   O8    A    
C45   N1    A    
C19   C20   A    
C9    N2    A    
Cu2   O5    S    
C10   O4    S    
C7    C8    A    
C45   C46   A    
C2    C46   A    
C5    C47   A    
C26   C27   A    
C29   C30   A    
C23   O9    A    
C45   O2    S    
C18   C24   A    
C43   O13   S    
Cu1   O10   S    
C28   C29   A    
C5    C6    A    
C44   O12   S    
C15   C16   A    
C1    C31   S    
C44   N1    A    
C18   C19   A    
Cu2   O11   S    
C19   H2    S    
C11   C17   A    
C31   C32   A    
C16   C17   A    
Cu1   O1    S    
C20   C34   S    
C43   N4    A    
C33   H9    S    
C13   C14   A    
C39   H15   S    
C36   C41   A    
C34   O10   A    
C36   H12   S    
C32   H4    S    
C37   H13   S    
Cu2   O9    S    
C38   H14   S    
C3    H11   S    
C38   C39   A    
C15   H19   S    
C1    O1    A    
C17   N2    S    
C27   H7    S    
Cu2   N3    S    
C42   H10   S    
C39   C40   A    
C25   C26   A    
C34   O11   A    
Cu1   O8    S    
C8    C48   A    
C37   C38   A    
C47   C48   A    
C9    O3    S    
C22   Br1   S    
O13   H21   S    
C16   Br3   S    
C40   C41   A    
C12   C14   S    
C23   C35   S    
C1    O5    A    
C22   C24   A    
C42   C43   A    
C3    C4    A    
C25   C30   A    
C46   C47   A    
C36   C37   A    
C42   N3    A    
Cu1   N4    S    
C25   H5    S    
C4    C5    A    
C26   H6    S    
C6    C10   A    
C6    C7    A    
C28   H8    S    
C29   C35   A    
Cu1   O6    S    
C32   C33   A    
C2    C3    A    
C7    H16   S    
C21   H3    S    
C11   C13   A    
C11   Br2   S    
C30   C31   A    
C12   O6    A    
C33   C35   A    
C40   N4    A    
C12   O7    A    
C2    H1    S    
C41   N3    A    
C20   C21   A    
Cu2   O7    S    
C8    H17   S    
Cu1   Cu2   S    
C27   C28   A    
C14   C15   A    
C4    C9    A    
C21   C22   A    
C44   C48   A    
C24   N1    S    
C13   H18   S    
C10   N2    A    
