data_mof_unit_62513.cif
_audit_creation_date              2012-12-10T16:42:40-0500
_audit_creation_method            fapswitch 2.2
_symmetry_space_group_name_H-M    P1
_symmetry_Int_Tables_number       1
_space_group_crystal_system       triclinic
_cell_length_a                    15.872527
_cell_length_b                    17.984281
_cell_length_c                    29.414095
_cell_angle_alpha                 89.93755
_cell_angle_beta                  89.986758
_cell_angle_gamma                 90.163372
_cell_volume                      8396.39013231

loop_
_atom_site_label
_atom_site_type_symbol
_atom_type_description
_atom_site_fract_x
_atom_site_fract_y
_atom_site_fract_z
_atom_type_partial_charge
C1    C     C_R   0.499914 0.389820 0.058743 0.743283
C2    C     C_R   0.500074 0.609980 0.058883 0.734018
C3    C     C_R   0.723979 0.006330 0.713676 0.055810
C4    C     C_R   0.276305 0.993917 0.713687 0.055899
C5    C     C_R   0.887389 0.013253 0.678256 0.133002
C6    C     C_R   0.112977 0.986193 0.678269 0.132290
C7    C     C_1   0.501143 0.933517 0.812107 0.002986
C8    C     C_1   0.499033 0.067177 0.811954 0.002953
C9    C     C_1   0.576561 0.001700 0.755567 -0.015435
C10   C     C_1   0.423681 0.998827 0.755566 -0.015644
C11   C     C_1   0.501375 0.877339 0.834547 -0.058642
C12   C     C_1   0.498770 0.123376 0.834299 -0.059174
C13   C     C_1   0.357642 0.996903 0.735284 0.009168
C14   C     C_1   0.642620 0.003511 0.735281 0.009436
C15   C     C_R   0.583381 0.095193 0.321059 0.227481
C16   C     C_R   0.407750 0.976628 0.297991 0.233951
C17   C     C_R   0.369607 0.108498 0.298050 0.357556
C18   C     C_R   0.625100 0.981033 0.281790 0.359645
C19   C     C_R   0.643230 0.080250 0.355480 0.247995
C20   C     C_R   0.346784 0.962998 0.332299 0.246758
C21   C     C_R   0.308254 0.093292 0.331932 0.233566
C22   C     C_R   0.685795 0.967858 0.316448 0.232545
C23   C     C_R   0.577197 0.191812 0.229404 0.360140
C24   C     C_R   0.428685 0.972164 0.187715 0.370163
C25   C     C_R   0.435491 0.169724 0.199577 0.252505
C26   C     C_R   0.574193 0.013105 0.175763 0.244457
C27   C     C_R   0.574010 0.265612 0.212199 0.233802
C28   C     C_R   0.433759 0.929341 0.147212 0.227492
C29   C     C_R   0.434277 0.243326 0.182084 0.244457
C30   C     C_R   0.577451 0.970688 0.135159 0.247957
C31   C     C_R   0.500104 0.610880 0.941813 0.780526
C32   C     C_R   0.499909 0.389219 0.941774 0.778697
C33   C     C_3   0.500034 0.063303 0.247982 0.175679
C34   C     C_R   0.573781 0.046663 0.282780 0.062076
C35   C     C_R   0.421194 0.049947 0.280117 0.063440
C36   C     C_R   0.696231 0.019008 0.351638 -0.031098
C37   C     C_R   0.296295 0.020894 0.347777 -0.034284
C38   C     C_R   0.504741 0.144043 0.226433 0.070128
C39   C     C_R   0.500659 0.012797 0.203913 0.074301
C40   C     C_R   0.500602 0.291862 0.191720 -0.042714
C41   C     C_R   0.509057 0.926269 0.122779 -0.046338
C42   C     C_1   0.236541 0.008157 0.383991 0.195427
C43   C     C_1   0.759353 0.007085 0.386167 0.195639
C44   C     C_1   0.185894 0.001937 0.414252 -0.144878
C45   C     C_1   0.812304 0.001395 0.415253 -0.145160
C46   C     C_1   0.495604 0.368850 0.177769 0.178570
C47   C     C_1   0.513772 0.881531 0.082008 0.204672
C48   C     C_1   0.491377 0.433302 0.166678 -0.005820
C49   C     C_1   0.517681 0.844190 0.048046 -0.011166
C50   C     C_R   0.123716 0.000217 0.449508 0.822923
C51   C     C_R   0.876327 0.000065 0.449505 0.825543
C52   C     C_R   0.577212 0.776396 0.873244 -0.150222
C53   C     C_R   0.422885 0.224291 0.872885 -0.151790
C54   C     C_R   0.424688 0.776427 0.873106 -0.149822
C55   C     C_R   0.575410 0.224131 0.872882 -0.150109
C56   C     C_R   0.892764 0.999902 0.569159 0.733371
C57   C     C_R   0.107227 0.000046 0.569157 0.731533
C58   C     C_R   0.576967 0.710816 0.898826 -0.180171
C59   C     C_R   0.423099 0.289703 0.898543 -0.180790
C60   C     C_R   0.424243 0.710852 0.898689 -0.179867
C61   C     C_R   0.575824 0.289538 0.898540 -0.181582
C62   C     C_R   0.771005 0.941086 0.708384 -0.293469
C63   C     C_R   0.227606 0.058506 0.710033 -0.293638
C64   C     C_R   0.243341 0.925547 0.699281 -0.303781
C65   C     C_R   0.758656 0.074976 0.700906 -0.304094
C66   C     C_R   0.853300 0.944377 0.690517 0.319483
C67   C     C_R   0.145349 0.054814 0.692171 0.322052
C68   C     C_R   0.161133 0.921478 0.681392 0.341916
C69   C     C_R   0.840906 0.078645 0.683018 0.345751
C70   C     C_3   0.500106 0.000311 0.783528 0.014056
C71   C     C_R   0.501119 0.809593 0.860614 0.136840
C72   C     C_R   0.498992 0.191090 0.860306 0.137618
C73   C     C_R   0.500428 0.677523 0.912125 -0.034379
C74   C     C_R   0.499622 0.322813 0.911975 -0.033132
Cu1   Cu    Cu3+1 0.415470 0.500000 0.000080 0.990448
Cu2   Cu    Cu3+1 0.584530 0.500000 0.000080 0.983617
Cu3   Cu    Cu3+1 0.000000 0.072960 0.508900 1.032463
Cu4   Cu    Cu3+1 0.000000 0.927040 0.508900 1.026436
H1    H     H_    0.636740 0.686800 0.908648 0.161183
H2    H     H_    0.363315 0.313708 0.908336 0.160823
H3    H     H_    0.364230 0.686867 0.908401 0.161423
H4    H     H_    0.635825 0.313408 0.908331 0.160865
H5    H     H_    0.636746 0.801449 0.863572 0.138725
H6    H     H_    0.363362 0.199338 0.863143 0.137961
H7    H     H_    0.365404 0.801514 0.863321 0.139648
H8    H     H_    0.634705 0.199045 0.863135 0.139356
H9    H     H_    0.744227 0.888190 0.718718 0.151626
H10   H     H_    0.253065 0.111157 0.721631 0.151391
H11   H     H_    0.280939 0.875616 0.702579 0.152807
H12   H     H_    0.722352 0.125381 0.705470 0.152827
O1    O     O_R   0.429360 0.416280 0.044700 -0.565719
O2    O     O_R   0.570640 0.583720 0.044700 -0.574488
O3    O     O_R   0.570640 0.416280 0.044700 -0.577574
O4    O     O_R   0.429360 0.583720 0.044700 -0.570860
O5    O     O_R   0.427420 0.583550 0.955440 -0.589543
O6    O     O_R   0.572580 0.416450 0.955440 -0.590223
O7    O     O_R   0.572580 0.583550 0.955440 -0.589919
O8    O     O_R   0.427420 0.416450 0.955440 -0.590483
O9    O     O_R   0.093410 0.059470 0.464300 -0.572857
O10   O     O_R   0.906590 0.940530 0.464300 -0.579353
O11   O     O_R   0.906590 0.059470 0.464300 -0.572890
O12   O     O_R   0.093410 0.940530 0.464300 -0.577540
O13   O     O_R   0.920740 0.061400 0.553530 -0.540977
O14   O     O_R   0.079260 0.938600 0.553530 -0.539763
O15   O     O_R   0.079260 0.061400 0.553530 -0.548837
O16   O     O_R   0.920740 0.938600 0.553530 -0.547355
O17   O     O_3   0.902077 0.881778 0.684926 -0.685769
H13   H     H_    0.869261 0.837774 0.695072 0.331442
O18   O     O_3   0.094967 0.116748 0.688165 -0.683834
H14   H     H_    0.126679 0.160645 0.699367 0.331514
O19   O     O_3   0.125916 0.855446 0.667022 -0.682519
H15   H     H_    0.167632 0.815111 0.671373 0.326444
O20   O     O_3   0.877771 0.144909 0.670226 -0.680229
H16   H     H_    0.837118 0.185738 0.675634 0.326329
O21   O     O_3   0.650121 0.123936 0.393974 -0.715917
H17   H     H_    0.594175 0.145214 0.401108 0.343141
O22   O     O_3   0.337460 0.894148 0.352669 -0.710982
H18   H     H_    0.392298 0.868054 0.352058 0.343664
O23   O     O_3   0.261882 0.149202 0.352233 -0.711653
H19   H     H_    0.295991 0.195360 0.352937 0.352608
O24   O     O_3   0.733559 0.903732 0.317926 -0.710263
H20   H     H_    0.700759 0.862374 0.304446 0.350051
O25   O     O_3   0.642738 0.312934 0.213745 -0.712590
H21   H     H_    0.694811 0.283209 0.210560 0.346981
O26   O     O_3   0.364817 0.892153 0.129531 -0.718426
H22   H     H_    0.313096 0.920189 0.137090 0.349422
O27   O     O_3   0.369181 0.269265 0.155259 -0.723355
H23   H     H_    0.345266 0.227031 0.137900 0.338575
O28   O     O_3   0.646171 0.972850 0.106298 -0.716616
H24   H     H_    0.673315 0.022348 0.108646 0.341477
O29   O     O_3   0.535186 0.158802 0.323283 -0.705800
H25   H     H_    0.568966 0.199111 0.337314 0.350488
O30   O     O_3   0.454627 0.918622 0.280798 -0.699766
H26   H     H_    0.419484 0.873010 0.280617 0.348577
O31   O     O_3   0.382792 0.181190 0.285141 -0.702211
H27   H     H_    0.327237 0.205747 0.282019 0.336301
O32   O     O_3   0.613206 0.928237 0.248502 -0.699497
H28   H     H_    0.668963 0.908430 0.239488 0.334308
O33   O     O_3   0.651357 0.165787 0.247827 -0.696192
H29   H     H_    0.678283 0.206406 0.265385 0.335593
O34   O     O_3   0.352694 0.976974 0.210192 -0.697436
H30   H     H_    0.325003 0.927523 0.209485 0.335000
O35   O     O_3   0.366530 0.123726 0.194174 -0.701704
H31   H     H_    0.314705 0.154237 0.193313 0.352507
O36   O     O_3   0.643950 0.052634 0.189947 -0.695734
H32   H     H_    0.695502 0.025793 0.180556 0.350494

loop_
_geom_bond_atom_site_label_1
_geom_bond_atom_site_label_2
_ccdc_geom_bond_type
C57   O15   A    
C2    O4    A    
C63   H10   S    
Cu4   O12   S    
O22   H18   S    
C60   C73   A    
Cu3   O11   S    
O19   H15   S    
C66   O17   S    
C9    C14   T    
C7    C70   S    
O36   H32   S    
C53   C59   A    
Cu1   O5    S    
O31   H27   S    
C47   C49   T    
C54   C60   A    
Cu3   Cu4   S    
C40   C46   S    
C4    C63   A    
C69   O20   S    
C50   O9    A    
C33   C39   S    
C53   H6    S    
C25   O35   S    
C23   O33   S    
O20   H16   S    
C61   H4    S    
C16   C35   A    
C32   C74   S    
C25   C38   A    
C65   C69   A    
C26   C39   A    
C31   C73   S    
C45   C51   S    
O35   H31   S    
C28   C41   A    
C4    C13   S    
C24   C39   A    
C37   C42   S    
C5    C69   A    
C15   C19   A    
C67   O18   S    
C54   C71   A    
C17   O31   S    
O17   H13   S    
C30   C41   A    
C23   C27   A    
C8    C12   T    
C27   C40   A    
C15   C34   A    
C55   C72   A    
Cu1   O1    S    
C6    C68   A    
C12   C72   S    
C1    O1    A    
C3    C65   A    
C42   C44   T    
C64   H11   S    
C16   O30   S    
C20   O22   S    
C63   C67   A    
C25   C29   A    
C65   H12   S    
C46   C48   T    
C62   C66   A    
Cu4   O14   S    
O25   H21   S    
C9    C70   S    
C56   O13   A    
C27   O25   S    
Cu2   O7    S    
Cu1   O8    S    
C17   C21   A    
C68   O19   S    
C52   H5    S    
C7    C11   T    
Cu1   Cu2   S    
Cu2   O3    S    
C43   C45   T    
C60   H3    S    
C19   O21   S    
C24   O34   S    
C16   C20   A    
C33   C34   S    
C41   C47   S    
C15   O29   S    
O23   H19   S    
C2    O2    A    
C18   C34   A    
C59   C74   A    
C56   O16   A    
O24   H20   S    
C3    C14   S    
C52   C58   A    
C58   H1    S    
Cu2   O2    S    
C10   C70   S    
C6    C67   A    
C32   O6    A    
C50   O12   A    
C29   O27   S    
Cu4   O10   S    
O30   H26   S    
Cu3   O13   S    
O27   H23   S    
C30   O28   S    
C64   C68   A    
C28   O26   S    
C22   O24   S    
O28   H24   S    
C62   H9    S    
C3    C62   A    
C44   C50   S    
C51   O10   A    
C57   O14   A    
C18   C22   A    
C19   C36   A    
C24   C28   A    
C26   O36   S    
C5    C66   A    
C10   C13   T    
C59   H2    S    
C54   H7    S    
O33   H29   S    
C26   C30   A    
C61   C74   A    
C51   O11   A    
C23   C38   A    
C22   C36   A    
O32   H28   S    
C4    C64   A    
C8    C70   S    
C33   C38   S    
Cu4   O16   S    
C55   H8    S    
Cu3   O15   S    
C21   O23   S    
C52   C71   A    
O34   H30   S    
Cu2   O6    S    
C20   C37   A    
O21   H17   S    
O26   H22   S    
C31   O5    A    
C55   C61   A    
C29   C40   A    
C33   C35   S    
C32   O8    A    
Cu3   O9    S    
C11   C71   S    
C31   O7    A    
C18   O32   S    
C21   C37   A    
Cu1   O4    S    
C1    O3    A    
C36   C43   S    
C17   C35   A    
O18   H14   S    
C53   C72   A    
O29   H25   S    
C58   C73   A    
