data_mof_unit_42772.cif
_audit_creation_date              2012-12-11T17:12:42-0500
_audit_creation_method            fapswitch 2.2
_symmetry_space_group_name_H-M    P1
_symmetry_Int_Tables_number       1
_space_group_crystal_system       triclinic
_cell_length_a                    17.187019
_cell_length_b                    6.888231
_cell_length_c                    14.375222
_cell_angle_alpha                 89.95734
_cell_angle_beta                  109.911709
_cell_angle_gamma                 90.051249
_cell_volume                      1600.11579832

loop_
_atom_site_label
_atom_site_type_symbol
_atom_type_description
_atom_site_fract_x
_atom_site_fract_y
_atom_site_fract_z
_atom_type_partial_charge
O1    O     O_R   0.314130 0.635770 0.168990 -0.545821
O2    O     O_R   0.685870 0.364230 0.831010 -0.545821
O3    O     O_R   0.185870 0.135770 0.331010 -0.550169
O4    O     O_R   0.814130 0.864230 0.668990 -0.550169
O5    O     O_R   0.146800 0.302460 0.139760 -0.536540
O6    O     O_R   0.853200 0.697540 0.860240 -0.536540
O7    O     O_R   0.353200 0.802460 0.360240 -0.534822
O8    O     O_R   0.646800 0.197540 0.639760 -0.534822
C1    C     C_R   0.114021 0.475835 0.112770 0.715927
C2    C     C_R   0.885979 0.524165 0.887230 0.715927
C3    C     C_R   0.385983 0.975867 0.387222 0.726797
C4    C     C_R   0.614017 0.024133 0.612777 0.726797
O9    O     O_R   0.311100 0.305780 0.157130 -0.520819
O10   O     O_R   0.688900 0.694220 0.842870 -0.520819
O11   O     O_R   0.188900 0.805780 0.342870 -0.524342
O12   O     O_R   0.811100 0.194220 0.657130 -0.524341
O13   O     O_R   0.351340 0.139640 0.348510 -0.538090
O14   O     O_R   0.648660 0.860360 0.651490 -0.538089
O15   O     O_R   0.148660 0.639640 0.151490 -0.537956
O16   O     O_R   0.851340 0.360360 0.848510 -0.537956
C5    C     C_R   0.332362 0.473981 0.134982 0.725961
C6    C     C_R   0.667638 0.526019 0.865018 0.725961
C7    C     C_R   0.167735 0.973745 0.365141 0.737950
C8    C     C_R   0.832265 0.026255 0.634858 0.737950
C9    C     C_1   0.533576 0.008870 0.533042 -0.182447
C10   C     C_1   0.466424 0.991130 0.466958 -0.182446
C11   C     C_1   0.966424 0.508909 0.966963 -0.186410
C12   C     C_1   0.033576 0.491091 0.033037 -0.186410
O17   O     O_3   0.263010 0.470920 0.312770 -0.366188
O18   O     O_3   0.736990 0.529080 0.687230 -0.366188
O19   O     O_3   0.236990 0.970920 0.187230 -0.362894
O20   O     O_3   0.763010 0.029080 0.812770 -0.362894
V1    V     V_3+5 0.247590 0.194450 0.238360 1.459540
V2    V     V_3+5 0.752410 0.805550 0.761640 1.459540
V3    V     V_3+5 0.252410 0.694450 0.261640 1.458293
V4    V     V_3+5 0.747590 0.305550 0.738360 1.458294
C13   C     C_R   0.117809 0.973623 0.431268 -0.061942
C14   C     C_R   0.882191 0.026377 0.568732 -0.061943
C15   C     C_R   0.382002 0.474802 0.068518 -0.079495
C16   C     C_R   0.617998 0.525198 0.931482 -0.079494
C17   C     C_R   0.919817 0.181174 0.437000 -0.226164
C18   C     C_R   0.080183 0.818825 0.563000 -0.226164
C19   C     C_R   0.582327 0.674716 0.065710 -0.202359
C20   C     C_R   0.417673 0.325283 0.934290 -0.202359
C21   C     C_R   0.865175 0.161412 0.490035 0.190888
C22   C     C_R   0.134825 0.838588 0.509965 0.190888
C23   C     C_R   0.637014 0.655492 0.012428 0.203630
C24   C     C_R   0.362986 0.344507 0.987572 0.203630
C25   C     C_R   0.952979 0.909236 0.591048 -0.291027
C26   C     C_R   0.047021 0.090764 0.408952 -0.291027
C27   C     C_R   0.545848 0.412223 0.907482 -0.268436
C28   C     C_R   0.454152 0.587777 0.092518 -0.268436
C29   C     C_R   0.008183 0.931029 0.538570 0.127458
C30   C     C_R   0.991817 0.068970 0.461430 0.127458
C31   C     C_R   0.490979 0.433405 0.960398 0.116318
C32   C     C_R   0.509021 0.566595 0.039602 0.116318
H1    H     H_    0.033133 0.192898 0.348016 0.126786
H2    H     H_    0.966867 0.807102 0.651984 0.126786
H3    H     H_    0.469279 0.686079 0.155081 0.127037
H4    H     H_    0.530721 0.313921 0.844919 0.127037
N1    N     N_3   0.207876 0.720946 0.536323 -0.663310
H5    H     H_    0.189673 0.575239 0.530059 0.231974
H6    H     H_    0.242401 0.747767 0.610537 0.217931
N2    N     N_3   0.792124 0.279053 0.463677 -0.663311
H7    H     H_    0.810327 0.424761 0.469940 0.231974
H8    H     H_    0.757598 0.252232 0.389463 0.217932
N3    N     N_3   0.288171 0.231479 0.960186 -0.648135
H9    H     H_    0.238470 0.327700 0.933637 0.205188
H10   H     H_    0.284892 0.137489 0.901878 0.220775
N4    N     N_3   0.711830 0.768519 0.039815 -0.648137
H11   H     H_    0.761530 0.672297 0.066363 0.205189
H12   H     H_    0.715109 0.862507 0.098123 0.220775
H13   H     H_    0.906103 0.285920 0.377238 0.120229
H14   H     H_    0.093897 0.714079 0.622762 0.120229
H15   H     H_    0.596771 0.775308 0.127243 0.114684
H16   H     H_    0.403229 0.224692 0.872757 0.114684

loop_
_geom_bond_atom_site_label_1
_geom_bond_atom_site_label_2
_ccdc_geom_bond_type
C2    C11   S    
C16   C23   A    
C31   C32   A    
O1    C5    A    
O3    C7    A    
C14   C25   A    
C29   C30   A    
O7    C3    A    
C26   C30   A    
O20   V4    S    
C18   C29   A    
O8    V4    S    
O4    C8    A    
O3    V1    S    
O17   V1    S    
C20   H16   S    
C18   C22   A    
N1    H6    S    
C14   C21   A    
C1    O15   A    
C2    O16   A    
O5    V1    S    
O2    C6    A    
C8    C14   S    
O19   V1    S    
N4    H11   S    
O11   C7    A    
C15   C28   A    
O12   C8    A    
O13   V1    S    
O11   V3    S    
C19   H15   S    
O4    V2    S    
C18   H14   S    
O18   V2    S    
C22   N1    S    
N3    H9    S    
C3    C10   S    
C9    C10   T    
C7    C13   S    
C25   H2    S    
O6    V2    S    
N3    H10   S    
O20   V2    S    
C23   N4    S    
O5    C1    A    
C28   H3    S    
C5    C15   S    
O8    C4    A    
C6    C16   S    
O9    C5    A    
O14   V2    S    
O19   V3    S    
O1    V3    S    
O2    V4    S    
C3    O13   A    
C26   H1    S    
O7    V3    S    
O10   V2    S    
C16   C27   A    
O17   V3    S    
C21   N2    S    
O18   V4    S    
C4    C9    S    
N2    H7    S    
O10   C6    A    
O15   V3    S    
O12   V4    S    
C13   C26   A    
C20   C31   A    
C25   C29   A    
C27   C31   A    
C24   N3    S    
N1    H5    S    
C17   C30   A    
O6    C2    A    
C17   H13   S    
O16   V4    S    
C20   C24   A    
C19   C32   A    
O9    V1    S    
C4    O14   A    
C11   C12   T    
C17   C21   A    
N4    H12   S    
C27   H4    S    
C13   C22   A    
C19   C23   A    
C28   C32   A    
C1    C12   S    
N2    H8    S    
C15   C24   A    
