data_mof_unit_64001.cif
_audit_creation_date              2012-10-26T20:41:34-0400
_audit_creation_method            fapswitch 2.2
_symmetry_space_group_name_H-M    P1
_symmetry_Int_Tables_number       1
_space_group_crystal_system       triclinic
_cell_length_a                    11.726928
_cell_length_b                    10.478728
_cell_length_c                    10.696854
_cell_angle_alpha                 90.50171
_cell_angle_beta                  89.999585
_cell_angle_gamma                 90.005616
_cell_volume                      1314.41419914

loop_
_atom_site_label
_atom_site_type_symbol
_atom_type_description
_atom_site_fract_x
_atom_site_fract_y
_atom_site_fract_z
_atom_type_partial_charge
C1    C     C_R   0.283354 0.499996 0.499970 0.564061
C2    C     C_3   0.500307 0.378522 0.037754 -0.052682
C3    C     C_3   0.406700 0.439998 0.956986 0.198266
C4    C     C_3   0.593300 0.560002 0.043014 0.198266
C5    C     C_3   0.500041 0.502350 0.876741 -0.038047
C6    C     C_3   0.499959 0.497650 0.123259 -0.038047
C7    C     C_1   0.161971 0.499991 0.499971 0.041811
C8    C     C_1   0.838029 0.500009 0.500029 0.041811
C9    C     C_1   0.059740 0.499996 0.499986 0.021784
C10   C     C_1   0.940260 0.500004 0.500014 0.021784
C11   C     C_1   0.304218 0.622948 0.091535 0.273751
C12   C     C_R   0.716646 0.500004 0.500030 0.564061
C13   C     C_1   0.695782 0.377051 0.908465 0.273751
C14   C     C_1   0.499561 0.755082 0.921796 0.301779
C15   C     C_1   0.500439 0.244918 0.078204 0.301779
C16   C     C_R   0.500048 0.499281 0.259014 0.576757
C17   C     C_R   0.499952 0.500719 0.740986 0.576757
C18   C     C_1   0.500000 0.072092 0.499998 0.158149
C19   C     C_1   0.500000 0.927908 0.500002 0.158149
C20   C     C_3   0.406656 0.559129 0.042751 -0.066829
C21   C     C_3   0.593344 0.440871 0.957249 -0.066829
C22   C     C_3   0.499693 0.621478 0.962246 -0.052682
Cl1   Cl    Cl    0.282869 0.361381 0.897676 -0.514793
Cl2   Cl    Cl    0.717131 0.638619 0.102324 -0.514793
Cu1   Cu    Cu3+1 0.500000 0.625300 0.500000 1.088113
Cu2   Cu    Cu3+1 0.500000 0.374700 0.500000 1.088113
N1    N     N_1   0.500000 0.186410 0.500000 -0.174864
N2    N     N_1   0.500000 0.813590 0.500000 -0.174864
N3    N     N_1   0.223543 0.673168 0.130120 -0.215139
N4    N     N_1   0.776457 0.326832 0.869880 -0.215139
N5    N     N_1   0.499460 0.860318 0.889925 -0.217219
N6    N     N_1   0.500540 0.139682 0.110075 -0.217219
O1    O     O_R   0.337200 0.605810 0.499990 -0.494107
O2    O     O_R   0.662800 0.394190 0.500010 -0.494107
O3    O     O_R   0.662800 0.605810 0.500010 -0.478297
O4    O     O_R   0.337200 0.394190 0.499990 -0.478297
O5    O     O_R   0.499970 0.605800 0.316850 -0.470073
O6    O     O_R   0.500030 0.394200 0.683150 -0.470073
O7    O     O_R   0.500030 0.605800 0.683150 -0.502419
O8    O     O_R   0.499970 0.394200 0.316850 -0.502420

loop_
_geom_bond_atom_site_label_1
_geom_bond_atom_site_label_2
_ccdc_geom_bond_type
C4    C21   S    
C4    C22   S    
C9    C10   S    
C14   N5    T    
C3    Cl1   S    
Cu1   O1    S    
C16   O5    A    
C8    C12   S    
C14   C22   S    
C2    C21   S    
C2    C3    S    
C13   C21   S    
C15   N6    T    
Cu1   O7    S    
Cu1   N2    S    
C2    C15   S    
Cu2   O8    S    
Cu2   N1    S    
C2    C6    S    
C16   O8    A    
C8    C10   T    
Cu1   O3    S    
C17   O6    A    
C19   N2    T    
C4    Cl2   S    
C11   C20   S    
C5    C17   S    
C5    C22   S    
C1    O1    A    
C3    C5    S    
C13   N4    T    
C3    C20   S    
C6    C20   S    
C11   N3    T    
C4    C6    S    
C18   C19   S    
C17   O7    A    
Cu2   O4    S    
C7    C9    T    
Cu2   O6    S    
C12   O2    A    
Cu1   O5    S    
Cu1   Cu2   S    
C1    C7    S    
C6    C16   S    
Cu2   O2    S    
C18   N1    T    
C1    O4    A    
C20   C22   S    
C12   O3    A    
C5    C21   S    
