data_mof_unit_13313.cif
_audit_creation_date              2013-03-05T16:00:46-0500
_audit_creation_method            fapswitch 2.2
_symmetry_space_group_name_H-M    P1
_symmetry_Int_Tables_number       1
_space_group_crystal_system       triclinic
_cell_length_a                    21.157615
_cell_length_b                    21.220397
_cell_length_c                    13.998861
_cell_angle_alpha                 90.797546
_cell_angle_beta                  90.134419
_cell_angle_gamma                 89.996984
_cell_volume                      6284.48428728

loop_
_atom_site_label
_atom_site_type_symbol
_atom_site_description
_atom_site_fract_x
_atom_site_fract_y
_atom_site_fract_z
_atom_type_partial_charge
O1    O     O_R   0.066090 0.433930 0.580280 -0.627481
O2    O     O_R   0.933910 0.566070 0.419720 -0.624921
O3    O     O_R   0.933910 0.566070 0.580280 -0.625772
O4    O     O_R   0.066090 0.433930 0.419720 -0.618341
O5    O     O_R   0.933910 0.433930 0.419720 -0.626797
O6    O     O_R   0.066090 0.566070 0.580280 -0.616263
O7    O     O_R   0.066090 0.566070 0.419720 -0.622086
O8    O     O_R   0.933910 0.433930 0.580280 -0.612793
O9    O     O_R   0.566090 0.933930 0.580280 -0.624554
O10   O     O_R   0.433910 0.066070 0.419720 -0.627936
O11   O     O_R   0.433910 0.066070 0.580280 -0.616269
O12   O     O_R   0.566090 0.933930 0.419720 -0.619224
O13   O     O_R   0.433910 0.933930 0.419720 -0.626405
O14   O     O_R   0.566090 0.066070 0.580280 -0.628742
O15   O     O_R   0.566090 0.066070 0.419720 -0.611582
O16   O     O_R   0.433910 0.933930 0.580280 -0.622381
C1    C     C_R   0.085254 0.412157 0.499596 0.875094
C2    C     C_R   0.913530 0.587434 0.500888 0.886973
C3    C     C_R   0.915140 0.411813 0.499480 0.877903
C4    C     C_R   0.085574 0.587512 0.500692 0.893616
C5    C     C_R   0.585638 0.912471 0.499408 0.894325
C6    C     C_R   0.415107 0.088176 0.500327 0.875115
C7    C     C_R   0.413437 0.912734 0.498961 0.889618
C8    C     C_R   0.584861 0.088179 0.500535 0.875536
Zn1   Zn    Zn3+2 1.000000 0.500000 0.607200 0.941362
Zn2   Zn    Zn3+2 1.000000 0.500000 0.392800 0.945137
Zn3   Zn    Zn3+2 0.500000 1.000000 0.607200 0.946339
Zn4   Zn    Zn3+2 0.500000 0.000000 0.392800 0.938741
C9    C     C_R   0.129816 0.685553 0.570985 0.140362
C10   C     C_R   0.879679 0.306653 0.553914 0.120992
C11   C     C_R   0.860823 0.680498 0.580922 0.111768
C12   C     C_R   0.125222 0.309840 0.436915 0.109228
C13   C     C_R   0.619995 0.193599 0.446697 0.121316
C14   C     C_R   0.360127 0.820059 0.419139 0.107825
C15   C     C_R   0.379586 0.193911 0.557829 0.119234
C16   C     C_R   0.632698 0.816864 0.426085 0.122743
C17   C     C_R   0.132780 0.635755 0.503297 -0.085135
C18   C     C_R   0.870737 0.360836 0.498141 -0.076619
C19   C     C_R   0.867600 0.638161 0.502057 -0.102308
C20   C     C_R   0.131171 0.362584 0.498638 -0.077773
C21   C     C_R   0.629138 0.139253 0.502029 -0.075404
C22   C     C_R   0.366710 0.862887 0.497337 -0.104023
C23   C     C_R   0.371007 0.139435 0.500139 -0.077668
C24   C     C_R   0.633649 0.864916 0.496788 -0.083113
C25   C     C_R   0.183078 0.628778 0.440710 -0.271105
C26   C     C_R   0.818102 0.368468 0.440650 -0.264254
C27   C     C_R   0.830856 0.644837 0.419903 -0.261325
C28   C     C_R   0.182559 0.370408 0.559187 -0.266200
C29   C     C_R   0.681715 0.131690 0.559656 -0.264669
C30   C     C_R   0.328669 0.857787 0.578107 -0.258420
C31   C     C_R   0.320357 0.132996 0.437951 -0.264718
C32   C     C_R   0.683193 0.871348 0.561442 -0.272056
C33   C     C_R   0.231374 0.672097 0.442158 0.068022
C34   C     C_R   0.770598 0.324291 0.440530 0.075846
C35   C     C_R   0.785534 0.691335 0.415663 0.067626
C36   C     C_R   0.230743 0.326881 0.558712 0.074392
C37   C     C_R   0.729037 0.176052 0.560189 0.076317
C38   C     C_R   0.282223 0.812334 0.581375 0.074012
C39   C     C_R   0.274925 0.179042 0.433749 0.070933
C40   C     C_R   0.732367 0.828894 0.559258 0.069601
C41   C     C_R   0.231499 0.720757 0.511713 -0.041729
C42   C     C_R   0.774911 0.271779 0.500325 -0.038645
C43   C     C_R   0.781963 0.736723 0.489433 -0.030702
C44   C     C_R   0.228740 0.275480 0.494456 -0.036607
C45   C     C_R   0.724663 0.228625 0.500533 -0.039015
C46   C     C_R   0.279207 0.766053 0.509010 -0.029660
C47   C     C_R   0.278260 0.231564 0.496002 -0.040099
C48   C     C_R   0.734170 0.782039 0.487061 -0.037226
C49   C     C_R   0.182830 0.725446 0.581412 0.001551
C50   C     C_R   0.829549 0.262311 0.558938 0.001487
C51   C     C_R   0.824284 0.735161 0.567899 -0.008155
C52   C     C_R   0.176711 0.267410 0.430148 -0.007033
C53   C     C_R   0.669996 0.238110 0.441984 -0.000027
C54   C     C_R   0.322841 0.766032 0.432367 -0.008458
C55   C     C_R   0.330519 0.239607 0.560086 -0.000214
C56   C     C_R   0.686746 0.778715 0.415208 -0.010978
C57   C     C_R   0.280198 0.666400 0.375863 -0.294184
C58   C     C_R   0.718621 0.333198 0.381316 -0.309442
C59   C     C_R   0.744071 0.693016 0.338179 -0.310294
C60   C     C_R   0.280801 0.334949 0.622237 -0.313487
C61   C     C_R   0.780884 0.167274 0.619698 -0.310236
C62   C     C_R   0.239529 0.812391 0.656982 -0.320677
C63   C     C_R   0.226109 0.172374 0.367607 -0.307626
C64   C     C_R   0.780349 0.833538 0.627446 -0.301099
C65   C     C_R   0.831857 0.208866 0.619179 0.536262
C66   C     C_R   0.188364 0.770528 0.656997 0.535947
C67   C     C_R   0.178497 0.217160 0.362199 0.525836
C68   C     C_R   0.827489 0.788085 0.630777 0.516304
C69   C     C_R   0.327030 0.712039 0.371908 0.514555
C70   C     C_R   0.667568 0.291714 0.382080 0.536003
C71   C     C_R   0.695183 0.736809 0.336389 0.521613
C72   C     C_R   0.331543 0.292997 0.622841 0.534133
H1    H     H_    0.184097 0.589672 0.389830 0.153257
H2    H     H_    0.813568 0.410252 0.397133 0.147388
H3    H     H_    0.834984 0.611316 0.360953 0.159381
H4    H     H_    0.185197 0.411351 0.606519 0.150595
H5    H     H_    0.686340 0.089829 0.602989 0.146187
H6    H     H_    0.332624 0.891888 0.636353 0.160513
H7    H     H_    0.316275 0.091255 0.392472 0.150043
H8    H     H_    0.682927 0.909217 0.614440 0.150154
H9    H     H_    0.282011 0.626602 0.326490 0.167066
H10   H     H_    0.718060 0.372560 0.332814 0.156675
H11   H     H_    0.748745 0.659568 0.279336 0.164802
H12   H     H_    0.279879 0.373741 0.673400 0.157047
H13   H     H_    0.781371 0.127943 0.668253 0.155616
H14   H     H_    0.245750 0.845672 0.715600 0.154366
H15   H     H_    0.225161 0.132468 0.318319 0.163304
H16   H     H_    0.781166 0.872219 0.678888 0.163868
C73   C     C_R   0.943846 0.501228 0.797913 -0.057368
C74   C     C_R   0.056160 0.498695 0.202087 -0.052917
C75   C     C_R   0.056164 0.498895 0.798247 -0.048263
C76   C     C_R   0.943838 0.501292 0.201747 -0.052952
C77   C     C_R   0.443865 0.002105 0.797937 -0.051816
C78   C     C_R   0.556119 0.997511 0.202074 -0.054236
C79   C     C_R   0.556132 0.997750 0.798238 -0.049697
C80   C     C_R   0.443865 0.002103 0.201776 -0.060760
N1    N     N_R   1.000000 0.500000 0.750030 -0.105088
N2    N     N_R   0.000000 0.500000 0.249970 -0.103278
N3    N     N_R   0.500000 1.000000 0.750030 -0.103784
N4    N     N_R   0.500000 0.000000 0.249970 -0.103805
C81   C     C_R   0.057527 0.498846 0.898942 0.014992
C82   C     C_R   0.942479 0.501377 0.101049 0.015607
C83   C     C_R   0.942485 0.501388 0.898592 0.017140
C84   C     C_R   0.057523 0.498718 0.101400 0.013410
C85   C     C_R   0.557485 0.997502 0.898934 0.015989
C86   C     C_R   0.442499 0.002017 0.101086 0.019087
C87   C     C_R   0.442501 0.002061 0.898627 0.015743
C88   C     C_R   0.557477 0.997339 0.101391 0.014202
C89   C     C_R   0.000005 0.500114 0.949370 0.085766
C90   C     C_R   0.000002 0.500075 0.050623 0.086241
C91   C     C_R   0.499991 0.999744 0.949383 0.085414
C92   C     C_R   0.499988 0.999692 0.050636 0.087846
C93   C     C_R   0.114724 0.497531 0.950160 -0.194358
C94   C     C_R   0.885283 0.502732 0.049828 -0.201030
C95   C     C_R   0.885287 0.502730 0.949454 -0.196908
C96   C     C_R   0.114721 0.497446 0.050531 -0.202719
C97   C     C_R   0.614645 0.995058 0.950132 -0.200249
C98   C     C_R   0.385330 0.004239 0.049894 -0.202750
C99   C     C_R   0.385330 0.004253 0.949520 -0.199349
C100  C     C_R   0.614639 0.994939 0.050502 -0.203565
H17   H     H_    0.900191 0.502029 0.757454 0.133136
H18   H     H_    0.099816 0.497676 0.242554 0.131849
H19   H     H_    0.099819 0.498001 0.758039 0.133895
H20   H     H_    0.900179 0.502262 0.241950 0.126628
H21   H     H_    0.400229 0.003791 0.757489 0.131892
H22   H     H_    0.599744 0.995701 0.242526 0.137178
H23   H     H_    0.599772 0.996114 0.758023 0.127321
H24   H     H_    0.400236 0.003862 0.241996 0.127864
H25   H     H_    0.159439 0.496535 0.912622 0.143160
H26   H     H_    0.840568 0.503774 0.087365 0.140398
H27   H     H_    0.840577 0.503768 0.911635 0.143199
H28   H     H_    0.159435 0.496397 0.088342 0.141704
H29   H     H_    0.659336 0.993247 0.912578 0.140234
H30   H     H_    0.340641 0.006002 0.087455 0.139457
H31   H     H_    0.340638 0.006011 0.911727 0.139627
H32   H     H_    0.659323 0.993035 0.088298 0.141732
C101  C     C_3   0.067948 0.699946 0.621517 -0.785338
H33   H     H_    0.026780 0.679449 0.583039 0.201499
H34   H     H_    0.068922 0.681508 0.695323 0.277760
H35   H     H_    0.058836 0.751397 0.622436 0.229207
C102  C     C_3   0.943425 0.295122 0.601066 -0.769022
H36   H     H_    0.980997 0.327712 0.577979 0.208901
H37   H     H_    0.939337 0.300148 0.679824 0.278922
H38   H     H_    0.961282 0.247735 0.580440 0.240218
C103  C     C_3   0.884189 0.663464 0.680071 -0.763331
H39   H     H_    0.869190 0.614881 0.697445 0.222512
H40   H     H_    0.936290 0.667964 0.684915 0.249285
H41   H     H_    0.862123 0.691936 0.737782 0.260404
C104  C     C_3   0.062685 0.296737 0.386613 -0.762905
H42   H     H_    0.022863 0.324581 0.416173 0.207644
H43   H     H_    0.066473 0.307609 0.309561 0.263640
H44   H     H_    0.048533 0.246900 0.396685 0.254725
C105  C     C_3   0.556210 0.205060 0.399632 -0.772602
H45   H     H_    0.518774 0.172212 0.422380 0.210603
H46   H     H_    0.538134 0.252271 0.420745 0.237001
H47   H     H_    0.560329 0.200409 0.320835 0.280233
C106  C     C_3   0.384928 0.835714 0.320403 -0.761763
H48   H     H_    0.370572 0.884189 0.301109 0.223602
H49   H     H_    0.437039 0.830817 0.317662 0.248126
H50   H     H_    0.363440 0.806618 0.262729 0.262220
C107  C     C_3   0.442017 0.204465 0.609742 -0.774660
H51   H     H_    0.479788 0.171328 0.587894 0.213618
H52   H     H_    0.461249 0.251493 0.592149 0.237673
H53   H     H_    0.435463 0.199748 0.687948 0.279174
C108  C     C_3   0.571864 0.802034 0.372601 -0.780039
H54   H     H_    0.529824 0.818327 0.413185 0.199801
H55   H     H_    0.571986 0.824692 0.301627 0.263259
H56   H     H_    0.565287 0.750353 0.364461 0.248274
O17   O     O_3   0.879952 0.201146 0.685491 -0.604163
C109  C     C_3   0.910559 0.142603 0.670673 -0.350861
H57   H     H_    0.918502 0.131699 0.593487 0.152771
H58   H     H_    0.883846 0.103956 0.704810 0.172308
H59   H     H_    0.957674 0.144824 0.705483 0.199405
O18   O     O_3   0.148971 0.767406 0.736102 -0.597398
C110  C     C_3   0.123131 0.827155 0.758938 -0.354896
H60   H     H_    0.110045 0.854374 0.694272 0.143346
H61   H     H_    0.156086 0.854671 0.805121 0.177689
H62   H     H_    0.079174 0.819998 0.800437 0.200088
O19   O     O_3   0.133580 0.210085 0.291036 -0.612172
C111  C     C_3   0.158414 0.234189 0.205523 -0.333155
H63   H     H_    0.199042 0.205454 0.179560 0.168072
H64   H     H_    0.172606 0.284504 0.214243 0.160776
H65   H     H_    0.121075 0.231932 0.149822 0.200354
O20   O     O_3   0.876580 0.796985 0.694933 -0.608539
C112  C     C_3   0.928755 0.821679 0.645386 -0.332763
H66   H     H_    0.917261 0.868289 0.614193 0.160738
H67   H     H_    0.945581 0.788527 0.588634 0.165159
H68   H     H_    0.968198 0.828827 0.696736 0.190758
O21   O     O_3   0.376924 0.702103 0.309855 -0.607931
C113  C     C_3   0.428863 0.679294 0.362390 -0.313700
H69   H     H_    0.417273 0.633938 0.397367 0.158520
H70   H     H_    0.445480 0.714511 0.416476 0.162478
H71   H     H_    0.468528 0.670276 0.312362 0.204095
O22   O     O_3   0.619240 0.299770 0.316284 -0.603070
C114  C     C_3   0.588444 0.358049 0.332607 -0.351645
H72   H     H_    0.615108 0.397213 0.299735 0.174622
H73   H     H_    0.580329 0.367955 0.410041 0.147574
H74   H     H_    0.541397 0.356125 0.297549 0.199149
O23   O     O_3   0.656274 0.737737 0.257021 -0.610974
C115  C     C_3   0.682319 0.779704 0.190529 -0.325452
H75   H     H_    0.729360 0.763110 0.165118 0.166970
H76   H     H_    0.686013 0.828362 0.220898 0.160085
H77   H     H_    0.650486 0.781676 0.127570 0.200313
O24   O     O_3   0.377643 0.300185 0.692704 -0.604209
C116  C     C_3   0.409863 0.357941 0.681246 -0.351808
H78   H     H_    0.382398 0.397703 0.712583 0.173182
H79   H     H_    0.421407 0.367263 0.605057 0.147198
H80   H     H_    0.455286 0.355560 0.720774 0.200633

loop_
_geom_bond_atom_site_label_1
_geom_bond_atom_site_label_2
_geom_bond_distance
_ccdc_geom_bond_type
C63   C67   1.387535 A    
C12   C104  1.521209 S    
C103  H39   1.109091 S    
C8    C21   1.432498 S    
O5    Zn2   2.019991 S    
C58   H10   1.083774 S    
C104  H42   1.106793 S    
C57   H9    1.084569 S    
C14   C22   1.419606 A    
C67   O19   1.381847 S    
C2    C19   1.450117 S    
C25   H1    1.086300 S    
O24   C116  1.413736 S    
C74   N2    1.365702 A    
C115  H76   1.113832 S    
C102  H36   1.105507 S    
O15   Zn4   2.011464 S    
C45   C53   1.431845 A    
C12   C52   1.415774 A    
C105  H45   1.105463 S    
O10   C6    1.280228 A    
C15   C55   1.420649 A    
C109  H57   1.114984 S    
C7    C22   1.447792 S    
C60   H12   1.083820 S    
C54   C69   1.417850 A    
C27   C35   1.377641 A    
C39   C63   1.391399 A    
C53   C70   1.423421 A    
C38   C62   1.393079 A    
C113  H69   1.113521 S    
C108  H55   1.109805 S    
O6    Zn1   2.019988 S    
C75   C81   1.409853 A    
C77   H21   1.082768 S    
C94   H26   1.083358 S    
C79   H23   1.082842 S    
C116  H80   1.109344 S    
C29   C37   1.374251 A    
O13   C7    1.279312 A    
O3    C2    1.280010 A    
C20   C28   1.385591 A    
C16   C108  1.518272 S    
O14   C8    1.280911 A    
C74   H18   1.082784 S    
C82   C94   1.405659 A    
C32   C40   1.376315 A    
C109  H59   1.109274 S    
C39   C47   1.406879 A    
C28   H4    1.086663 S    
C77   N3    1.365735 A    
C33   C41   1.409356 A    
C41   C46   1.394797 A    
C38   C46   1.402441 A    
C101  H33   1.108735 S    
C86   C98   1.405588 A    
C11   C103  1.520614 S    
C62   H14   1.082970 S    
C63   H15   1.084999 S    
C111  H63   1.112680 S    
C106  H49   1.108128 S    
C35   C43   1.404449 A    
C93   C96   1.405103 A    
C36   C44   1.404692 A    
O13   Zn4   2.019991 S    
C86   C92   1.408466 A    
O14   Zn3   2.019988 S    
C15   C23   1.412392 A    
C10   C50   1.420408 A    
C59   C71   1.390870 A    
C75   H19   1.082780 S    
C15   C107  1.521189 S    
C110  H62   1.109287 S    
C74   C84   1.409864 A    
C61   C65   1.393723 A    
C98   H30   1.083356 S    
O16   Zn3   2.011467 S    
C44   C52   1.429217 A    
O18   C110  1.413558 S    
C25   C33   1.374414 A    
O19   C111  1.410941 S    
C101  H34   1.110030 S    
C80   C86   1.409743 A    
C83   C89   1.408381 A    
O1    Zn1   2.012592 S    
O8    Zn1   2.011467 S    
C104  H43   1.109251 S    
C42   C50   1.431809 A    
C59   H11   1.084534 S    
C87   C99   1.405704 A    
C88   C92   1.408422 A    
C21   C29   1.383245 A    
C115  H75   1.113216 S    
C102  H37   1.109761 S    
O11   Zn3   2.018663 S    
O21   C113  1.410240 S    
C9    C49   1.411366 A    
C107  H52   1.108811 S    
C100  H32   1.083341 S    
C31   H7    1.086924 S    
C116  H79   1.115089 S    
C97   C100  1.405110 A    
C61   H13   1.083728 S    
C30   H6    1.085698 S    
O8    C3    1.280819 A    
C78   C88   1.409761 A    
C84   C96   1.405661 A    
C73   N1    1.365572 A    
C30   C38   1.378277 A    
C44   C47   1.402507 A    
C64   C68   1.388584 A    
C72   O24   1.386544 S    
C93   H25   1.083346 S    
C78   H22   1.082717 S    
C10   C102  1.521478 S    
Zn4   N4    1.999459 S    
C114  H74   1.109277 S    
C37   C45   1.405763 A    
O23   C115  1.410216 S    
C80   H24   1.082751 S    
O22   C114  1.413831 S    
C73   C83   1.409710 A    
C108  H56   1.109768 S    
C69   O21   1.382979 S    
C34   C42   1.405822 A    
C85   C97   1.405682 A    
C107  H51   1.105333 S    
O12   C5    1.278603 A    
C32   H8    1.086111 S    
C58   C70   1.393629 A    
C51   C68   1.418761 A    
C83   C95   1.405616 A    
C1    C20   1.431856 S    
C60   C72   1.394705 A    
C33   C57   1.394411 A    
C114  H72   1.110239 S    
C76   C82   1.409898 A    
C3    C18   1.432685 S    
C5    C24   1.431987 S    
C35   C59   1.394277 A    
C85   C91   1.408475 A    
C6    C23   1.433091 S    
C26   H2    1.086855 S    
C99   H31   1.083341 S    
C36   C60   1.390400 A    
C106  H50   1.106432 S    
C57   C69   1.387302 A    
C26   C34   1.374432 A    
C116  H78   1.110345 S    
C84   C90   1.408435 A    
O2    Zn2   2.012592 S    
C68   O20   1.382743 S    
O7    Zn2   2.011464 S    
C40   C48   1.408441 A    
C43   C51   1.416276 A    
C105  H46   1.108835 S    
C55   C72   1.424083 A    
C14   C54   1.406302 A    
C77   C87   1.409915 A    
O4    C1    1.280783 A    
C111  H64   1.114136 S    
C13   C53   1.420499 A    
O15   C8    1.280958 A    
C22   C30   1.394856 A    
C106  H48   1.109356 S    
O16   C7    1.292007 A    
C79   N3    1.365748 A    
C104  H44   1.110130 S    
C37   C61   1.389971 A    
C16   C24   1.411239 A    
C31   C39   1.372376 A    
C17   C25   1.386654 A    
C91   C92   1.417448 A    
C70   O22   1.386749 S    
C52   C67   1.419575 A    
C13   C105  1.521440 S    
O9    Zn3   2.012592 S    
C102  H38   1.108900 S    
C19   C27   1.395496 A    
C89   C90   1.417439 A    
C112  H67   1.112903 S    
C112  H68   1.109204 S    
O10   Zn4   2.012592 S    
C64   H16   1.084501 S    
C28   C36   1.375573 A    
C112  H66   1.113371 S    
C43   C48   1.396049 A    
C97   H29   1.083357 S    
C109  H58   1.110227 S    
C107  H53   1.109766 S    
C42   C45   1.403218 A    
O1    C1    1.281098 A    
C9    C101  1.518354 S    
Zn2   N2    1.999459 S    
C81   C89   1.408447 A    
O2    C2    1.292470 A    
Zn1   N1    1.999457 S    
C24   C32   1.388776 A    
O4    Zn2   2.018663 S    
C94   C95   1.405114 A    
O5    C3    1.281157 A    
Zn3   N3    1.999457 S    
C101  H35   1.108597 S    
C48   C56   1.420133 A    
C113  H71   1.109224 S    
O6    C4    1.278501 A    
O11   C6    1.282004 A    
C113  H70   1.112818 S    
C103  H41   1.106276 S    
C79   C85   1.409939 A    
C75   N1    1.365610 A    
C41   C49   1.422754 A    
C76   H20   1.082837 S    
C114  H73   1.115000 S    
C88   C100  1.405633 A    
C13   C21   1.411214 A    
C62   C66   1.400403 A    
C66   O18   1.389859 S    
C76   N2    1.365717 A    
C4    C17   1.430312 S    
C40   C64   1.394398 A    
O9    C5    1.283716 A    
C108  H54   1.109207 S    
C23   C31   1.384645 A    
C111  H65   1.109264 S    
C95   H27   1.083334 S    
C11   C51   1.407652 A    
C105  H47   1.109741 S    
C34   C58   1.390054 A    
C11   C19   1.421158 A    
C12   C20   1.409861 A    
C71   O23   1.381613 S    
O17   C109  1.413869 S    
C87   C91   1.408434 A    
C18   C26   1.383307 A    
C98   C99   1.405119 A    
C56   C71   1.419042 A    
C29   H5    1.086901 S    
C110  H60   1.114949 S    
C80   N4    1.365579 A    
C16   C56   1.408370 A    
O3    Zn1   2.018663 S    
C47   C55   1.430920 A    
O20   C112  1.410001 S    
O12   Zn4   2.018663 S    
C103  H40   1.108309 S    
O7    C4    1.282694 A    
C9    C17   1.410980 A    
C27   H3    1.085648 S    
C14   C106  1.520651 S    
C73   H17   1.082577 S    
C10   C18   1.411255 A    
C81   C93   1.405630 A    
C96   H28   1.083343 S    
C50   C65   1.423460 A    
C65   O17   1.387001 S    
C82   C90   1.408475 A    
C115  H77   1.109243 S    
C78   N4    1.365599 A    
C49   C66   1.421180 A    
C110  H61   1.110183 S    
C46   C54   1.417067 A    
