data_mof_unit_34716.cif
_audit_creation_date              2013-03-05T16:11:50-0500
_audit_creation_method            fapswitch 2.2
_symmetry_space_group_name_H-M    P1
_symmetry_Int_Tables_number       1
_space_group_crystal_system       triclinic
_cell_length_a                    10.897004
_cell_length_b                    9.401314
_cell_length_c                    23.548665
_cell_angle_alpha                 89.537504
_cell_angle_beta                  89.76933
_cell_angle_gamma                 89.734536
_cell_volume                      2412.34653512

loop_
_atom_site_label
_atom_site_type_symbol
_atom_site_description
_atom_site_fract_x
_atom_site_fract_y
_atom_site_fract_z
_atom_type_partial_charge
O1    O     O_R   0.317570 0.620260 0.500030 -0.583745
O2    O     O_R   0.317570 0.379740 0.500030 -0.593086
C1    C     C_R   0.259826 0.500546 0.504068 0.774013
O3    O     O_R   0.499840 0.620290 0.417900 -0.580469
O4    O     O_R   0.499840 0.379710 0.417900 -0.591855
C2    C     C_R   0.503582 0.500616 0.390879 0.831822
Cu1   Cu    Cu3+1 0.499860 0.642410 0.500030 0.912704
Cu2   Cu    Cu3+1 0.499860 0.357590 0.500030 0.914864
O5    O     O_R   0.682190 0.620260 0.500010 -0.597462
O6    O     O_R   0.682190 0.379740 0.500010 -0.584579
O7    O     O_R   0.499920 0.620230 0.582140 -0.597013
O8    O     O_R   0.499920 0.379770 0.582140 -0.596009
C3    C     C_R   0.739603 0.499548 0.504097 0.774009
C4    C     C_R   0.499192 0.499337 0.609095 0.802171
C5    C     C_R   0.606603 0.492342 0.878450 0.555085
N1    N     N_R   0.496222 0.483052 0.851547 -0.466971
C6    C     C_R   0.389285 0.466187 0.880896 0.551823
C7    C     C_R   0.390026 0.461553 0.940360 -0.035657
C8    C     C_R   0.502420 0.471212 0.969557 -0.054366
C9    C     C_R   0.613649 0.480120 0.938459 -0.059248
C10   C     C_R   0.280427 0.445531 0.970663 -0.152735
C11   C     C_R   0.278624 0.443635 0.029970 0.158117
C12   C     C_R   0.390184 0.461881 0.060303 -0.010435
C13   C     C_R   0.502941 0.470199 0.029683 -0.091529
C14   C     C_R   0.615668 0.480225 0.059103 -0.064333
C15   C     C_R   0.727070 0.495592 0.027866 0.166010
C16   C     C_R   0.726900 0.479305 0.968156 0.153242
C17   C     C_R   0.393911 0.473899 0.120081 0.533331
N2    N     N_R   0.503542 0.478267 0.147686 -0.460691
C18   C     C_R   0.612590 0.472910 0.119121 0.552428
O9    O     O_2   0.707758 0.518110 0.846918 -0.537650
O10   O     O_2   0.282443 0.455414 0.852457 -0.536283
H1    H     H_    0.194770 0.434351 0.947904 0.186020
O11   O     O_2   0.289755 0.484074 0.150872 -0.543176
O12   O     O_2   0.716821 0.457931 0.149295 -0.538544
C19   C     C_R   0.548873 0.613171 0.235442 0.212598
C20   C     C_R   0.557510 0.615771 0.295596 0.138216
C21   C     C_R   0.508061 0.500819 0.328006 -0.092887
C22   C     C_R   0.462367 0.381238 0.299972 -0.276031
H2    H     H_    0.425907 0.291565 0.323682 0.166270
C23   C     C_R   0.462709 0.374765 0.241184 -0.143152
H3    H     H_    0.428875 0.280178 0.220594 0.157239
C24   C     C_R   0.504416 0.489590 0.208614 0.325775
C25   C     C_R   0.487387 0.620761 0.761798 0.029694
C26   C     C_R   0.489266 0.623974 0.702403 -0.258846
H4    H     H_    0.484769 0.725547 0.680364 0.147077
C27   C     C_R   0.497003 0.496771 0.671598 -0.051851
C28   C     C_R   0.502013 0.366208 0.701000 -0.213676
H5    H     H_    0.507968 0.266485 0.678430 0.151370
C29   C     C_R   0.500244 0.362789 0.760081 -0.116926
H6    H     H_    0.505273 0.261553 0.782254 0.150811
C30   C     C_R   0.493263 0.489367 0.790708 0.320898
C31   C     C_3   0.065757 0.628755 0.543623 -0.217840
C32   C     C_3   0.071171 0.360497 0.535608 -0.195202
H7    H     H_    0.071775 0.594754 0.588901 0.115583
H8    H     H_    0.121497 0.338437 0.575797 0.112546
C33   C     C_3   0.926605 0.646839 0.528941 -0.191053
C34   C     C_3   0.932025 0.383454 0.549838 -0.221701
H9    H     H_    0.876390 0.677612 0.568282 0.114393
H10   H     H_    0.926523 0.429638 0.593139 0.117987
H11   H     H_    0.085476 0.618165 0.427295 0.187820
H12   H     H_    0.117729 0.434219 0.416771 0.169577
H13   H     H_    0.882826 0.544423 0.414352 0.164046
H14   H     H_    0.914573 0.364167 0.433068 0.189514
C35   C     C_3   0.069656 0.510111 0.445363 -0.376871
C36   C     C_3   0.121640 0.501772 0.506946 0.013152
C37   C     C_3   0.877284 0.499362 0.507122 0.015623
C38   C     C_3   0.930383 0.475904 0.446209 -0.377516
C39   C     C_3   0.609170 0.082504 0.471331 -0.172958
C40   C     C_3   0.616927 0.916109 0.478801 -0.171017
H15   H     H_    0.694731 0.130000 0.486174 0.191993
H16   H     H_    0.692373 0.891013 0.508822 0.172194
H17   H     H_    0.605053 0.109492 0.425240 0.136329
H18   H     H_    0.640814 0.866137 0.437674 0.161766
H19   H     H_    0.580226 0.114047 0.583217 0.169251
H20   H     H_    0.558282 0.871472 0.587816 0.147977
C41   C     C_3   0.496541 0.082644 0.559743 -0.193893
C42   C     C_3   0.486021 0.915687 0.559427 -0.187937
C43   C     C_3   0.391986 0.084735 0.471490 -0.172203
C44   C     C_3   0.402126 0.918592 0.464554 -0.173061
N3    N     N_3   0.500250 0.143650 0.501250 -0.136477
N4    N     N_3   0.500250 0.856350 0.501250 -0.136105
H21   H     H_    0.308800 0.108351 0.496609 0.184407
H22   H     H_    0.313056 0.868672 0.472979 0.191760
H23   H     H_    0.380563 0.136665 0.429257 0.149646
H24   H     H_    0.421504 0.894381 0.419237 0.127919
H25   H     H_    0.417023 0.127357 0.583522 0.148896
H26   H     H_    0.396795 0.882603 0.577942 0.170718
C45   C     C_1   0.127204 0.767971 0.545870 0.287040
N5    N     N_1   0.169603 0.879807 0.550126 -0.325223
C46   C     C_1   0.086535 0.234414 0.498404 0.304354
N6    N     N_1   0.093852 0.137039 0.468792 -0.297520
C47   C     C_1   0.908113 0.763288 0.486496 0.298448
N7    N     N_1   0.896538 0.853322 0.453096 -0.309258
C48   C     C_1   0.867545 0.247475 0.559271 0.282392
N8    N     N_1   0.821400 0.139528 0.569205 -0.327988
C49   C     C_3   0.156611 0.416958 0.058622 -0.766323
H27   H     H_    0.084834 0.387638 0.027715 0.192742
H28   H     H_    0.164430 0.326310 0.088924 0.258428
H29   H     H_    0.124817 0.514362 0.080680 0.266405
C50   C     C_3   0.843869 0.543800 0.056742 -0.768874
H30   H     H_    0.823095 0.629942 0.087357 0.251438
H31   H     H_    0.888423 0.452508 0.078703 0.263332
H32   H     H_    0.910409 0.591910 0.026522 0.215170
C51   C     C_3   0.846914 0.447915 0.937671 -0.732822
H33   H     H_    0.834065 0.363050 0.905757 0.254640
H34   H     H_    0.883182 0.546004 0.917251 0.262162
H35   H     H_    0.917169 0.403741 0.966781 0.201130
C52   C     C_3   0.582980 0.742692 0.200190 -0.825479
H36   H     H_    0.541476 0.839713 0.218983 0.229050
H37   H     H_    0.684304 0.753737 0.198442 0.245180
H38   H     H_    0.548228 0.737559 0.156080 0.228192
C53   C     C_3   0.622340 0.737163 0.324755 -0.836457
H39   H     H_    0.684105 0.695044 0.358379 0.229678
H40   H     H_    0.682299 0.799300 0.295830 0.237963
H41   H     H_    0.553568 0.810855 0.343249 0.226915
C54   C     C_1   0.480106 0.752546 0.792601 0.265128
N9    N     N_1   0.474276 0.858242 0.817346 -0.275487

loop_
_geom_bond_atom_site_label_1
_geom_bond_atom_site_label_2
_geom_bond_distance
_ccdc_geom_bond_type
C47   N7    1.157603 T    
C7    C10   1.396904 A    
C23   H3    1.083167 S    
C8    C9    1.416052 A    
C44   H22   1.096733 S    
C49   H27   1.107822 S    
Cu1   Cu2   2.677681 S    
C22   C23   1.386181 A    
C41   C42   1.574403 S    
Cu1   O7    1.943118 S    
C51   H34   1.110183 S    
C15   C16   1.415656 A    
C50   H30   1.110534 S    
C18   O12   1.348406 S    
H14   C38   1.111891 S    
C19   C20   1.420465 A    
H20   C42   1.111959 S    
C52   H37   1.110049 S    
C15   C50   1.518216 S    
C32   C34   1.565889 S    
C21   C22   1.402652 A    
O7    C4    1.297349 A    
C33   H9    1.113618 S    
C20   C53   1.515593 S    
C16   C51   1.518237 S    
C34   H10   1.112778 S    
C5    N1    1.365208 A    
C7    C8    1.410622 A    
C39   H15   1.095376 S    
O5    C3    1.296424 A    
C44   H24   1.112147 S    
C48   N8    1.156472 T    
N1    C6    1.361680 A    
C40   H18   1.109328 S    
C29   C30   1.398072 A    
C12   C13   1.424300 A    
C2    C21   1.481181 S    
C39   H17   1.113683 S    
N2    C18   1.364049 A    
C53   H41   1.108475 S    
C25   C30   1.406958 A    
C26   C27   1.405718 A    
C17   O11   1.347799 S    
C50   H31   1.109398 S    
C11   C49   1.509651 S    
C33   C47   1.489999 S    
C10   C11   1.396621 A    
N2    C24   1.439651 S    
C23   C24   1.395897 A    
C33   C37   1.579807 S    
O3    Cu1   1.946871 S    
C49   H28   1.110286 S    
C29   H6    1.083145 S    
C31   H7    1.112751 S    
C5    C9    1.419216 A    
C51   H35   1.106875 S    
C32   H8    1.113263 S    
Cu2   N3    2.011275 S    
C13   C14   1.416599 A    
C44   N4    1.491966 S    
C52   H38   1.108528 S    
C46   N6    1.157510 T    
C43   N3    1.486177 S    
C31   C33   1.564806 S    
C14   C15   1.424203 A    
C26   H4    1.084159 S    
C37   C38   1.561504 S    
O1    C1    1.294610 A    
C34   C48   1.476407 S    
C20   C21   1.424619 A    
C42   N4    1.490617 S    
C27   C28   1.405346 A    
C41   N3    1.488272 S    
Cu2   O8    1.946465 S    
C35   C38   1.552830 S    
C6    C7    1.400662 A    
C12   C17   1.413889 A    
C31   C36   1.596138 S    
H19   C41   1.110629 S    
O3    C2    1.297417 A    
C28   H5    1.082981 S    
O8    C4    1.295355 A    
C50   H32   1.109240 S    
C31   C45   1.474338 S    
C1    C36   1.507054 S    
C43   H23   1.111530 S    
C49   H29   1.109817 S    
C25   C26   1.398829 A    
C53   H39   1.110630 S    
C3    C37   1.502276 S    
C42   H26   1.108787 S    
C14   C18   1.414725 A    
Cu1   O5    1.996773 S    
H13   C38   1.112894 S    
C17   N2    1.363295 A    
H12   C35   1.112762 S    
O1    Cu1   1.998258 S    
O2    Cu2   1.996339 S    
N1    C30   1.433923 S    
O6    C3    1.295419 A    
O4    Cu2   1.943533 S    
C5    O9    1.348350 S    
C4    C27   1.471971 S    
C32   C36   1.584722 S    
C9    C16   1.420874 A    
C51   H33   1.110196 S    
O2    C1    1.299818 A    
C32   C46   1.488087 S    
C54   N9    1.157345 T    
C43   H21   1.103102 S    
O4    C2    1.298892 A    
C25   C54   1.442419 S    
C28   C29   1.391453 A    
C8    C13   1.415874 A    
C39   C40   1.574707 S    
C40   N4    1.485945 S    
C39   N3    1.493001 S    
C43   C44   1.575118 S    
C22   H2    1.083533 S    
H11   C35   1.112092 S    
C34   C37   1.592548 S    
Cu1   N4    2.011779 S    
C10   H1    1.084151 S    
C41   H25   1.112475 S    
Cu2   O6    1.998692 S    
C35   C36   1.560292 S    
C19   C52   1.515044 S    
C6    O10   1.350082 S    
C11   C12   1.424231 A    
C19   C24   1.415335 A    
C40   H16   1.109738 S    
C45   N5    1.155661 T    
C52   H36   1.110604 S    
C53   H40   1.107086 S    
