data_mof_unit_51542.cif
_audit_creation_date              2012-10-26T19:21:26-0400
_audit_creation_method            fapswitch 2.2
_symmetry_space_group_name_H-M    P1
_symmetry_Int_Tables_number       1
_space_group_crystal_system       triclinic
_cell_length_a                    9.901291
_cell_length_b                    11.067789
_cell_length_c                    15.90237
_cell_angle_alpha                 94.609755
_cell_angle_beta                  80.100311
_cell_angle_gamma                 111.811173
_cell_volume                      1593.56646199

loop_
_atom_site_label
_atom_site_type_symbol
_atom_type_description
_atom_site_fract_x
_atom_site_fract_y
_atom_site_fract_z
_atom_type_partial_charge
C1    C     C_R   0.556484 0.745515 0.506209 0.556402
C2    C     C_2   0.515263 0.069586 0.501317 -0.158287
C3    C     C_2   0.928559 0.504292 0.485410 -0.010449
C4    C     C_2   0.087789 0.524465 0.496133 -0.010327
C5    C     C_R   0.411811 0.484992 0.662312 0.544223
C6    C     C_R   0.587297 0.512548 0.337612 0.543253
C7    C     C_R   0.359523 0.476622 0.754776 -0.004455
C8    C     C_R   0.637569 0.520679 0.245021 -0.004408
C9    C     C_R   0.173637 0.469855 0.876805 -0.133356
C10   C     C_R   0.830048 0.559579 0.122928 -0.134323
C11   C     C_R   0.217849 0.472955 0.788709 -0.136148
C12   C     C_R   0.443531 0.254485 0.493749 0.555081
C13   C     C_R   0.786060 0.550777 0.210931 -0.138130
C14   C     C_R   0.454765 0.475177 0.809861 -0.137992
C15   C     C_R   0.533953 0.499505 0.190249 -0.136276
C16   C     C_R   0.417959 0.484595 0.898819 0.032691
C17   C     C_R   0.576029 0.512466 0.101453 0.032534
C18   C     C_R   0.272807 0.476795 0.932013 0.053031
C19   C     C_R   0.726517 0.540118 0.068096 0.053047
C20   C     C_R   0.521257 0.502002 0.955319 0.033311
C21   C     C_R   0.473251 0.498735 0.045116 0.032691
C22   C     C_3   0.084095 0.351299 0.399587 -0.115484
C23   C     C_R   0.325601 0.486485 0.075471 -0.138811
C24   C     C_3   0.150121 0.248587 0.367723 -0.355455
C25   C     C_3   0.916418 0.653059 0.597990 -0.113192
C26   C     C_3   0.817100 0.693277 0.669490 -0.351716
C27   C     C_R   0.672429 0.529198 0.924939 -0.137197
C28   C     C_R   0.228269 0.476905 0.019821 -0.134570
C29   C     C_R   0.772768 0.549095 0.980429 -0.134119
C30   C     C_2   0.588213 0.885196 0.509539 -0.133500
C31   C     C_2   0.411806 0.114803 0.490325 -0.134210
C32   C     C_2   0.484787 0.930394 0.498447 -0.159774
Cu1   Cu    Cu3+1 0.362980 0.479380 0.485080 0.925653
Cu2   Cu    Cu3+1 0.637020 0.520620 0.514920 0.924812
H1    H     H_    0.117119 0.469928 0.045876 0.099839
H2    H     H_    0.718560 0.541140 0.858384 0.093913
H3    H     H_    0.623836 0.135577 0.512638 0.155296
H4    H     H_    0.376235 0.864397 0.487092 0.150071
H5    H     H_    0.303453 0.048589 0.478916 0.090390
H6    H     H_    0.696545 0.951430 0.520966 0.095671
H7    H     H_    0.147463 0.603828 0.535561 0.127906
H8    H     H_    0.879880 0.443890 0.433482 0.128404
H9    H     H_    0.267016 0.290655 0.339301 0.187073
H10   H     H_    0.130977 0.179144 0.418987 0.156956
H11   H     H_    0.090821 0.190276 0.316096 0.083946
H12   H     H_    0.887862 0.572158 0.954367 0.098709
H13   H     H_    0.969448 0.292822 0.428214 0.101903
H14   H     H_    0.081458 0.402712 0.342868 0.104997
H15   H     H_    0.743787 0.733446 0.646813 0.192143
H16   H     H_    0.755323 0.611150 0.712688 0.144494
H17   H     H_    0.887488 0.771763 0.708362 0.084870
H18   H     H_    0.980730 0.617105 0.633727 0.097235
H19   H     H_    0.991569 0.741610 0.562274 0.111028
H20   H     H_    0.420206 0.470685 0.218546 0.117551
H21   H     H_    0.555872 0.463307 0.781961 0.113871
H22   H     H_    0.867992 0.567359 0.252103 0.123401
H23   H     H_    0.141256 0.472151 0.747359 0.126858
H24   H     H_    0.062757 0.464518 0.901862 0.099945
H25   H     H_    0.945417 0.582648 0.097678 0.099114
H26   H     H_    0.282195 0.489061 0.142176 0.099607
N1    N     N_2   0.842890 0.551600 0.537350 -0.219088
N2    N     N_2   0.157110 0.448400 0.462650 -0.217906
O1    O     O_R   0.426810 0.668300 0.492040 -0.502565
O2    O     O_R   0.573190 0.331700 0.507960 -0.495471
O3    O     O_R   0.658240 0.703130 0.517240 -0.502426
O4    O     O_R   0.341760 0.296870 0.482760 -0.503332
O5    O     O_R   0.319390 0.472820 0.610170 -0.497319
O6    O     O_R   0.680610 0.527180 0.389830 -0.505997
O7    O     O_R   0.550820 0.507640 0.635370 -0.506877
O8    O     O_R   0.449180 0.492360 0.364630 -0.508760

loop_
_geom_bond_atom_site_label_1
_geom_bond_atom_site_label_2
_ccdc_geom_bond_type
C5    O7    A    
C22   H14   S    
C3    H8    S    
C6    O8    A    
C8    C13   A    
C20   C27   A    
C32   H4    S    
C27   H2    S    
C27   C29   A    
C5    C7    S    
C10   C19   A    
C7    C11   A    
Cu2   O7    S    
C16   C20   A    
C29   H12   S    
C5    O5    A    
C13   H22   S    
C6    O6    A    
C22   C24   S    
C26   H16   S    
C14   H21   S    
C25   H18   S    
C30   H6    S    
C12   C31   S    
C25   N1    S    
C23   C28   A    
C30   C32   D    
C9    C11   A    
C2    H3    S    
C18   C28   A    
Cu1   O8    S    
C24   H10   S    
C24   H11   S    
C1    O1    A    
Cu2   O3    S    
C16   C18   A    
C1    C30   S    
C17   C19   A    
C25   H19   S    
Cu1   O4    S    
C10   H25   S    
C8    C15   A    
C14   C16   A    
C3    N1    D    
C21   C23   A    
C23   H26   S    
C12   O2    A    
C22   H13   S    
Cu1   O1    S    
C26   H17   S    
C22   N2    S    
C4    H7    S    
C3    C4    S    
C19   C29   A    
C15   H20   S    
C4    N2    D    
C9    C18   A    
Cu1   Cu2   S    
C20   C21   A    
Cu1   O5    S    
C2    C32   S    
C9    H24   S    
Cu2   N1    S    
C26   H15   S    
Cu2   O6    S    
C15   C17   A    
C24   H9    S    
C2    C31   D    
C6    C8    S    
C25   C26   S    
C11   H23   S    
C12   O4    A    
C1    O3    A    
Cu2   O2    S    
C7    C14   A    
C17   C21   A    
C28   H1    S    
C31   H5    S    
Cu1   N2    S    
C10   C13   A    
